MODEL 4
REMARK VINA RESULT: -5.480631606      1.576      4.812
REMARK  3 active torsions:
REMARK  status: ('A' for Active; 'I' for Inactive)
REMARK    1  A    between atoms: N1_1  and  C1_5
REMARK    2  A    between atoms: C1_5  and  N2_6
REMARK    3  A    between atoms: C1_5  and  C2_10
REMARK       I    between atoms: C2_10  and  N3_12
ROOT
HETATM    1  C2  UNL     1       3.033 -19.520  21.250  1.00  0.00     0.281 C
HETATM    2  O1  UNL     1       4.273 -19.216  21.251  1.00  0.00    -0.269 OA
HETATM    3  N3  UNL     1       2.102 -18.618  21.772  1.00  0.00    -0.304 N
ATOM      4  H3  UNL     1       1.807 -18.728  22.743  1.00  0.00     0.170 HD
HETATM    5  C3  UNL     1       1.603 -17.661  21.086  1.00  0.00     0.192 A
HETATM    6  N4  UNL     1       0.692 -16.822  21.686  1.00  0.00    -0.277 N
ATOM      7  H4  UNL     1       0.425 -16.968  22.660  1.00  0.00     0.189 HD
HETATM    8  N5  UNL     1       0.167 -15.831  20.998  1.00  0.00    -0.250 N
ATOM      9  H5  UNL     1      -0.507 -15.219  21.459  1.00  0.00     0.192 HD
HETATM   10  C4  UNL     1       0.482 -15.592  19.714  1.00  0.00     0.341 A
HETATM   11  O2  UNL     1      -0.070 -14.616  19.127  1.00  0.00    -0.245 OA
HETATM   12  N6  UNL     1       1.366 -16.378  19.078  1.00  0.00    -0.271 N
ATOM     13  H6  UNL     1       1.613 -16.207  18.104  1.00  0.00     0.174 HD
HETATM   14  C5  UNL     1       1.923 -17.411  19.772  1.00  0.00     0.295 A
HETATM   15  O3  UNL     1       2.753 -18.134  19.141  1.00  0.00    -0.264 OA
ENDROOT
BRANCH   1  16
HETATM   16  C1  UNL     1       2.635 -20.834  20.691  1.00  0.00     0.468 C
BRANCH  16  17
HETATM   17  N1  UNL     1       1.340 -20.755  20.047  1.00  0.00    -0.042 N
ATOM     18  H13 UNL     1       0.663 -21.401  20.454  1.00  0.00     0.277 HD
ATOM     19  H12 UNL     1       0.852 -19.885  20.260  1.00  0.00     0.277 HD
ATOM     20  H11 UNL     1       1.463 -20.898  19.045  1.00  0.00     0.277 HD
ENDBRANCH  16  17
BRANCH  16  21
HETATM   21  N2  UNL     1       3.648 -21.145  19.675  1.00  0.00    -0.042 N
ATOM     22  H23 UNL     1       4.290 -20.370  19.513  1.00  0.00     0.277 HD
ATOM     23  H22 UNL     1       4.332 -21.829  20.002  1.00  0.00     0.277 HD
ATOM     24  H21 UNL     1       3.176 -21.445  18.822  1.00  0.00     0.277 HD
ENDBRANCH  16  21
ENDBRANCH   1  16
TORSDOF 3
ENDMDL