MODEL 5
REMARK VINA RESULT: -5.790092848      1.747      2.091
REMARK  3 active torsions:
REMARK  status: ('A' for Active; 'I' for Inactive)
REMARK    1  A    between atoms: N1_1  and  N2_4
REMARK    2  A    between atoms: N2_4  and  N3_5
REMARK    3  A    between atoms: N3_5  and  N4_6
REMARK       I    between atoms: N4_6  and  C1_8
REMARK       I    between atoms: C1_8  and  N5_10
ROOT
HETATM    1  N4  UNL     1       1.515 -21.653  22.353  1.00  0.00    -0.237 N
ATOM      2  H4  UNL     1       0.586 -21.360  22.052  1.00  0.00     0.188 HD
HETATM    3  C1  UNL     1       2.647 -21.157  21.650  1.00  0.00     0.338 C
HETATM    4  O1  UNL     1       3.782 -21.561  22.072  1.00  0.00    -0.245 OA
HETATM    5  N5  UNL     1       2.583 -20.276  20.554  1.00  0.00    -0.289 N
ATOM      6  H5  UNL     1       2.499 -20.711  19.636  1.00  0.00     0.172 HD
HETATM    7  C2  UNL     1       2.617 -19.013  20.566  1.00  0.00     0.184 A
HETATM    8  N6  UNL     1       2.542 -18.324  19.385  1.00  0.00    -0.289 N
ATOM      9  H6  UNL     1       2.460 -18.818  18.498  1.00  0.00     0.172 HD
HETATM   10  C3  UNL     1       2.578 -16.982  19.420  1.00  0.00     0.340 A
HETATM   11  O2  UNL     1       2.512 -16.313  18.347  1.00  0.00    -0.245 OA
HETATM   12  N7  UNL     1       2.686 -16.321  20.595  1.00  0.00    -0.248 N
ATOM     13  H7  UNL     1       2.711 -15.301  20.600  1.00  0.00     0.192 HD
HETATM   14  N8  UNL     1       2.759 -16.978  21.732  1.00  0.00    -0.259 N
ATOM     15  H8  UNL     1       2.840 -16.460  22.607  1.00  0.00     0.190 HD
HETATM   16  C4  UNL     1       2.726 -18.338  21.759  1.00  0.00     0.304 A
HETATM   17  O3  UNL     1       2.794 -18.980  22.838  1.00  0.00    -0.263 OA
ENDROOT
BRANCH   1  18
HETATM   18  N3  UNL     1       1.622 -22.524  23.437  1.00  0.00    -0.005 NA
BRANCH  18  19
HETATM   19  N2  UNL     1       0.470 -22.521  24.193  1.00  0.00    -0.016 NA
BRANCH  19  20
HETATM   20  N1  UNL     1       0.268 -21.290  24.812  1.00  0.00    -0.330 N
ATOM     21  H12 UNL     1       0.979 -20.560  24.854  1.00  0.00     0.173 HD
ATOM     22  H11 UNL     1      -0.668 -21.221  25.210  1.00  0.00     0.173 HD
ENDBRANCH  19  20
ENDBRANCH  18  19
ENDBRANCH   1  18
TORSDOF 3
ENDMDL