MODEL 3
REMARK VINA RESULT: -6.544514810      1.817      3.146
REMARK  3 active torsions:
REMARK  status: ('A' for Active; 'I' for Inactive)
REMARK    1  A    between atoms: C2_2  and  C3_3
REMARK    2  A    between atoms: C3_3  and  N1_4
REMARK    3  A    between atoms: C7_14  and  C9_16
ROOT
HETATM    1  C1  UNL     1      -0.087  27.481   3.404  1.00  0.00     0.017 C
HETATM    2  C2  UNL     1       0.338  27.954   4.739  1.00  0.00    -0.015 C
HETATM    3  C4  UNL     1       1.868  28.015   4.794  1.00  0.00     0.062 C
HETATM    4  C5  UNL     1       2.321  26.584   4.712  1.00  0.00    -0.019 C
HETATM    5  N2  UNL     1       3.216  26.263   3.857  1.00  0.00    -0.406 N
ATOM      6  H21 UNL     1       3.523  25.292   3.801  1.00  0.00     0.155 HD
ATOM      7  H22 UNL     1       3.609  26.977   3.245  1.00  0.00     0.155 HD
HETATM    8  C6  UNL     1       1.754  25.555   5.594  1.00  0.00     0.070 C
HETATM    9  C7  UNL     1       0.366  25.798   6.053  1.00  0.00     0.060 C
HETATM   10  C8  UNL     1      -0.619  24.763   5.493  1.00  0.00     0.025 C
HETATM   11  C10 UNL     1      -0.139  27.182   5.900  1.00  0.00     0.029 C
ENDROOT
BRANCH   2  12
HETATM   12  C3  UNL     1      -0.212  29.381   4.901  1.00  0.00     0.239 C
BRANCH  12  13
HETATM   13  N1  UNL     1      -1.284  29.636   3.991  1.00  0.00    -0.079 N
ATOM     14  H13 UNL     1      -1.152  30.517   3.495  1.00  0.00     0.274 HD
ATOM     15  H12 UNL     1      -1.257  29.000   3.194  1.00  0.00     0.274 HD
ATOM     16  H11 UNL     1      -2.189  29.606   4.462  1.00  0.00     0.274 HD
ENDBRANCH  12  13
ENDBRANCH   2  12
BRANCH   9  17
HETATM   17  C9  UNL     1       0.346  25.508   7.567  1.00  0.00     0.395 C
HETATM   18  F1  UNL     1      -0.492  26.392   8.212  1.00  0.00    -0.170 F
HETATM   19  F2  UNL     1      -0.159  24.226   7.678  1.00  0.00    -0.170 F
HETATM   20  F3  UNL     1       1.620  25.513   8.059  1.00  0.00    -0.170 F
ENDBRANCH   9  17
TORSDOF 3
ENDMDL