MODEL 5
REMARK VINA RESULT: -7.047551025      3.014      5.201
REMARK  1 active torsions:
REMARK  status: ('A' for Active; 'I' for Inactive)
REMARK    1  A    between atoms: C2_2  and  C4_4
ROOT
HETATM    1  C4  UNL     1       2.016  23.770  10.182  1.00  0.00     0.214 C
HETATM    2  C5  UNL     1       1.402  25.141   9.985  1.00  0.00     0.044 C
HETATM    3  C6  UNL     1       1.163  25.096   8.487  1.00  0.00     0.019 C
HETATM    4  C7  UNL     1       0.086  26.045   8.040  1.00  0.00     0.012 C
HETATM    5  C8  UNL     1      -0.803  25.368   7.019  1.00  0.00     0.079 C
HETATM    6  C9  UNL     1      -0.042  24.413   6.134  1.00  0.00     0.245 C
HETATM    7  F1  UNL     1       0.814  25.096   5.312  1.00  0.00    -0.206 F
HETATM    8  F2  UNL     1      -0.991  23.775   5.337  1.00  0.00    -0.206 F
HETATM    9  C10 UNL     1       0.651  23.323   6.931  1.00  0.00     0.112 C
HETATM   10  C11 UNL     1       0.550  23.690   8.373  1.00  0.00     0.196 C
HETATM   11  N1  UNL     1       1.316  22.896   9.267  1.00  0.00    -0.062 N
ATOM     12  H11 UNL     1       0.752  22.197   9.750  1.00  0.00     0.278 HD
ATOM     13  H12 UNL     1       1.945  22.257   8.780  1.00  0.00     0.278 HD
ENDROOT
BRANCH   1  14
HETATM   14  C2  UNL     1       2.025  23.323  11.577  1.00  0.00    -0.063 C
HETATM   15  C1  UNL     1       0.965  23.547  12.336  1.00  0.00     0.016 C
HETATM   16  C3  UNL     1       3.199  22.624  12.156  1.00  0.00     0.044 C
ENDBRANCH   1  14
TORSDOF 1
ENDMDL