MODEL 3
REMARK VINA RESULT: -7.418955786      4.733      6.078
REMARK  2 active torsions:
REMARK  status: ('A' for Active; 'I' for Inactive)
REMARK    1  A    between atoms: C1_2  and  C2_4
REMARK    2  A    between atoms: C4_8  and  C5_9
ROOT
HETATM    1  C2  UNL     1       0.195  25.914   5.995  1.00  0.00     0.088 C
HETATM    2  C3  UNL     1      -0.174  24.428   6.149  1.00  0.00     0.142 C
HETATM    3  N1  UNL     1      -0.757  24.101   4.840  1.00  0.00    -0.148 NA
HETATM    4  N2  UNL     1       0.010  24.888   3.941  1.00  0.00    -0.143 NA
HETATM    5  C4  UNL     1      -0.103  26.198   4.609  1.00  0.00     0.110 C
ENDROOT
BRANCH   5   6
HETATM    6  C5  UNL     1       0.595  27.246   3.846  1.00  0.00     0.007 C
HETATM    7  C6  UNL     1       1.606  26.729   2.896  1.00  0.00     0.006 C
HETATM    8  C7  UNL     1       2.474  27.964   2.564  1.00  0.00     0.000 C
HETATM    9  C8  UNL     1       1.609  28.819   1.690  1.00  0.00     0.000 C
HETATM   10  C9  UNL     1       0.246  29.096   2.166  1.00  0.00     0.000 C
HETATM   11  C10 UNL     1      -0.378  28.128   3.101  1.00  0.00     0.006 C
ENDBRANCH   5   6
BRANCH   1  12
HETATM   12  C1  UNL     1       1.493  26.226   6.621  1.00  0.00     0.360 C
HETATM   13  F1  UNL     1       2.533  25.646   5.829  1.00  0.00    -0.214 F
HETATM   14  F2  UNL     1       1.642  25.599   7.842  1.00  0.00    -0.214 F
ENDBRANCH   1  12
TORSDOF 2
ENDMDL