MODEL 5
REMARK VINA RESULT: -6.439930690      2.853      4.211
REMARK  3 active torsions:
REMARK  status: ('A' for Active; 'I' for Inactive)
REMARK    1  A    between atoms: C5_5  and  C6_6
REMARK    2  A    between atoms: C7_10  and  C8_11
REMARK    3  A    between atoms: C9_15  and  O1_16
ROOT
HETATM    1  C1  UNL     1       1.243  25.924   7.160  1.00  0.00     0.010 C
HETATM    2  C2  UNL     1       1.644  25.844   5.702  1.00  0.00    -0.016 C
HETATM    3  C3  UNL     1       0.431  25.917   4.791  1.00  0.00     0.005 C
HETATM    4  C4  UNL     1      -0.142  27.288   4.716  1.00  0.00     0.014 C
HETATM    5  C5  UNL     1       0.558  28.278   3.875  1.00  0.00     0.105 C
HETATM    6  C7  UNL     1       1.768  27.841   3.142  1.00  0.00     0.065 C
HETATM    7  C9  UNL     1       2.824  27.141   3.920  1.00  0.00     0.128 C
HETATM    8  C10 UNL     1       2.570  27.001   5.389  1.00  0.00     0.036 C
ENDROOT
BRANCH   5   9
HETATM    9  C6  UNL     1      -0.469  28.735   2.824  1.00  0.00     0.392 C
HETATM   10  F1  UNL     1      -0.372  27.895   1.739  1.00  0.00    -0.171 F
HETATM   11  F2  UNL     1      -0.286  30.020   2.419  1.00  0.00    -0.171 F
HETATM   12  F3  UNL     1      -1.760  28.597   3.352  1.00  0.00    -0.171 F
ENDBRANCH   5   9
BRANCH   6  13
HETATM   13  C8  UNL     1       2.412  29.069   2.558  1.00  0.00     0.060 C
HETATM   14  N1  UNL     1       3.463  28.875   1.860  1.00  0.00    -0.411 N
ATOM     15  H12 UNL     1       3.832  27.935   1.718  1.00  0.00     0.155 HD
ATOM     16  H11 UNL     1       3.899  29.707   1.464  1.00  0.00     0.155 HD
ENDBRANCH   6  13
BRANCH   7  17
HETATM   17  O1  UNL     1       3.021  25.873   3.324  1.00  0.00    -0.395 OA
ATOM     18  H1  UNL     1       3.746  25.456   3.774  1.00  0.00     0.210 HD
ENDBRANCH   7  17
TORSDOF 3
ENDMDL