MODEL 4
REMARK VINA RESULT: -6.098859242      3.607      4.566
REMARK  3 active torsions:
REMARK  status: ('A' for Active; 'I' for Inactive)
REMARK    1  A    between atoms: N2_3  and  N3_5
REMARK    2  A    between atoms: N3_5  and  C2_7
REMARK    3  A    between atoms: C2_7  and  C3_9
ROOT
HETATM    1  N1  UNL     1       0.225  21.521   6.007  1.00  0.00    -0.170 NA
HETATM    2  C1  UNL     1       0.440  22.522   6.552  1.00  0.00     0.197 C
HETATM    3  N2  UNL     1       0.676  23.738   7.210  1.00  0.00    -0.235 N
ATOM      4  H2  UNL     1       0.334  23.858   8.164  1.00  0.00     0.199 HD
ENDROOT
BRANCH   3   5
HETATM    5  N3  UNL     1       1.373  24.799   6.594  1.00  0.00    -0.285 N
ATOM      6  H3  UNL     1       2.389  24.833   6.667  1.00  0.00     0.188 HD
BRANCH   5   7
HETATM    7  C2  UNL     1       0.699  25.818   5.877  1.00  0.00     0.097 C
HETATM    8  S1  UNL     1      -0.762  25.474   5.247  1.00  0.00    -0.064 SA
BRANCH   7   9
HETATM    9  C3  UNL     1       1.335  27.147   5.725  1.00  0.00     0.051 C
HETATM   10  C4  UNL     1       0.638  27.972   4.668  1.00  0.00     0.014 C
HETATM   11  C5  UNL     1       1.487  27.949   3.426  1.00  0.00     0.038 C
HETATM   12  C6  UNL     1       2.412  26.784   3.674  1.00  0.00     0.171 C
HETATM   13  F1  UNL     1       3.563  26.853   2.914  1.00  0.00    -0.249 F
HETATM   14  C7  UNL     1       2.741  27.014   5.157  1.00  0.00     0.049 C
ENDBRANCH   7   9
ENDBRANCH   5   7
ENDBRANCH   3   5
TORSDOF 3
ENDMDL