MODEL 3
REMARK VINA RESULT: -6.318610544      4.449      5.654
REMARK  5 active torsions:
REMARK  status: ('A' for Active; 'I' for Inactive)
REMARK    1  A    between atoms: C2_2  and  N1_5
REMARK    2  A    between atoms: N1_5  and  C5_7
REMARK    3  A    between atoms: C5_7  and  O1_11
REMARK    4  A    between atoms: O1_11  and  C6_12
REMARK    5  A    between atoms: C6_12  and  C7_13
ROOT
HETATM    1  C5  UNL     1       1.199  26.727   3.250  1.00  0.00     0.214 C
HETATM    2  N2  UNL     1       0.057  27.251   3.019  1.00  0.00    -0.365 N
ATOM      3  H21 UNL     1      -0.785  26.922   3.493  1.00  0.00     0.159 HD
ATOM      4  H22 UNL     1       0.022  28.012   2.341  1.00  0.00     0.159 HD
ENDROOT
BRANCH   1   5
HETATM    5  N1  UNL     1       2.378  27.186   2.588  1.00  0.00    -0.348 N
ATOM      6  H1  UNL     1       2.673  26.791   1.696  1.00  0.00     0.163 HD
BRANCH   5   7
HETATM    7  C2  UNL     1       3.131  28.226   3.230  1.00  0.00     0.022 C
HETATM    8  C1  UNL     1       4.016  28.885   2.215  1.00  0.00     0.037 C
HETATM    9  C3  UNL     1       4.030  27.602   4.295  1.00  0.00     0.037 C
HETATM   10  C4  UNL     1       2.279  29.254   3.902  1.00  0.00     0.037 C
ENDBRANCH   5   7
ENDBRANCH   1   5
BRANCH   1  11
HETATM   11  O1  UNL     1       1.246  25.695   4.170  1.00  0.00    -0.302 OA
BRANCH  11  12
HETATM   12  C6  UNL     1       0.785  25.752   5.485  1.00  0.00     0.168 A
HETATM   13  C8  UNL     1       1.733  25.920   6.629  1.00  0.00     0.051 A
HETATM   14  C9  UNL     1       0.848  27.081   6.192  1.00  0.00     0.051 A
BRANCH  12  15
HETATM   15  C7  UNL     1      -0.446  24.924   5.810  1.00  0.00     0.419 C
HETATM   16  F1  UNL     1      -1.445  25.098   4.867  1.00  0.00    -0.168 F
HETATM   17  F2  UNL     1      -0.975  25.350   7.039  1.00  0.00    -0.168 F
HETATM   18  F3  UNL     1      -0.089  23.609   5.993  1.00  0.00    -0.168 F
ENDBRANCH  12  15
ENDBRANCH  11  12
ENDBRANCH   1  11
TORSDOF 5
ENDMDL