MODEL 5
REMARK VINA RESULT: -6.723434194      2.075      2.508
REMARK  4 active torsions:
REMARK  status: ('A' for Active; 'I' for Inactive)
REMARK    1  A    between atoms: C2_2  and  C3_5
REMARK    2  A    between atoms: C3_5  and  N2_10
REMARK    3  A    between atoms: N1_6  and  O1_8
REMARK    4  A    between atoms: N2_10  and  C4_12
ROOT
HETATM    1  C3  UNL     1       1.413  23.426  10.014  1.00  0.00     0.170 C
HETATM    2  N1  UNL     1       2.484  22.720  10.006  1.00  0.00    -0.252 N
ATOM      3  H1  UNL     1       2.717  22.264   9.124  1.00  0.00     0.195 HD
ENDROOT
BRANCH   1   4
HETATM    4  C2  UNL     1       1.037  24.106  11.276  1.00  0.00     0.298 C
HETATM    5  C1  UNL     1       2.082  25.140  11.628  1.00  0.00     0.099 C
HETATM    6  F1  UNL     1       0.878  23.285  12.344  1.00  0.00    -0.198 F
HETATM    7  F2  UNL     1      -0.169  24.762  11.015  1.00  0.00    -0.198 F
ENDBRANCH   1   4
BRANCH   1   8
HETATM    8  N2  UNL     1       0.596  23.571   8.882  1.00  0.00    -0.369 N
ATOM      9  H2  UNL     1      -0.184  22.920   8.794  1.00  0.00     0.161 HD
BRANCH   8  10
HETATM   10  C4  UNL     1       0.742  24.530   7.849  1.00  0.00     0.083 C
HETATM   11  C5  UNL     1      -0.055  25.802   8.040  1.00  0.00     0.025 C
HETATM   12  C6  UNL     1       0.246  26.498   6.702  1.00  0.00     0.002 C
HETATM   13  C7  UNL     1       0.099  25.371   5.732  1.00  0.00     0.002 C
HETATM   14  C8  UNL     1       0.246  24.074   6.495  1.00  0.00     0.025 C
ENDBRANCH   8  10
ENDBRANCH   1   8
BRANCH   2  15
HETATM   15  O1  UNL     1       3.338  22.512  11.030  1.00  0.00    -0.288 OA
ATOM     16  H1  UNL     1       4.013  23.101  11.350  1.00  0.00     0.244 HD
ENDBRANCH   2  15
TORSDOF 4
ENDMDL