MODEL 3
REMARK VINA RESULT: -6.021869791      2.758      4.189
REMARK  2 active torsions:
REMARK  status: ('A' for Active; 'I' for Inactive)
REMARK    1  A    between atoms: C5_8  and  C6_9
REMARK    2  A    between atoms: C10_15  and  N2_16
ROOT
HETATM    1  C1  UNL     1       0.349  27.677   1.687  1.00  0.00     0.023 C
HETATM    2  C2  UNL     1       0.699  28.075   3.129  1.00  0.00     0.019 C
HETATM    3  C3  UNL     1       0.157  29.491   3.329  1.00  0.00     0.023 C
HETATM    4  C4  UNL     1      -0.013  27.196   4.053  1.00  0.00    -0.001 C
HETATM    5  N1  UNL     1      -1.290  27.414   4.091  1.00  0.00    -0.404 N
ATOM      6  H11 UNL     1      -1.788  26.799   4.736  1.00  0.00     0.155 HD
ATOM      7  H12 UNL     1      -1.593  28.164   3.469  1.00  0.00     0.155 HD
HETATM    8  C5  UNL     1       0.427  26.107   4.956  1.00  0.00     0.097 C
HETATM    9  C7  UNL     1       1.424  26.614   5.980  1.00  0.00     0.016 C
HETATM   10  C8  UNL     1       2.748  26.775   5.242  1.00  0.00     0.003 C
HETATM   11  C9  UNL     1       2.719  28.161   4.622  1.00  0.00     0.034 C
HETATM   12  C10 UNL     1       2.183  28.024   3.232  1.00  0.00     0.197 C
ENDROOT
BRANCH  12  13
HETATM   13  N2  UNL     1       2.733  29.029   2.335  1.00  0.00    -0.074 N
ATOM     14  H23 UNL     1       2.449  28.888   1.366  1.00  0.00     0.274 HD
ATOM     15  H22 UNL     1       2.312  29.949   2.470  1.00  0.00     0.274 HD
ATOM     16  H21 UNL     1       3.746  29.037   2.452  1.00  0.00     0.274 HD
ENDBRANCH  12  13
BRANCH   8  17
HETATM   17  C6  UNL     1      -0.726  25.508   5.710  1.00  0.00     0.362 C
HETATM   18  F1  UNL     1      -0.546  25.797   7.054  1.00  0.00    -0.214 F
HETATM   19  F2  UNL     1      -0.821  24.150   5.587  1.00  0.00    -0.214 F
ENDBRANCH   8  17
TORSDOF 2
ENDMDL