MODEL 1
REMARK VINA RESULT: -5.673655494      0.000      0.000
REMARK  1 active torsions:
REMARK  status: ('A' for Active; 'I' for Inactive)
REMARK    1  A    between atoms: C5_5  and  C7_7
ROOT
HETATM    1  C1  UNL     1       0.177  28.081   2.211  1.00  0.00     0.038 C
HETATM    2  C2  UNL     1      -0.043  28.406   3.680  1.00  0.00     0.026 C
HETATM    3  C3  UNL     1      -1.089  29.536   3.668  1.00  0.00     0.038 C
HETATM    4  C4  UNL     1      -0.648  27.289   4.437  1.00  0.00     0.056 C
HETATM    5  C5  UNL     1       0.266  26.312   5.083  1.00  0.00     0.073 C
HETATM    6  C6  UNL     1      -0.304  24.932   5.025  1.00  0.00     0.033 C
HETATM    7  S1  UNL     1       1.955  26.371   4.361  1.00  0.00    -0.079 SA
HETATM    8  C8  UNL     1       2.300  28.115   4.277  1.00  0.00     0.135 C
HETATM    9  N1  UNL     1       3.483  28.542   4.283  1.00  0.00    -0.380 N
ATOM     10  H11 UNL     1       3.681  29.542   4.235  1.00  0.00     0.158 HD
ATOM     11  H12 UNL     1       4.298  27.931   4.333  1.00  0.00     0.158 HD
HETATM   12  N2  UNL     1       1.169  28.964   4.208  1.00  0.00    -0.363 N
ATOM     13  H2  UNL     1       1.214  29.934   4.520  1.00  0.00     0.162 HD
ENDROOT
BRANCH   5  14
HETATM   14  C7  UNL     1       0.466  26.637   6.572  1.00  0.00     0.371 C
HETATM   15  F1  UNL     1       1.759  26.305   6.929  1.00  0.00    -0.213 F
HETATM   16  F2  UNL     1      -0.453  25.982   7.350  1.00  0.00    -0.213 F
ENDBRANCH   5  14
TORSDOF 1
ENDMDL