MODEL 5
REMARK VINA RESULT: -5.589932595      1.853      2.291
REMARK  2 active torsions:
REMARK  status: ('A' for Active; 'I' for Inactive)
REMARK    1  A    between atoms: C5_5  and  C7_7
REMARK    2  A    between atoms: C7_7  and  N1_8
ROOT
HETATM    1  C1  UNL     1      -1.840  28.485   3.618  1.00  0.00     0.044 C
HETATM    2  C2  UNL     1      -0.377  28.279   3.749  1.00  0.00    -0.067 C
HETATM    3  C3  UNL     1       0.280  28.763   4.793  1.00  0.00    -0.022 C
HETATM    4  C4  UNL     1       1.728  28.517   4.851  1.00  0.00     0.044 C
HETATM    5  C5  UNL     1       2.132  27.092   4.545  1.00  0.00     0.050 C
HETATM    6  C6  UNL     1       1.969  26.327   5.869  1.00  0.00     0.023 C
HETATM    7  C8  UNL     1       1.224  26.506   3.547  1.00  0.00     0.269 C
HETATM    8  F1  UNL     1       1.822  25.647   2.650  1.00  0.00    -0.204 F
HETATM    9  F2  UNL     1       0.247  25.752   4.197  1.00  0.00    -0.204 F
HETATM   10  C9  UNL     1       0.418  27.532   2.738  1.00  0.00     0.160 C
HETATM   11  S1  UNL     1       1.450  28.569   1.717  1.00  0.00    -0.081 SA
ENDROOT
BRANCH   5  12
HETATM   12  C7  UNL     1       3.589  27.045   4.209  1.00  0.00     0.245 C
BRANCH  12  13
HETATM   13  N1  UNL     1       4.273  28.266   4.191  1.00  0.00    -0.078 N
ATOM     14  H13 UNL     1       3.825  28.917   4.836  1.00  0.00     0.274 HD
ATOM     15  H12 UNL     1       5.183  28.155   4.638  1.00  0.00     0.274 HD
ATOM     16  H11 UNL     1       4.392  28.713   3.281  1.00  0.00     0.274 HD
ENDBRANCH  12  13
ENDBRANCH   5  12
TORSDOF 2
ENDMDL