MODEL 3
REMARK VINA RESULT: -8.141196833      2.073      4.485
REMARK  2 active torsions:
REMARK  status: ('A' for Active; 'I' for Inactive)
REMARK    1  A    between atoms: C9_9  and  O1_10
REMARK    2  A    between atoms: C14_17  and  O2_18
ROOT
HETATM    1  C1  UNL     1     -18.048  37.598  -6.009  1.00  0.00     0.039 C
HETATM    2  C2  UNL     1     -17.917  36.846  -4.696  1.00  0.00     0.118 C
HETATM    3  C3  UNL     1     -17.706  37.904  -3.623  1.00  0.00     0.045 C
HETATM    4  C4  UNL     1     -18.231  37.153  -2.392  1.00  0.00     0.009 C
HETATM    5  C5  UNL     1     -19.364  36.452  -3.019  1.00  0.00     0.132 C
HETATM    6  C6  UNL     1     -20.484  37.470  -3.098  1.00  0.00     0.033 C
HETATM    7  C7  UNL     1     -20.082  38.656  -2.287  1.00  0.00     0.010 C
HETATM    8  C8  UNL     1     -18.856  38.208  -1.518  1.00  0.00     0.027 C
HETATM    9  C9  UNL     1     -19.304  37.739  -0.171  1.00  0.00     0.123 C
HETATM   10  C10 UNL     1     -18.802  36.397   0.223  1.00  0.00     0.041 C
HETATM   11  C11 UNL     1     -17.319  36.333  -0.176  1.00  0.00     0.046 C
HETATM   12  C12 UNL     1     -16.741  35.146   0.475  1.00  0.00     0.130 C
HETATM   13  C13 UNL     1     -16.180  35.608   1.836  1.00  0.00     0.055 C
HETATM   14  F1  UNL     1     -17.756  34.238   0.817  1.00  0.00    -0.240 F
HETATM   15  C14 UNL     1     -15.676  34.380  -0.179  1.00  0.00     0.164 C
HETATM   16  C15 UNL     1     -15.687  34.371  -1.679  1.00  0.00     0.114 C
HETATM   17  C16 UNL     1     -16.980  34.983  -2.111  1.00  0.00     0.139 C
HETATM   18  O3  UNL     1     -17.704  34.264  -2.756  1.00  0.00    -0.297 OA
HETATM   19  C17 UNL     1     -17.190  36.369  -1.691  1.00  0.00     0.034 C
HETATM   20  C18 UNL     1     -15.847  37.094  -1.917  1.00  0.00     0.025 C
HETATM   21  O4  UNL     1     -19.051  36.161  -4.359  1.00  0.00    -0.380 OA
ENDROOT
BRANCH   9  22
HETATM   22  O1  UNL     1     -18.792  38.666   0.769  1.00  0.00    -0.395 OA
ATOM     23  H1  UNL     1     -17.906  38.388   0.968  1.00  0.00     0.210 HD
ENDBRANCH   9  22
BRANCH  15  24
HETATM   24  O2  UNL     1     -15.697  33.049   0.245  1.00  0.00    -0.392 OA
ATOM     25  H2  UNL     1     -15.385  32.980   1.140  1.00  0.00     0.210 HD
ENDBRANCH  15  24
TORSDOF 2
ENDMDL