MODEL 2
REMARK VINA RESULT: -7.353526045      2.942      5.177
REMARK  5 active torsions:
REMARK  status: ('A' for Active; 'I' for Inactive)
REMARK    1  A    between atoms: N1_6  and  C6_8
REMARK    2  A    between atoms: C6_8  and  O1_12
REMARK    3  A    between atoms: C10_18  and  O2_19
REMARK       I    between atoms: N3_22  and  C12_23
REMARK    4  A    between atoms: C12_23  and  O4_25
REMARK    5  A    between atoms: O4_25  and  C13_26
ROOT
HETATM    1  C1  UNL     1     -17.676  34.787  -2.290  1.00  0.00     0.033 C
HETATM    2  C2  UNL     1     -16.860  35.292  -3.444  1.00  0.00     0.090 C
HETATM    3  C3  UNL     1     -15.760  34.488  -3.878  1.00  0.00     0.031 C
HETATM    4  C4  UNL     1     -14.552  33.943  -3.315  1.00  0.00     0.058 C
HETATM    5  C5  UNL     1     -14.003  33.164  -4.497  1.00  0.00     0.027 C
HETATM    6  N1  UNL     1     -12.768  33.336  -4.738  1.00  0.00    -0.327 N
ATOM      7  H1  UNL     1     -12.335  32.843  -5.519  1.00  0.00     0.169 HD
HETATM    8  C7  UNL     1     -14.887  32.264  -5.297  1.00  0.00     0.238 C
HETATM    9  F1  UNL     1     -14.007  31.136  -5.449  1.00  0.00    -0.239 F
HETATM   10  C8  UNL     1     -15.250  32.570  -6.655  1.00  0.00     0.014 C
HETATM   11  C9  UNL     1     -16.122  33.580  -7.208  1.00  0.00     0.009 C
HETATM   12  C10 UNL     1     -17.458  33.909  -6.779  1.00  0.00     0.179 C
HETATM   13  C11 UNL     1     -17.989  34.163  -5.464  1.00  0.00     0.105 C
HETATM   14  N3  UNL     1     -17.695  35.327  -4.688  1.00  0.00    -0.300 N
HETATM   15  C12 UNL     1     -18.176  36.616  -5.033  1.00  0.00     0.367 C
HETATM   16  O3  UNL     1     -18.884  36.720  -6.065  1.00  0.00    -0.238 OA
ENDROOT
BRANCH   6  17
HETATM   17  C6  UNL     1     -11.990  34.196  -3.943  1.00  0.00     0.214 C
HETATM   18  N2  UNL     1     -11.319  33.686  -2.977  1.00  0.00    -0.365 N
ATOM     19  H22 UNL     1     -11.381  32.678  -2.829  1.00  0.00     0.159 HD
ATOM     20  H21 UNL     1     -10.755  34.310  -2.401  1.00  0.00     0.159 HD
BRANCH  17  21
HETATM   21  O1  UNL     1     -11.906  35.564  -4.145  1.00  0.00    -0.333 OA
ATOM     22  H1  UNL     1     -11.982  36.205  -3.449  1.00  0.00     0.220 HD
ENDBRANCH  17  21
ENDBRANCH   6  17
BRANCH  12  23
HETATM   23  O2  UNL     1     -18.301  32.899  -7.348  1.00  0.00    -0.387 OA
ATOM     24  H2  UNL     1     -18.237  32.155  -6.761  1.00  0.00     0.210 HD
ENDBRANCH  12  23
BRANCH  15  25
HETATM   25  O4  UNL     1     -17.916  37.744  -4.312  1.00  0.00    -0.294 OA
BRANCH  25  26
HETATM   26  C13 UNL     1     -18.825  38.389  -3.446  1.00  0.00     0.061 C
HETATM   27  C14 UNL     1     -20.033  37.534  -3.144  1.00  0.00     0.046 C
HETATM   28  C15 UNL     1     -18.097  38.607  -2.131  1.00  0.00     0.046 C
HETATM   29  C16 UNL     1     -19.214  39.724  -3.995  1.00  0.00     0.046 C
ENDBRANCH  25  26
ENDBRANCH  15  25
TORSDOF 5
ENDMDL