MODEL 1
REMARK VINA RESULT: -6.931603644      0.000      0.000
REMARK  2 active torsions:
REMARK  status: ('A' for Active; 'I' for Inactive)
REMARK    1  A    between atoms: C5_5  and  O1_6
REMARK    2  A    between atoms: C13_18  and  O4_19
ROOT
HETATM    1  C1  UNL     1     -14.210  33.610  -2.885  1.00  0.00     0.046 C
HETATM    2  C2  UNL     1     -14.809  34.181  -1.658  1.00  0.00    -0.056 C
HETATM    3  C3  UNL     1     -14.896  33.450  -0.546  1.00  0.00    -0.019 C
HETATM    4  C4  UNL     1     -15.516  34.125   0.631  1.00  0.00     0.071 C
HETATM    5  C5  UNL     1     -16.837  34.658   0.222  1.00  0.00     0.128 C
HETATM    6  C6  UNL     1     -16.742  35.505  -1.052  1.00  0.00     0.121 C
HETATM    7  C7  UNL     1     -17.614  34.899  -2.137  1.00  0.00     0.052 C
HETATM    8  O2  UNL     1     -17.241  36.786  -0.688  1.00  0.00    -0.365 OA
HETATM    9  C8  UNL     1     -18.254  36.435   0.099  1.00  0.00     0.176 C
HETATM   10  C9  UNL     1     -18.997  37.311   0.969  1.00  0.00     0.114 C
HETATM   11 BR1  UNL     1     -20.728  37.708   0.145  1.00  0.00    -0.086 Br
HETATM   12  C10 UNL     1     -19.226  36.375   2.172  1.00  0.00     0.187 C
HETATM   13  O3  UNL     1     -18.619  35.158   1.822  1.00  0.00    -0.373 OA
HETATM   14  C11 UNL     1     -17.508  35.573   1.149  1.00  0.00     0.118 C
HETATM   15  C12 UNL     1     -16.661  36.378   2.051  1.00  0.00     0.052 C
HETATM   16  C13 UNL     1     -15.344  35.569  -1.581  1.00  0.00     0.184 C
ENDROOT
BRANCH   5  17
HETATM   17  O1  UNL     1     -17.672  33.541  -0.016  1.00  0.00    -0.383 OA
ATOM     18  H1  UNL     1     -18.241  33.774  -0.740  1.00  0.00     0.210 HD
ENDBRANCH   5  17
BRANCH  16  19
HETATM   19  O4  UNL     1     -14.518  36.444  -0.922  1.00  0.00    -0.388 OA
ATOM     20  H4  UNL     1     -14.979  37.055  -0.359  1.00  0.00     0.210 HD
ENDBRANCH  16  19
TORSDOF 2
ENDMDL