MODEL 5
REMARK VINA RESULT: -7.001871578      2.770      4.630
REMARK  2 active torsions:
REMARK  status: ('A' for Active; 'I' for Inactive)
REMARK    1  A    between atoms: C12_13  and  O2_14
REMARK    2  A    between atoms: C16_19  and  O3_20
ROOT
HETATM    1  C1  UNL     1     -18.075  37.247  -6.427  1.00  0.00     0.017 C
HETATM    2  C2  UNL     1     -17.753  36.652  -5.281  1.00  0.00    -0.058 C
HETATM    3  C3  UNL     1     -18.758  35.589  -5.004  1.00  0.00     0.202 C
HETATM    4  O1  UNL     1     -18.599  34.907  -3.866  1.00  0.00    -0.381 OA
HETATM    5  C4  UNL     1     -18.598  35.508  -2.657  1.00  0.00     0.127 C
HETATM    6  C5  UNL     1     -19.508  36.737  -2.591  1.00  0.00     0.039 C
HETATM    7  C6  UNL     1     -18.612  37.890  -2.252  1.00  0.00     0.022 C
HETATM    8  C7  UNL     1     -17.570  37.221  -1.405  1.00  0.00     0.015 C
HETATM    9  C8  UNL     1     -17.338  35.835  -1.991  1.00  0.00     0.026 C
HETATM   10  C9  UNL     1     -16.020  35.666  -2.636  1.00  0.00    -0.000 C
HETATM   11  C10 UNL     1     -14.990  36.193  -1.626  1.00  0.00     0.019 C
HETATM   12  C11 UNL     1     -15.711  34.145  -2.677  1.00  0.00     0.049 C
HETATM   13  C12 UNL     1     -14.361  33.904  -3.312  1.00  0.00     0.147 C
HETATM   14  C13 UNL     1     -13.645  35.100  -3.763  1.00  0.00    -0.056 C
HETATM   15  C14 UNL     1     -12.146  35.085  -3.816  1.00  0.00     0.046 C
HETATM   16  C15 UNL     1     -14.288  36.230  -4.135  1.00  0.00     0.017 C
HETATM   17  C16 UNL     1     -15.799  36.070  -4.016  1.00  0.00     0.091 C
HETATM   18  C17 UNL     1     -16.523  37.201  -4.640  1.00  0.00     0.058 C
HETATM   19  C18 UNL     1     -16.721  38.440  -3.868  1.00  0.00     0.050 C
HETATM   20  C19 UNL     1     -18.113  38.689  -3.376  1.00  0.00     0.175 C
HETATM   21  F1  UNL     1     -18.219  40.064  -3.095  1.00  0.00    -0.249 F
ENDROOT
BRANCH  13  22
HETATM   22  O2  UNL     1     -13.531  33.184  -2.419  1.00  0.00    -0.391 OA
ATOM     23  H2  UNL     1     -12.737  32.912  -2.865  1.00  0.00     0.210 HD
ENDBRANCH  13  22
BRANCH  17  24
HETATM   24  O3  UNL     1     -15.977  35.012  -4.971  1.00  0.00    -0.384 OA
ATOM     25  H3  UNL     1     -16.878  34.730  -5.071  1.00  0.00     0.211 HD
ENDBRANCH  17  24
TORSDOF 2
ENDMDL