MODEL 5
REMARK VINA RESULT: -7.724145938      3.260      4.839
REMARK  3 active torsions:
REMARK  status: ('A' for Active; 'I' for Inactive)
REMARK       I    between atoms: N1_4  and  C3_5
REMARK       I    between atoms: C3_5  and  N2_7
REMARK    1  A    between atoms: N2_7  and  N3_9
REMARK       I    between atoms: N3_9  and  C4_11
REMARK    2  A    between atoms: C4_11  and  O4_13
REMARK    3  A    between atoms: O4_13  and  C5_14
ROOT
HETATM    1  C1  UNL     1     -22.324  39.660  -3.529  1.00  0.00     0.049 C
HETATM    2  C2  UNL     1     -21.137  39.283  -3.125  1.00  0.00     0.073 C
HETATM    3  O1  UNL     1     -20.370  38.218  -3.615  1.00  0.00    -0.236 OA
HETATM    4  N1  UNL     1     -19.469  37.805  -2.667  1.00  0.00    -0.195 N
HETATM    5  C3  UNL     1     -18.445  36.803  -2.834  1.00  0.00     0.361 C
HETATM    6  O2  UNL     1     -17.683  36.512  -1.889  1.00  0.00    -0.243 OA
HETATM    7  N2  UNL     1     -18.276  36.123  -4.067  1.00  0.00    -0.245 N
ATOM      8  H2  UNL     1     -18.888  36.353  -4.850  1.00  0.00     0.192 HD
HETATM    9  C9  UNL     1     -19.752  38.567  -1.468  1.00  0.00     0.131 C
HETATM   10  C10 UNL     1     -20.808  37.778  -0.723  1.00  0.00     0.029 C
HETATM   11  C11 UNL     1     -20.912  38.118   0.727  1.00  0.00     0.002 C
HETATM   12  C12 UNL     1     -21.226  39.553   0.996  1.00  0.00     0.000 C
HETATM   13  C13 UNL     1     -21.905  40.209  -0.180  1.00  0.00     0.001 C
HETATM   14  C14 UNL     1     -20.935  40.780  -1.152  1.00  0.00     0.013 C
HETATM   15  C15 UNL     1     -20.257  39.843  -2.057  1.00  0.00     0.070 C
ENDROOT
BRANCH   7  16
HETATM   16  N3  UNL     1     -17.291  35.146  -4.238  1.00  0.00    -0.241 N
HETATM   17  C4  UNL     1     -15.966  35.476  -4.670  1.00  0.00     0.380 C
HETATM   18  O3  UNL     1     -15.648  36.669  -4.909  1.00  0.00    -0.237 OA
ATOM     19  H3  UNL     1     -17.522  34.170  -4.049  1.00  0.00     0.192 HD
BRANCH  17  20
HETATM   20  O4  UNL     1     -15.004  34.507  -4.838  1.00  0.00    -0.293 OA
BRANCH  20  21
HETATM   21  C5  UNL     1     -14.010  34.224  -3.907  1.00  0.00     0.061 C
HETATM   22  C6  UNL     1     -14.411  34.394  -2.478  1.00  0.00     0.046 C
HETATM   23  C7  UNL     1     -12.758  35.069  -4.138  1.00  0.00     0.046 C
HETATM   24  C8  UNL     1     -13.591  32.774  -4.110  1.00  0.00     0.046 C
ENDBRANCH  20  21
ENDBRANCH  17  20
ENDBRANCH   7  16
TORSDOF 3
ENDMDL