MODEL 3
REMARK VINA RESULT: -7.426797670      2.348      4.253
REMARK  3 active torsions:
REMARK  status: ('A' for Active; 'I' for Inactive)
REMARK    1  A    between atoms: C8_10  and  O3_11
REMARK    2  A    between atoms: C9_13  and  O4_14
REMARK    3  A    between atoms: C13_19  and  C15_21
ROOT
HETATM    1  C1  UNL     1     -19.124  37.797  -5.384  1.00  0.00     0.025 C
HETATM    2  C2  UNL     1     -18.194  37.327  -4.582  1.00  0.00     0.008 C
HETATM    3  C3  UNL     1     -18.498  36.494  -3.387  1.00  0.00     0.167 C
HETATM    4  O1  UNL     1     -19.588  36.272  -2.858  1.00  0.00    -0.292 OA
HETATM    5  C4  UNL     1     -17.105  36.030  -3.044  1.00  0.00     0.045 C
HETATM    6  C5  UNL     1     -16.497  37.362  -3.184  1.00  0.00     0.056 C
HETATM    7  C6  UNL     1     -16.754  37.539  -4.705  1.00  0.00     0.159 C
HETATM    8  O2  UNL     1     -15.926  36.687  -5.279  1.00  0.00    -0.373 OA
HETATM    9  C7  UNL     1     -15.693  35.445  -4.825  1.00  0.00     0.158 C
HETATM   10  C8  UNL     1     -14.532  35.067  -4.026  1.00  0.00     0.176 C
HETATM   11  C9  UNL     1     -14.402  35.277  -2.601  1.00  0.00     0.158 C
HETATM   12  C10 UNL     1     -15.400  35.170  -1.574  1.00  0.00    -0.007 C
HETATM   13  C11 UNL     1     -14.917  36.078  -0.414  1.00  0.00     0.018 C
HETATM   14  C12 UNL     1     -15.269  33.787  -0.888  1.00  0.00     0.018 C
HETATM   15  C13 UNL     1     -16.858  35.468  -1.707  1.00  0.00    -0.001 C
HETATM   16  C14 UNL     1     -17.764  34.260  -1.571  1.00  0.00     0.021 C
HETATM   17  C17 UNL     1     -16.898  34.973  -4.054  1.00  0.00     0.031 C
HETATM   18  C18 UNL     1     -17.964  34.623  -5.022  1.00  0.00     0.014 C
ENDROOT
BRANCH  15  19
HETATM   19  C15 UNL     1     -17.376  36.441  -0.684  1.00  0.00    -0.004 C
HETATM   20  C16 UNL     1     -18.186  36.088   0.300  1.00  0.00     0.081 C
HETATM   21 CL1  UNL     1     -18.746  37.284   1.451  1.00  0.00    -0.097 Cl
ENDBRANCH  15  19
BRANCH  11  22
HETATM   22  O4  UNL     1     -13.328  34.386  -2.209  1.00  0.00    -0.392 OA
ATOM     23  H4  UNL     1     -12.972  34.076  -3.033  1.00  0.00     0.210 HD
ENDBRANCH  11  22
BRANCH  10  24
HETATM   24  O3  UNL     1     -13.405  35.622  -4.691  1.00  0.00    -0.390 OA
ATOM     25  H3  UNL     1     -13.756  36.225  -5.336  1.00  0.00     0.210 HD
ENDBRANCH  10  24
TORSDOF 3
ENDMDL