MODEL 3
REMARK VINA RESULT: -7.919144360      1.800      3.029
REMARK  3 active torsions:
REMARK  status: ('A' for Active; 'I' for Inactive)
REMARK    1  A    between atoms: C3_3  and  O1_4
REMARK    2  A    between atoms: C5_7  and  C16_22
REMARK    3  A    between atoms: C11_15  and  O4_16
ROOT
HETATM    1  C1  UNL     1     -14.200  33.902  -3.324  1.00  0.00     0.014 C
HETATM    2  C2  UNL     1     -15.500  34.719  -3.415  1.00  0.00     0.030 C
HETATM    3  C3  UNL     1     -15.090  36.048  -3.985  1.00  0.00     0.126 C
HETATM    4  C4  UNL     1     -16.043  37.124  -4.244  1.00  0.00     0.071 C
HETATM    5  C5  UNL     1     -16.746  37.770  -3.068  1.00  0.00     0.079 C
HETATM    6  C6  UNL     1     -16.663  39.281  -3.077  1.00  0.00     0.047 C
HETATM    7  O2  UNL     1     -16.044  37.387  -1.894  1.00  0.00    -0.309 OA
HETATM    8  C7  UNL     1     -15.680  36.117  -1.598  1.00  0.00     0.270 C
HETATM    9  O3  UNL     1     -14.780  36.021  -0.725  1.00  0.00    -0.264 OA
HETATM   10  C8  UNL     1     -16.185  34.852  -2.149  1.00  0.00     0.067 C
HETATM   11  C9  UNL     1     -16.261  33.974  -0.995  1.00  0.00     0.030 C
HETATM   12  C10 UNL     1     -15.170  33.642  -0.112  1.00  0.00     0.014 C
HETATM   13  C11 UNL     1     -17.421  34.721  -0.251  1.00  0.00     0.131 C
HETATM   14  C12 UNL     1     -18.280  35.343  -1.262  1.00  0.00     0.064 C
HETATM   15  C13 UNL     1     -17.640  34.729  -2.493  1.00  0.00     0.037 C
HETATM   16  C14 UNL     1     -18.177  35.094  -3.745  1.00  0.00    -0.024 C
HETATM   17  C15 UNL     1     -18.455  36.368  -3.992  1.00  0.00    -0.019 C
HETATM   18  C16 UNL     1     -18.156  37.303  -2.882  1.00  0.00     0.083 C
HETATM   19  C17 UNL     1     -18.514  36.746  -1.507  1.00  0.00     0.116 C
HETATM   20  C18 UNL     1     -20.060  36.988  -1.457  1.00  0.00     0.053 C
HETATM   21  F1  UNL     1     -18.131  37.688  -0.574  1.00  0.00    -0.242 F
ENDROOT
BRANCH   3  22
HETATM   22  O1  UNL     1     -14.479  35.746  -5.230  1.00  0.00    -0.395 OA
ATOM     23  H1  UNL     1     -14.073  36.557  -5.512  1.00  0.00     0.210 HD
ENDBRANCH   3  22
BRANCH  13  24
HETATM   24  O4  UNL     1     -17.053  35.324   0.866  1.00  0.00    -0.395 OA
ATOM     25  H4  UNL     1     -16.251  35.827   0.794  1.00  0.00     0.210 HD
ENDBRANCH  13  24
TORSDOF 3
ENDMDL