MODEL 3
REMARK VINA RESULT: -5.972882213      2.312      4.409
REMARK  3 active torsions:
REMARK  status: ('A' for Active; 'I' for Inactive)
REMARK    1  A    between atoms: C11_13  and  C12_14
REMARK    2  A    between atoms: C12_14  and  O2_15
REMARK    3  A    between atoms: C16_20  and  O3_21
ROOT
HETATM    1  C1  UNL     1     -16.455  39.449  -2.656  1.00  0.00     0.048 C
HETATM    2  C2  UNL     1     -16.935  38.050  -3.132  1.00  0.00    -0.055 C
HETATM    3  C3  UNL     1     -16.868  37.896  -4.424  1.00  0.00     0.004 C
HETATM    4  C4  UNL     1     -17.153  36.884  -5.410  1.00  0.00    -0.016 C
HETATM    5  C5  UNL     1     -17.684  35.569  -5.194  1.00  0.00     0.077 C
HETATM    6  C6  UNL     1     -18.902  35.355  -4.353  1.00  0.00     0.164 C
HETATM    7  O1  UNL     1     -19.490  36.463  -3.879  1.00  0.00    -0.380 OA
HETATM    8  C7  UNL     1     -19.794  36.553  -2.571  1.00  0.00     0.198 C
HETATM    9  C8  UNL     1     -18.841  37.288  -1.718  1.00  0.00     0.081 C
HETATM   10  C9  UNL     1     -19.178  36.995  -0.297  1.00  0.00     0.040 C
HETATM   11 CL1  UNL     1     -19.193  39.056  -1.915  1.00  0.00    -0.112 Cl
HETATM   12  C10 UNL     1     -17.376  37.178  -2.043  1.00  0.00    -0.013 C
HETATM   13  C11 UNL     1     -16.797  35.795  -1.984  1.00  0.00     0.109 C
HETATM   14  C13 UNL     1     -15.525  35.634  -2.762  1.00  0.00     0.052 C
HETATM   15  C14 UNL     1     -15.685  34.674  -3.878  1.00  0.00     0.023 C
HETATM   16  C15 UNL     1     -14.569  34.850  -4.919  1.00  0.00     0.013 C
HETATM   17  C16 UNL     1     -17.003  34.494  -4.494  1.00  0.00     0.099 C
HETATM   18  C17 UNL     1     -18.089  34.498  -3.452  1.00  0.00     0.188 C
HETATM   19  O4  UNL     1     -17.780  34.918  -2.244  1.00  0.00    -0.362 OA
ENDROOT
BRANCH  13  20
HETATM   20  C12 UNL     1     -16.373  35.419  -0.533  1.00  0.00     0.207 C
BRANCH  20  21
HETATM   21  O2  UNL     1     -16.730  34.108  -0.245  1.00  0.00    -0.398 OA
ATOM     22  H2  UNL     1     -17.570  34.081   0.196  1.00  0.00     0.209 HD
ENDBRANCH  20  21
ENDBRANCH  13  20
BRANCH  17  23
HETATM   23  O3  UNL     1     -16.950  33.252  -5.205  1.00  0.00    -0.386 OA
ATOM     24  H3  UNL     1     -16.211  32.697  -4.984  1.00  0.00     0.210 HD
ENDBRANCH  17  23
TORSDOF 3
ENDMDL