MODEL 4
REMARK VINA RESULT: -8.505630150      1.818      2.389
REMARK  14 active torsions:
REMARK  status: ('A' for Active; 'I' for Inactive)
REMARK    1  A    between atoms: C4_4  and  C5_5
REMARK    2  A    between atoms: C5_5  and  N1_6
REMARK    3  A    between atoms: C5_5  and  C6_10
REMARK    4  A    between atoms: N1_6  and  O1_8
REMARK    5  A    between atoms: C10_14  and  C11_15
REMARK    6  A    between atoms: C11_15  and  C12_16
REMARK    7  A    between atoms: C12_16  and  C13_17
REMARK    8  A    between atoms: C12_16  and  N3_26
REMARK       I    between atoms: C13_17  and  N2_19
REMARK    9  A    between atoms: N2_19  and  C14_21
REMARK   10  A    between atoms: C14_21  and  C15_22
REMARK   11  A    between atoms: C15_22  and  C16_23
REMARK   12  A    between atoms: C16_23  and  O3_24
REMARK   13  A    between atoms: C18_30  and  C19_31
REMARK       I    between atoms: C19_31  and  N5_33
REMARK   14  A    between atoms: N6_37  and  C23_38
ROOT
HETATM    1  C12 UNL     1     -11.998  19.205 -17.914  1.00  0.00     0.182 C
ENDROOT
BRANCH   1   2
HETATM    2  C11 UNL     1     -11.593  19.211 -16.465  1.00  0.00     0.040 C
BRANCH   2   3
HETATM    3  C10 UNL     1     -10.249  18.548 -16.233  1.00  0.00    -0.012 C
HETATM    4  C9  UNL     1      -9.767  19.030 -14.892  1.00  0.00     0.005 C
HETATM    5  C8  UNL     1      -8.710  18.173 -14.290  1.00  0.00     0.001 C
HETATM    6  C7  UNL     1      -9.330  16.776 -14.129  1.00  0.00     0.010 C
HETATM    7  C6  UNL     1      -9.507  16.233 -15.504  1.00  0.00     0.034 C
HETATM    8  C29 UNL     1     -10.463  17.070 -16.304  1.00  0.00     0.015 C
BRANCH   7   9
HETATM    9  C5  UNL     1      -8.245  15.962 -16.210  1.00  0.00     0.018 C
BRANCH   9  10
HETATM   10  C4  UNL     1      -6.987  15.685 -15.525  1.00  0.00     0.038 A
HETATM   11  C2  UNL     1      -5.778  15.302 -16.266  1.00  0.00    -0.008 A
HETATM   12  C1  UNL     1      -4.469  15.922 -15.807  1.00  0.00     0.011 C
HETATM   13  C3  UNL     1      -6.453  14.322 -15.308  1.00  0.00     0.016 A
ENDBRANCH   9  10
BRANCH   9  14
HETATM   14  N1  UNL     1      -8.275  15.973 -17.504  1.00  0.00    -0.277 N
ATOM     15  H1  UNL     1      -8.093  16.858 -17.976  1.00  0.00     0.193 HD
BRANCH  14  16
HETATM   16  O1  UNL     1      -8.534  14.884 -18.277  1.00  0.00    -0.290 OA
ATOM     17  H1  UNL     1      -8.700  14.012 -17.939  1.00  0.00     0.244 HD
ENDBRANCH  14  16
ENDBRANCH   9  14
ENDBRANCH   7   9
ENDBRANCH   2   3
ENDBRANCH   1   2
BRANCH   1  18
HETATM   18  C13 UNL     1     -10.820  19.376 -18.792  1.00  0.00     0.240 C
HETATM   19  O2  UNL     1     -10.041  20.354 -18.620  1.00  0.00    -0.271 OA
HETATM   20  N2  UNL     1     -10.508  18.476 -19.843  1.00  0.00    -0.359 N
ATOM     21  H2  UNL     1     -11.121  17.677 -20.003  1.00  0.00     0.162 HD
BRANCH  20  22
HETATM   22  C14 UNL     1      -9.355  18.649 -20.696  1.00  0.00     0.125 C
BRANCH  22  23
HETATM   23  C15 UNL     1      -8.274  17.651 -20.413  1.00  0.00     0.046 C
BRANCH  23  24
HETATM   24  C16 UNL     1      -7.027  18.406 -19.983  1.00  0.00     0.165 C
BRANCH  24  25
HETATM   25  O3  UNL     1      -7.357  19.601 -19.343  1.00  0.00    -0.401 OA
ATOM     26  H3  UNL     1      -8.292  19.659 -19.185  1.00  0.00     0.209 HD
ENDBRANCH  24  25
ENDBRANCH  23  24
ENDBRANCH  22  23
ENDBRANCH  20  22
ENDBRANCH   1  18
BRANCH   1  27
HETATM   27  N3  UNL     1     -12.981  20.263 -18.137  1.00  0.00    -0.337 N
HETATM   28  C17 UNL     1     -12.944  21.176 -19.127  1.00  0.00     0.184 A
HETATM   29  N4  UNL     1     -14.035  21.930 -18.934  1.00  0.00    -0.347 N
HETATM   30  C18 UNL     1     -14.752  21.556 -17.896  1.00  0.00     0.117 A
ATOM     31  H4  UNL     1     -14.285  22.717 -19.532  1.00  0.00     0.167 HD
HETATM   32  C28 UNL     1     -14.066  20.453 -17.359  1.00  0.00     0.128 A
BRANCH  30  33
HETATM   33  C19 UNL     1     -15.987  22.078 -17.330  1.00  0.00     0.271 C
HETATM   34  O4  UNL     1     -16.371  21.711 -16.167  1.00  0.00    -0.266 OA
HETATM   35  N5  UNL     1     -16.764  22.997 -18.067  1.00  0.00    -0.345 N
HETATM   36  C20 UNL     1     -16.379  23.437 -19.366  1.00  0.00     0.128 C
HETATM   37  C27 UNL     1     -17.979  23.422 -17.343  1.00  0.00     0.156 C
HETATM   38  C21 UNL     1     -17.442  24.366 -19.936  1.00  0.00     0.050 C
HETATM   39  C22 UNL     1     -17.427  25.710 -19.266  1.00  0.00     0.274 C
HETATM   40  N6  UNL     1     -18.246  25.750 -18.078  1.00  0.00     0.094 N
HETATM   41  C26 UNL     1     -17.780  24.891 -17.033  1.00  0.00     0.292 C
BRANCH  40  42
HETATM   42  C23 UNL     1     -18.387  27.079 -17.580  1.00  0.00     0.223 A
HETATM   43  C24 UNL     1     -19.780  27.654 -17.635  1.00  0.00     0.038 A
HETATM   44  C25 UNL     1     -19.088  27.419 -16.333  1.00  0.00     0.038 A
ENDBRANCH  40  42
ENDBRANCH  30  33
ENDBRANCH   1  27
TORSDOF 14
ENDMDL