MODEL 4
REMARK VINA RESULT: -9.374197173      1.634      3.307
REMARK  13 active torsions:
REMARK  status: ('A' for Active; 'I' for Inactive)
REMARK    1  A    between atoms: C2_2  and  C3_3
REMARK    2  A    between atoms: C3_3  and  C4_4
REMARK    3  A    between atoms: C4_4  and  C5_5
REMARK       I    between atoms: C5_5  and  N1_7
REMARK    4  A    between atoms: N1_7  and  C6_9
REMARK    5  A    between atoms: C6_9  and  C7_10
REMARK    6  A    between atoms: C7_10  and  C8_11
REMARK    7  A    between atoms: C8_11  and  N2_12
REMARK       I    between atoms: N2_12  and  C9_14
REMARK    8  A    between atoms: C9_14  and  C10_16
REMARK    9  A    between atoms: C10_16  and  C11_17
REMARK   10  A    between atoms: N3_23  and  C17_24
REMARK   11  A    between atoms: C18_27  and  N5_28
REMARK   12  A    between atoms: C25_36  and  C26_37
REMARK   13  A    between atoms: C26_37  and  N6_38
ROOT
HETATM    1  C3  UNL     1     -12.963  20.746 -17.948  1.00  0.00    -0.014 C
HETATM    2  C15 UNL     1     -12.229  20.701 -19.295  1.00  0.00     0.032 C
HETATM    3  C16 UNL     1     -10.836  20.322 -18.875  1.00  0.00     0.142 C
HETATM    4  N3  UNL     1     -11.081  19.329 -17.837  1.00  0.00    -0.217 N
HETATM    5  C29 UNL     1     -12.365  19.567 -17.227  1.00  0.00     0.151 C
ENDROOT
BRANCH   4   6
HETATM    6  C17 UNL     1     -10.157  18.295 -17.517  1.00  0.00     0.683 A
HETATM    7  N4  UNL     1      -9.247  17.863 -18.420  1.00  0.00    -0.176 N
HETATM    8  C18 UNL     1      -8.354  16.877 -18.132  1.00  0.00     0.133 A
ATOM      9  H4  UNL     1      -9.230  18.290 -19.345  1.00  0.00     0.186 HD
HETATM   10  C23 UNL     1      -8.415  16.332 -16.877  1.00  0.00     0.054 A
HETATM   11  C24 UNL     1      -7.573  15.338 -16.496  1.00  0.00     0.029 A
HETATM   12  C28 UNL     1      -9.362  16.791 -15.958  1.00  0.00     0.135 A
HETATM   13  C25 UNL     1      -7.628  14.780 -15.239  1.00  0.00    -0.017 A
HETATM   14  C27 UNL     1      -8.576  15.266 -14.369  1.00  0.00     0.098 A
HETATM   15  N7  UNL     1      -9.427  16.252 -14.720  1.00  0.00    -0.351 N
ATOM     16  H7  UNL     1     -10.119  16.590 -14.052  1.00  0.00     0.166 HD
HETATM   17  N8  UNL     1     -10.224  17.771 -16.290  1.00  0.00    -0.176 N
ATOM     18  H8  UNL     1     -10.914  18.106 -15.618  1.00  0.00     0.186 HD
BRANCH   8  19
HETATM   19  N5  UNL     1      -7.392  16.473 -19.127  1.00  0.00    -0.362 N
HETATM   20  C19 UNL     1      -7.774  15.539 -20.141  1.00  0.00     0.150 C
HETATM   21  C20 UNL     1      -7.033  15.773 -21.417  1.00  0.00     0.187 C
HETATM   22  O3  UNL     1      -5.678  15.886 -21.155  1.00  0.00    -0.388 OA
HETATM   23  C21 UNL     1      -5.442  17.071 -20.449  1.00  0.00     0.187 C
HETATM   24  C22 UNL     1      -6.048  16.993 -19.082  1.00  0.00     0.150 C
ENDBRANCH   8  19
BRANCH  13  25
HETATM   25  C26 UNL     1      -6.675  13.695 -14.897  1.00  0.00     0.269 C
BRANCH  25  26
HETATM   26  N6  UNL     1      -5.427  13.903 -15.602  1.00  0.00    -0.075 N
ATOM     27  H63 UNL     1      -5.448  14.743 -16.180  1.00  0.00     0.274 HD
ATOM     28  H62 UNL     1      -4.672  14.176 -14.973  1.00  0.00     0.274 HD
ATOM     29  H61 UNL     1      -5.196  13.070 -16.142  1.00  0.00     0.274 HD
ENDBRANCH  25  26
ENDBRANCH  13  25
ENDBRANCH   4   6
BRANCH   1  30
HETATM   30  C2  UNL     1     -12.699  22.041 -17.262  1.00  0.00     0.007 C
HETATM   31  C1  UNL     1     -12.005  21.863 -15.927  1.00  0.00     0.006 C
ENDBRANCH   1  30
BRANCH   1  32
HETATM   32  C4  UNL     1     -14.427  20.519 -18.143  1.00  0.00     0.114 C
BRANCH  32  33
HETATM   33  C5  UNL     1     -15.232  21.728 -18.310  1.00  0.00     0.218 C
HETATM   34  O1  UNL     1     -15.115  22.547 -19.257  1.00  0.00    -0.274 OA
HETATM   35  N1  UNL     1     -16.262  22.079 -17.357  1.00  0.00    -0.361 N
ATOM     36  H1  UNL     1     -16.411  21.459 -16.561  1.00  0.00     0.162 HD
BRANCH  35  37
HETATM   37  C6  UNL     1     -17.083  23.244 -17.465  1.00  0.00     0.124 C
BRANCH  37  38
HETATM   38  C7  UNL     1     -18.508  22.863 -17.193  1.00  0.00     0.039 C
BRANCH  38  39
HETATM   39  C8  UNL     1     -18.775  22.707 -15.728  1.00  0.00     0.124 C
BRANCH  39  40
HETATM   40  N2  UNL     1     -18.119  21.527 -15.178  1.00  0.00    -0.361 N
HETATM   41  C9  UNL     1     -17.471  21.592 -13.915  1.00  0.00     0.218 C
HETATM   42  O2  UNL     1     -17.447  22.655 -13.251  1.00  0.00    -0.274 OA
ATOM     43  H2  UNL     1     -18.125  20.652 -15.701  1.00  0.00     0.162 HD
BRANCH  41  44
HETATM   44  C10 UNL     1     -16.822  20.389 -13.384  1.00  0.00     0.111 C
BRANCH  44  45
HETATM   45  C11 UNL     1     -15.302  20.480 -13.471  1.00  0.00    -0.043 C
HETATM   46  C12 UNL     1     -14.749  19.366 -14.339  1.00  0.00     0.015 C
HETATM   47  C13 UNL     1     -14.775  20.402 -12.050  1.00  0.00     0.015 C
HETATM   48  C14 UNL     1     -14.846  21.780 -14.083  1.00  0.00     0.015 C
ENDBRANCH  44  45
ENDBRANCH  41  44
ENDBRANCH  39  40
ENDBRANCH  38  39
ENDBRANCH  37  38
ENDBRANCH  35  37
ENDBRANCH  32  33
ENDBRANCH   1  32
TORSDOF 13
ENDMDL