MODEL 2
REMARK VINA RESULT: -8.261124562      1.132      1.599
REMARK  17 active torsions:
REMARK  status: ('A' for Active; 'I' for Inactive)
REMARK    1  A    between atoms: C2_2  and  C3_3
REMARK    2  A    between atoms: C3_3  and  C4_4
REMARK    3  A    between atoms: C4_4  and  C5_5
REMARK    4  A    between atoms: C5_5  and  C6_6
REMARK    5  A    between atoms: C6_6  and  O1_7
REMARK    6  A    between atoms: C6_6  and  C7_9
REMARK    7  A    between atoms: C8_10  and  C9_11
REMARK    8  A    between atoms: C12_15  and  O3_16
REMARK    9  A    between atoms: O3_16  and  C13_17
REMARK   10  A    between atoms: C13_17  and  C14_18
REMARK   11  A    between atoms: C15_19  and  C16_20
REMARK   12  A    between atoms: C16_20  and  C17_21
REMARK   13  A    between atoms: C17_21  and  C18_22
REMARK   14  A    between atoms: C20_24  and  C21_25
REMARK   15  A    between atoms: C27_35  and  C28_36
REMARK   16  A    between atoms: C28_36  and  O7_37
REMARK   17  A    between atoms: C29_39  and  O8_40
ROOT
HETATM    1  C17 UNL     1     -11.378  20.202 -16.819  1.00  0.00     0.019 C
ENDROOT
BRANCH   1   2
HETATM    2  C16 UNL     1     -11.979  18.842 -16.721  1.00  0.00     0.094 C
BRANCH   2   3
HETATM    3  C15 UNL     1     -11.110  18.079 -15.786  1.00  0.00    -0.104 C
HETATM    4  C14 UNL     1     -10.388  17.465 -15.041  1.00  0.00    -0.081 C
BRANCH   4   5
HETATM    5  C13 UNL     1      -9.491  16.713 -14.152  1.00  0.00     0.261 C
BRANCH   5   6
HETATM    6  O3  UNL     1      -8.997  15.571 -14.781  1.00  0.00    -0.371 OA
BRANCH   6   7
HETATM    7  C12 UNL     1      -7.628  15.502 -14.776  1.00  0.00     0.157 C
HETATM    8  C9  UNL     1      -7.001  15.681 -16.145  1.00  0.00     0.173 C
HETATM    9  O2  UNL     1      -5.991  14.761 -16.266  1.00  0.00    -0.379 OA
HETATM   10  C10 UNL     1      -5.725  14.184 -15.050  1.00  0.00     0.171 C
HETATM   11  C11 UNL     1      -7.124  14.102 -14.424  1.00  0.00     0.061 C
BRANCH   8  12
HETATM   12  C8  UNL     1      -7.984  15.418 -17.238  1.00  0.00     0.010 C
HETATM   13  C7  UNL     1      -7.789  15.685 -18.501  1.00  0.00     0.035 C
BRANCH  13  14
HETATM   14  C6  UNL     1      -6.590  16.283 -19.084  1.00  0.00     0.065 C
BRANCH  14  15
HETATM   15  C5  UNL     1      -6.774  17.190 -20.233  1.00  0.00     0.036 C
BRANCH  15  16
HETATM   16  C4  UNL     1      -7.604  16.878 -21.391  1.00  0.00    -0.001 C
BRANCH  16  17
HETATM   17  C3  UNL     1      -7.386  15.797 -22.335  1.00  0.00    -0.027 C
BRANCH  17  18
HETATM   18  C2  UNL     1      -6.545  15.964 -23.535  1.00  0.00     0.022 C
HETATM   19  C1  UNL     1      -7.443  15.803 -24.805  1.00  0.00     0.009 C
ENDBRANCH  17  18
ENDBRANCH  16  17
ENDBRANCH  15  16
ENDBRANCH  14  15
BRANCH  14  20
HETATM   20  O1  UNL     1      -5.475  15.489 -19.193  1.00  0.00    -0.361 OA
ATOM     21  H1  UNL     1      -5.676  14.561 -19.223  1.00  0.00     0.217 HD
ENDBRANCH  14  20
ENDBRANCH  13  14
ENDBRANCH   8  12
ENDBRANCH   6   7
ENDBRANCH   5   6
ENDBRANCH   4   5
ENDBRANCH   2   3
ENDBRANCH   1   2
BRANCH   1  22
HETATM   22  C18 UNL     1     -12.306  21.239 -17.441  1.00  0.00     0.020 C
HETATM   23  C19 UNL     1     -12.949  22.040 -16.340  1.00  0.00     0.013 C
HETATM   24  C20 UNL     1     -14.175  21.499 -15.745  1.00  0.00     0.006 C
HETATM   25  C24 UNL     1     -15.366  22.433 -16.091  1.00  0.00     0.040 C
HETATM   26  C25 UNL     1     -15.957  22.164 -17.418  1.00  0.00     0.156 C
HETATM   27  O5  UNL     1     -15.431  20.948 -17.933  1.00  0.00    -0.351 OA
HETATM   28  C27 UNL     1     -15.628  23.069 -18.538  1.00  0.00     0.177 C
HETATM   29  C26 UNL     1     -14.436  21.300 -18.807  1.00  0.00     0.289 C
HETATM   30  O6  UNL     1     -14.330  22.682 -18.861  1.00  0.00    -0.349 OA
HETATM   31  C29 UNL     1     -13.179  20.600 -18.428  1.00  0.00     0.177 C
BRANCH  24  32
HETATM   32  C21 UNL     1     -14.244  21.298 -14.276  1.00  0.00     0.099 C
HETATM   33  C22 UNL     1     -13.568  20.215 -13.590  1.00  0.00     0.162 C
HETATM   34  C23 UNL     1     -14.364  20.463 -12.342  1.00  0.00     0.126 C
HETATM   35  O4  UNL     1     -14.440  19.275 -13.975  1.00  0.00    -0.324 OA
HETATM   36  S1  UNL     1     -15.636  20.404 -13.624  1.00  0.00    -0.079 SA
ENDBRANCH  24  32
BRANCH  31  37
HETATM   37  O8  UNL     1     -12.441  20.492 -19.641  1.00  0.00    -0.390 OA
ATOM     38  H8  UNL     1     -12.367  19.568 -19.847  1.00  0.00     0.210 HD
ENDBRANCH  31  37
BRANCH  28  39
HETATM   39  C28 UNL     1     -15.865  24.511 -18.398  1.00  0.00     0.198 C
BRANCH  39  40
HETATM   40  O7  UNL     1     -14.927  25.266 -17.758  1.00  0.00    -0.398 OA
ATOM     41  H7  UNL     1     -14.021  25.192 -18.033  1.00  0.00     0.209 HD
ENDBRANCH  39  40
ENDBRANCH  28  39
ENDBRANCH   1  22
TORSDOF 17
ENDMDL