MODEL 4
REMARK VINA RESULT: -9.600256669      1.032      1.269
REMARK  12 active torsions:
REMARK  status: ('A' for Active; 'I' for Inactive)
REMARK    1  A    between atoms: C2_2  and  N1_3
REMARK    2  A    between atoms: N2_6  and  C5_7
REMARK    3  A    between atoms: C5_7  and  C6_8
REMARK    4  A    between atoms: C6_8  and  N3_9
REMARK    5  A    between atoms: C9_12  and  O1_13
REMARK    6  A    between atoms: O1_13  and  C10_14
REMARK    7  A    between atoms: C10_14  and  C11_15
REMARK       I    between atoms: C11_15  and  N4_17
REMARK    8  A    between atoms: N4_17  and  C12_19
REMARK    9  A    between atoms: C12_19  and  C13_20
REMARK   10  A    between atoms: C13_20  and  C14_21
REMARK   11  A    between atoms: C14_21  and  N5_22
REMARK   12  A    between atoms: C24_33  and  N6_34
ROOT
HETATM    1  N3  UNL     1     -14.021  21.964 -16.211  1.00  0.00    -0.330 N
HETATM    2  C7  UNL     1     -13.052  21.045 -16.188  1.00  0.00     0.050 A
HETATM    3  C8  UNL     1     -12.106  20.624 -17.128  1.00  0.00     0.067 A
HETATM    4  C9  UNL     1     -11.197  19.632 -16.841  1.00  0.00     0.077 A
HETATM    5  C19 UNL     1     -11.211  19.026 -15.591  1.00  0.00    -0.028 A
HETATM    6  C20 UNL     1     -10.248  17.950 -15.239  1.00  0.00     0.051 C
HETATM    7  C21 UNL     1     -12.161  19.462 -14.676  1.00  0.00     0.024 A
HETATM    8  C22 UNL     1     -13.075  20.449 -14.942  1.00  0.00     0.008 A
HETATM    9  C23 UNL     1     -14.103  21.058 -14.227  1.00  0.00     0.047 A
HETATM   10  C24 UNL     1     -14.588  20.878 -12.943  1.00  0.00     0.042 A
HETATM   11  C25 UNL     1     -15.664  21.686 -12.537  1.00  0.00     0.054 A
HETATM   12  C26 UNL     1     -16.195  22.600 -13.379  1.00  0.00     0.009 A
HETATM   13  C27 UNL     1     -17.346  23.439 -12.889  1.00  0.00     0.068 C
HETATM   14  N7  UNL     1     -15.729  22.776 -14.619  1.00  0.00    -0.345 N
ATOM     15  H7  UNL     1     -16.149  23.473 -15.233  1.00  0.00     0.167 HD
HETATM   16  C28 UNL     1     -14.699  22.024 -15.048  1.00  0.00     0.121 A
ENDROOT
BRANCH   4  17
HETATM   17  O1  UNL     1     -10.241  19.165 -17.710  1.00  0.00    -0.342 OA
BRANCH  17  18
HETATM   18  C10 UNL     1     -10.098  19.389 -19.062  1.00  0.00     0.278 C
BRANCH  18  19
HETATM   19  C11 UNL     1      -8.869  18.764 -19.660  1.00  0.00     0.241 C
HETATM   20  O2  UNL     1      -7.741  19.305 -19.635  1.00  0.00    -0.271 OA
HETATM   21  N4  UNL     1      -9.009  17.504 -20.276  1.00  0.00    -0.359 N
ATOM     22  H4  UNL     1      -9.929  17.066 -20.299  1.00  0.00     0.162 HD
BRANCH  21  23
HETATM   23  C12 UNL     1      -7.899  16.816 -20.875  1.00  0.00     0.124 C
BRANCH  23  24
HETATM   24  C13 UNL     1      -7.398  15.693 -20.022  1.00  0.00     0.050 C
BRANCH  24  25
HETATM   25  C14 UNL     1      -6.287  16.062 -19.101  1.00  0.00     0.274 C
BRANCH  25  26
HETATM   26  N5  UNL     1      -6.666  16.317 -17.749  1.00  0.00     0.092 N
HETATM   27  C15 UNL     1      -5.525  16.327 -16.901  1.00  0.00     0.298 C
HETATM   28  C16 UNL     1      -5.536  15.435 -15.718  1.00  0.00     0.198 C
HETATM   29  O3  UNL     1      -6.523  14.472 -15.682  1.00  0.00    -0.388 OA
HETATM   30  C17 UNL     1      -7.733  15.185 -15.867  1.00  0.00     0.198 C
HETATM   31  C18 UNL     1      -7.831  15.633 -17.302  1.00  0.00     0.298 C
ENDBRANCH  25  26
ENDBRANCH  24  25
ENDBRANCH  23  24
ENDBRANCH  21  23
ENDBRANCH  18  19
ENDBRANCH  17  18
ENDBRANCH   4  17
BRANCH   1  32
HETATM   32  C6  UNL     1     -14.319  22.805 -17.352  1.00  0.00     0.161 C
BRANCH  32  33
HETATM   33  C5  UNL     1     -15.441  22.147 -18.119  1.00  0.00     0.292 C
BRANCH  33  34
HETATM   34  N2  UNL     1     -16.374  23.120 -18.656  1.00  0.00     0.093 N
HETATM   35  C4  UNL     1     -15.687  24.310 -18.974  1.00  0.00     0.302 C
HETATM   36  C3  UNL     1     -16.174  25.581 -18.377  1.00  0.00     0.302 C
HETATM   37  N1  UNL     1     -17.599  25.739 -18.399  1.00  0.00     0.091 N
HETATM   38  C30 UNL     1     -18.307  24.485 -18.364  1.00  0.00     0.302 C
HETATM   39  C29 UNL     1     -17.451  23.393 -17.735  1.00  0.00     0.302 C
BRANCH  37  40
HETATM   40  C2  UNL     1     -18.095  26.727 -17.500  1.00  0.00     0.268 C
HETATM   41  C1  UNL     1     -19.581  26.872 -17.479  1.00  0.00     0.037 C
ENDBRANCH  37  40
ENDBRANCH  33  34
ENDBRANCH  32  33
ENDBRANCH   1  32
BRANCH  10  42
HETATM   42  N6  UNL     1     -14.117  20.040 -12.141  1.00  0.00    -0.398 N
ATOM     43  H62 UNL     1     -13.216  19.607 -12.345  1.00  0.00     0.156 HD
ATOM     44  H61 UNL     1     -14.589  19.760 -11.281  1.00  0.00     0.156 HD
ENDBRANCH  10  42
TORSDOF 12
ENDMDL