MODEL 1
REMARK VINA RESULT: -8.302672296      0.000      0.000
REMARK  14 active torsions:
REMARK  status: ('A' for Active; 'I' for Inactive)
REMARK    1  A    between atoms: C3_3  and  C4_4
REMARK    2  A    between atoms: C4_4  and  O1_5
REMARK    3  A    between atoms: O1_5  and  C5_6
REMARK    4  A    between atoms: C5_6  and  C6_8
REMARK    5  A    between atoms: C10_13  and  C11_14
REMARK    6  A    between atoms: C12_17  and  C13_18
REMARK    7  A    between atoms: C14_19  and  C15_20
REMARK    8  A    between atoms: C14_19  and  C21_29
REMARK       I    between atoms: C15_20  and  N2_22
REMARK    9  A    between atoms: N2_22  and  C16_24
REMARK   10  A    between atoms: C16_24  and  C19_27
REMARK   11  A    between atoms: C21_29  and  O6_30
REMARK   12  A    between atoms: C21_29  and  C22_32
REMARK   13  A    between atoms: C24_36  and  C25_37
REMARK   14  A    between atoms: C25_37  and  C26_38
ROOT
HETATM    1  C1  UNL     1     -17.371  25.028 -11.720  1.00  0.00     0.112 C
HETATM    2  C2  UNL     1     -17.433  23.880 -12.636  1.00  0.00    -0.109 C
HETATM    3  C3  UNL     1     -17.503  22.921 -13.381  1.00  0.00    -0.080 C
ENDROOT
BRANCH   3   4
HETATM    4  C4  UNL     1     -17.607  21.752 -14.261  1.00  0.00     0.272 C
BRANCH   4   5
HETATM    5  O1  UNL     1     -16.969  20.668 -13.612  1.00  0.00    -0.309 OA
BRANCH   5   6
HETATM    6  C5  UNL     1     -16.096  19.791 -14.224  1.00  0.00     0.271 C
HETATM    7  O2  UNL     1     -16.537  19.270 -15.293  1.00  0.00    -0.264 OA
BRANCH   6   8
HETATM    8  C6  UNL     1     -14.741  19.422 -13.756  1.00  0.00     0.077 A
HETATM    9  C7  UNL     1     -14.613  19.379 -12.348  1.00  0.00     0.030 A
HETATM   10  C8  UNL     1     -13.900  20.440 -12.929  1.00  0.00     0.026 A
HETATM   11  C9  UNL     1     -14.036  21.505 -13.911  1.00  0.00     0.129 C
HETATM   12  N1  UNL     1     -13.791  20.814 -15.154  1.00  0.00    -0.375 N
HETATM   13  C10 UNL     1     -14.289  21.309 -16.314  1.00  0.00     0.171 C
HETATM   14  C12 UNL     1     -13.779  19.374 -14.875  1.00  0.00     0.126 C
BRANCH  13  15
HETATM   15  C11 UNL     1     -13.981  20.704 -17.599  1.00  0.00     0.214 C
HETATM   16  O3  UNL     1     -13.095  21.125 -18.387  1.00  0.00    -0.644 OA
HETATM   17  O4  UNL     1     -14.680  19.584 -18.040  1.00  0.00    -0.644 OA
ENDBRANCH  13  15
BRANCH  14  18
HETATM   18  C13 UNL     1     -12.448  18.884 -14.641  1.00  0.00     0.019 C
HETATM   19  C14 UNL     1     -11.640  18.224 -15.490  1.00  0.00     0.066 C
BRANCH  19  20
HETATM   20  C15 UNL     1     -10.314  17.821 -15.028  1.00  0.00     0.254 C
HETATM   21  O5  UNL     1      -9.560  18.565 -14.398  1.00  0.00    -0.268 OA
HETATM   22  N2  UNL     1      -9.823  16.502 -15.299  1.00  0.00    -0.348 N
ATOM     23  H2  UNL     1     -10.400  15.845 -15.824  1.00  0.00     0.163 HD
BRANCH  22  24
HETATM   24  C16 UNL     1      -8.484  16.085 -14.822  1.00  0.00     0.025 C
HETATM   25  C17 UNL     1      -7.784  15.345 -15.949  1.00  0.00     0.038 C
HETATM   26  C18 UNL     1      -7.722  17.318 -14.479  1.00  0.00     0.038 C
BRANCH  24  27
HETATM   27  C19 UNL     1      -8.637  15.165 -13.623  1.00  0.00     0.026 C
HETATM   28  C20 UNL     1      -7.581  14.112 -13.572  1.00  0.00     0.007 C
ENDBRANCH  24  27
ENDBRANCH  22  24
ENDBRANCH  19  20
BRANCH  19  29
HETATM   29  C21 UNL     1     -12.085  17.919 -16.802  1.00  0.00     0.115 C
BRANCH  29  30
HETATM   30  O6  UNL     1     -13.105  17.125 -16.949  1.00  0.00    -0.357 OA
ATOM     31  H6  UNL     1     -13.980  17.481 -16.853  1.00  0.00     0.217 HD
ENDBRANCH  29  30
BRANCH  29  32
HETATM   32  C22 UNL     1     -11.572  18.367 -18.088  1.00  0.00     0.109 A
HETATM   33  N3  UNL     1     -11.948  18.336 -19.331  1.00  0.00    -0.357 N
HETATM   34  C23 UNL     1     -11.269  18.820 -20.301  1.00  0.00     0.104 A
ATOM     35  H3  UNL     1     -12.842  17.897 -19.548  1.00  0.00     0.166 HD
HETATM   36  C24 UNL     1     -10.070  19.406 -19.996  1.00  0.00     0.010 A
HETATM   37  S1  UNL     1     -10.027  19.205 -18.310  1.00  0.00    -0.072 SA
BRANCH  36  38
HETATM   38  C25 UNL     1      -9.084  20.041 -20.925  1.00  0.00     0.160 C
BRANCH  38  39
HETATM   39  C26 UNL     1      -9.449  21.473 -21.065  1.00  0.00     0.177 C
HETATM   40  O7  UNL     1      -9.572  22.004 -22.199  1.00  0.00    -0.648 OA
HETATM   41  O8  UNL     1      -9.654  22.217 -19.928  1.00  0.00    -0.648 OA
ENDBRANCH  38  39
ENDBRANCH  36  38
ENDBRANCH  29  32
ENDBRANCH  19  29
ENDBRANCH  14  18
ENDBRANCH   6   8
ENDBRANCH   5   6
ENDBRANCH   4   5
ENDBRANCH   3   4
TORSDOF 14
ENDMDL