MODEL 4
REMARK VINA RESULT: -9.203816667      2.981     10.187
REMARK  12 active torsions:
REMARK  status: ('A' for Active; 'I' for Inactive)
REMARK    1  A    between atoms: C4_7  and  C5_8
REMARK    2  A    between atoms: C5_8  and  N3_9
REMARK    3  A    between atoms: N5_21  and  C15_22
REMARK    4  A    between atoms: C15_22  and  C16_23
REMARK    5  A    between atoms: C15_22  and  C17_26
REMARK    6  A    between atoms: C16_23  and  O1_24
REMARK    7  A    between atoms: C17_26  and  C18_27
REMARK    8  A    between atoms: C18_27  and  N6_28
REMARK    9  A    between atoms: N7_31  and  C21_32
REMARK   10  A    between atoms: C21_32  and  C22_33
REMARK   11  A    between atoms: C22_33  and  O2_34
REMARK   12  A    between atoms: C22_33  and  C23_36
ROOT
HETATM    1  C1  UNL     1     -13.974  19.645 -12.402  1.00  0.00     0.070 C
HETATM    2  C2  UNL     1     -13.937  19.922 -13.850  1.00  0.00     0.037 A
HETATM    3  N1  UNL     1     -12.931  19.762 -14.707  1.00  0.00    -0.300 N
ATOM      4  H1  UNL     1     -12.009  19.414 -14.441  1.00  0.00     0.187 HD
HETATM    5  N2  UNL     1     -13.259  20.102 -15.935  1.00  0.00    -0.271 N
HETATM    6  C3  UNL     1     -14.573  20.506 -15.849  1.00  0.00     0.131 A
HETATM    7  C4  UNL     1     -15.040  20.422 -14.580  1.00  0.00     0.043 A
HETATM    8  N4  UNL     1     -15.485  20.843 -16.888  1.00  0.00    -0.374 N
ATOM      9  H4  UNL     1     -16.400  20.444 -16.678  1.00  0.00     0.161 HD
HETATM   10  C10 UNL     1     -15.547  21.553 -18.125  1.00  0.00     0.121 C
HETATM   11  C11 UNL     1     -14.537  22.634 -18.270  1.00  0.00     0.020 C
HETATM   12  C12 UNL     1     -13.187  22.281 -17.684  1.00  0.00     0.010 C
HETATM   13  C13 UNL     1     -12.673  20.965 -18.146  1.00  0.00     0.039 C
HETATM   14  C14 UNL     1     -11.429  21.143 -19.011  1.00  0.00     0.279 C
HETATM   15  N5  UNL     1     -10.797  19.852 -19.241  1.00  0.00     0.096 N
HETATM   16  C28 UNL     1     -11.683  18.769 -19.086  1.00  0.00     0.275 C
HETATM   17  C29 UNL     1     -12.112  18.675 -17.610  1.00  0.00     0.058 C
HETATM   18  C30 UNL     1     -12.280  20.047 -16.992  1.00  0.00     0.117 C
ENDROOT
BRANCH  15  19
HETATM   19  C15 UNL     1     -10.141  19.941 -20.580  1.00  0.00     0.251 C
BRANCH  19  20
HETATM   20  C16 UNL     1     -10.269  21.476 -20.849  1.00  0.00     0.200 C
BRANCH  20  21
HETATM   21  O1  UNL     1      -9.417  21.887 -21.842  1.00  0.00    -0.399 OA
ATOM     22  H1  UNL     1      -9.838  22.503 -22.430  1.00  0.00     0.209 HD
ENDBRANCH  20  21
ENDBRANCH  19  20
BRANCH  19  23
HETATM   23  C17 UNL     1      -8.727  19.585 -20.528  1.00  0.00     0.082 C
BRANCH  23  24
HETATM   24  C18 UNL     1      -8.291  18.226 -20.135  1.00  0.00     0.065 C
BRANCH  24  25
HETATM   25  N6  UNL     1      -7.889  17.844 -18.876  1.00  0.00    -0.370 N
HETATM   26  C19 UNL     1      -6.534  17.338 -18.767  1.00  0.00     0.157 C
HETATM   27  C20 UNL     1      -6.526  15.840 -18.520  1.00  0.00     0.293 C
HETATM   28  N7  UNL     1      -7.336  15.499 -17.370  1.00  0.00     0.097 N
HETATM   29  C26 UNL     1      -8.685  15.862 -17.623  1.00  0.00     0.317 C
HETATM   30  C27 UNL     1      -8.780  17.337 -17.915  1.00  0.00     0.093 C
BRANCH  28  31
HETATM   31  C21 UNL     1      -6.745  15.980 -16.168  1.00  0.00     0.304 C
BRANCH  31  32
HETATM   32  C22 UNL     1      -7.098  15.175 -14.968  1.00  0.00     0.149 C
BRANCH  32  33
HETATM   33  O2  UNL     1      -7.677  13.976 -15.412  1.00  0.00    -0.393 OA
ATOM     34  H2  UNL     1      -7.640  13.353 -14.695  1.00  0.00     0.210 HD
ENDBRANCH  32  33
BRANCH  32  35
HETATM   35  C23 UNL     1      -8.053  15.863 -14.050  1.00  0.00     0.008 C
HETATM   36  C24 UNL     1      -9.408  15.196 -14.138  1.00  0.00     0.012 C
HETATM   37  C25 UNL     1      -8.226  17.320 -14.358  1.00  0.00     0.012 C
ENDBRANCH  32  35
ENDBRANCH  31  32
ENDBRANCH  28  31
ENDBRANCH  24  25
ENDBRANCH  23  24
ENDBRANCH  19  23
ENDBRANCH  15  19
BRANCH   7  38
HETATM   38  C5  UNL     1     -16.343  20.708 -14.020  1.00  0.00     0.076 C
BRANCH  38  39
HETATM   39  N3  UNL     1     -16.842  22.028 -14.014  1.00  0.00    -0.292 NA
HETATM   40  C6  UNL     1     -16.356  22.839 -12.953  1.00  0.00     0.095 C
HETATM   41  C7  UNL     1     -17.325  23.987 -12.841  1.00  0.00     0.016 C
HETATM   42  C8  UNL     1     -18.565  23.490 -13.523  1.00  0.00     0.016 C
HETATM   43  C9  UNL     1     -18.249  22.086 -13.985  1.00  0.00     0.095 C
ENDBRANCH  38  39
ENDBRANCH   7  38
TORSDOF 12
ENDMDL