MODEL 3
REMARK VINA RESULT: -8.681210263      2.166      5.088
REMARK  14 active torsions:
REMARK  status: ('A' for Active; 'I' for Inactive)
REMARK    1  A    between atoms: C2_2  and  C3_3
REMARK    2  A    between atoms: C3_3  and  C4_4
REMARK    3  A    between atoms: C4_4  and  N1_5
REMARK    4  A    between atoms: C4_4  and  C5_9
REMARK    5  A    between atoms: C4_4  and  C6_12
REMARK    6  A    between atoms: C5_9  and  O1_10
REMARK    7  A    between atoms: C6_12  and  O2_13
REMARK    8  A    between atoms: C6_12  and  N2_15
REMARK    9  A    between atoms: N2_15  and  C7_16
REMARK   10  A    between atoms: N2_15  and  C27_44
REMARK   11  A    between atoms: N4_22  and  C11_23
REMARK   12  A    between atoms: C11_23  and  C12_24
REMARK   13  A    between atoms: N6_29  and  C16_30
REMARK   14  A    between atoms: C27_44  and  C28_45
ROOT
HETATM    1  C12 UNL     1     -10.146  19.535 -15.290  1.00  0.00     0.159 C
HETATM    2  C13 UNL     1     -10.652  20.861 -15.551  1.00  0.00     0.061 C
HETATM    3  N5  UNL     1     -11.043  21.929 -15.748  1.00  0.00    -0.197 NA
ENDROOT
BRANCH   1   4
HETATM    4  C11 UNL     1     -11.306  18.544 -15.666  1.00  0.00     0.094 C
HETATM    5  C14 UNL     1     -11.079  18.281 -17.101  1.00  0.00     0.066 C
HETATM    6  C15 UNL     1     -10.203  17.021 -17.079  1.00  0.00     0.275 C
HETATM    7  N6  UNL     1      -9.680  16.953 -15.727  1.00  0.00     0.095 N
HETATM    8  C23 UNL     1     -10.884  17.320 -14.951  1.00  0.00     0.306 C
BRANCH   4   9
HETATM    9  N4  UNL     1     -12.520  19.179 -15.278  1.00  0.00    -0.277 N
HETATM   10  C8  UNL     1     -13.455  19.832 -16.051  1.00  0.00     0.076 A
HETATM   11  C7  UNL     1     -13.312  19.894 -17.489  1.00  0.00     0.124 C
HETATM   12  C9  UNL     1     -14.440  20.265 -15.215  1.00  0.00     0.007 A
HETATM   13  C10 UNL     1     -14.111  19.874 -13.930  1.00  0.00     0.124 A
HETATM   14  C26 UNL     1     -15.686  21.054 -15.370  1.00  0.00     0.063 C
HETATM   15  N3  UNL     1     -12.958  19.236 -14.050  1.00  0.00    -0.292 N
HETATM   16  C24 UNL     1     -14.962  20.166 -12.759  1.00  0.00     0.270 C
ATOM     17  H3  UNL     1     -12.460  18.828 -13.259  1.00  0.00     0.187 HD
HETATM   18  O3  UNL     1     -14.636  19.796 -11.613  1.00  0.00    -0.266 OA
HETATM   19  N7  UNL     1     -16.165  20.880 -12.990  1.00  0.00    -0.355 N
HETATM   20  C25 UNL     1     -16.170  21.745 -14.139  1.00  0.00     0.128 C
ATOM     21  H7  UNL     1     -16.976  20.786 -12.380  1.00  0.00     0.162 HD
BRANCH  11  22
HETATM   22  N2  UNL     1     -13.717  20.988 -18.259  1.00  0.00    -0.337 N
BRANCH  22  23
HETATM   23  C6  UNL     1     -15.038  21.396 -18.455  1.00  0.00     0.156 C
BRANCH  23  24
HETATM   24  C4  UNL     1     -15.733  22.665 -18.454  1.00  0.00     0.208 C
BRANCH  24  25
HETATM   25  C3  UNL     1     -15.699  23.250 -19.912  1.00  0.00     0.049 C
BRANCH  25  26
HETATM   26  C2  UNL     1     -15.692  24.744 -19.857  1.00  0.00    -0.002 C
HETATM   27  C1  UNL     1     -16.919  25.303 -20.547  1.00  0.00     0.005 C
ENDBRANCH  25  26
ENDBRANCH  24  25
BRANCH  24  28
HETATM   28  N1  UNL     1     -17.114  22.625 -18.101  1.00  0.00    -0.061 N
ATOM     29  H13 UNL     1     -17.732  23.021 -18.810  1.00  0.00     0.275 HD
ATOM     30  H12 UNL     1     -17.514  21.687 -18.108  1.00  0.00     0.275 HD
ATOM     31  H11 UNL     1     -17.172  23.091 -17.196  1.00  0.00     0.275 HD
ENDBRANCH  24  28
BRANCH  24  32
HETATM   32  C5  UNL     1     -15.056  23.757 -17.652  1.00  0.00     0.211 C
BRANCH  32  33
HETATM   33  O1  UNL     1     -15.894  24.180 -16.627  1.00  0.00    -0.398 OA
ATOM     34  H1  UNL     1     -15.674  25.069 -16.376  1.00  0.00     0.209 HD
ENDBRANCH  32  33
ENDBRANCH  24  32
ENDBRANCH  23  24
BRANCH  23  35
HETATM   35  O2  UNL     1     -15.861  20.392 -18.690  1.00  0.00    -0.347 OA
ATOM     36  H2  UNL     1     -16.151  20.383 -19.595  1.00  0.00     0.219 HD
ENDBRANCH  23  35
ENDBRANCH  22  23
BRANCH  22  37
HETATM   37  C27 UNL     1     -12.704  21.716 -19.016  1.00  0.00     0.135 C
BRANCH  37  38
HETATM   38  C28 UNL     1     -11.717  20.975 -19.794  1.00  0.00     0.004 A
HETATM   39  C29 UNL     1     -10.696  21.454 -20.711  1.00  0.00     0.007 A
HETATM   40  C30 UNL     1     -10.265  21.059 -19.334  1.00  0.00     0.007 A
ENDBRANCH  37  38
ENDBRANCH  22  37
ENDBRANCH  11  22
ENDBRANCH   4   9
BRANCH   7  41
HETATM   41  C16 UNL     1      -9.220  15.646 -15.370  1.00  0.00     0.223 C
HETATM   42  C17 UNL     1      -8.291  15.128 -16.446  1.00  0.00     0.036 C
HETATM   43  C18 UNL     1      -7.004  15.919 -16.492  1.00  0.00     0.002 C
HETATM   44  C19 UNL     1      -6.021  15.495 -15.456  1.00  0.00     0.000 C
HETATM   45  C20 UNL     1      -6.434  14.276 -14.688  1.00  0.00     0.000 C
HETATM   46  C21 UNL     1      -7.682  14.449 -13.882  1.00  0.00     0.002 C
HETATM   47  C22 UNL     1      -8.400  15.738 -14.100  1.00  0.00     0.036 C
ENDBRANCH   7  41
ENDBRANCH   1   4
TORSDOF 14
ENDMDL