MODEL 3
REMARK VINA RESULT: -9.104307357      1.948      3.311
REMARK  12 active torsions:
REMARK  status: ('A' for Active; 'I' for Inactive)
REMARK    1  A    between atoms: C1_2  and  C2_3
REMARK       I    between atoms: C1_2  and  N3_20
REMARK    2  A    between atoms: C3_4  and  C4_5
REMARK    3  A    between atoms: C5_6  and  C6_7
REMARK    4  A    between atoms: C6_7  and  N1_8
REMARK    5  A    between atoms: C9_12  and  C10_13
REMARK       I    between atoms: C10_13  and  N2_15
REMARK    6  A    between atoms: N3_20  and  C15_22
REMARK    7  A    between atoms: C16_23  and  O3_24
REMARK    8  A    between atoms: C18_27  and  C19_28
REMARK    9  A    between atoms: C21_32  and  O6_33
REMARK   10  A    between atoms: O6_33  and  C22_34
REMARK   11  A    between atoms: C22_34  and  C23_35
REMARK   12  A    between atoms: C23_35  and  N4_36
ROOT
HETATM    1  O1  UNL     1     -11.462  17.498 -15.859  1.00  0.00    -0.268 OA
HETATM    2  C1  UNL     1     -10.855  18.443 -16.437  1.00  0.00     0.245 C
HETATM    3  N3  UNL     1      -9.469  18.330 -16.578  1.00  0.00    -0.319 N
ATOM      4  H3  UNL     1      -8.957  19.084 -17.036  1.00  0.00     0.169 HD
ENDROOT
BRANCH   3   5
HETATM    5  C15 UNL     1      -8.742  17.184 -16.097  1.00  0.00     0.102 A
HETATM    6  C16 UNL     1      -8.518  16.998 -14.765  1.00  0.00     0.096 A
HETATM    7  C17 UNL     1      -7.796  15.890 -14.338  1.00  0.00     0.057 A
HETATM    8  C18 UNL     1      -7.299  14.970 -15.230  1.00  0.00     0.046 A
HETATM    9  C20 UNL     1      -7.524  15.156 -16.577  1.00  0.00     0.057 A
HETATM   10  C21 UNL     1      -8.249  16.262 -17.031  1.00  0.00     0.099 A
BRANCH   6  11
HETATM   11  O3  UNL     1      -9.013  17.921 -13.833  1.00  0.00    -0.358 OA
ATOM     12  H3  UNL     1      -8.417  18.379 -13.253  1.00  0.00     0.217 HD
ENDBRANCH   6  11
BRANCH   8  13
HETATM   13  C19 UNL     1      -6.550  13.834 -14.721  1.00  0.00     0.209 C
HETATM   14  O4  UNL     1      -6.929  13.135 -13.749  1.00  0.00    -0.644 OA
HETATM   15  O5  UNL     1      -5.346  13.470 -15.319  1.00  0.00    -0.644 OA
ENDBRANCH   8  13
BRANCH  10  16
HETATM   16  O6  UNL     1      -8.527  16.546 -18.331  1.00  0.00    -0.347 OA
BRANCH  16  17
HETATM   17  C22 UNL     1      -7.692  17.124 -19.259  1.00  0.00     0.195 C
BRANCH  17  18
HETATM   18  C23 UNL     1      -8.414  17.626 -20.459  1.00  0.00     0.143 C
BRANCH  18  19
HETATM   19  N4  UNL     1      -9.109  18.859 -20.190  1.00  0.00    -0.410 N
HETATM   20  C24 UNL     1      -8.356  20.050 -20.319  1.00  0.00     0.117 C
HETATM   21  C25 UNL     1      -9.240  21.120 -20.973  1.00  0.00     0.019 C
HETATM   22  C26 UNL     1     -10.423  21.295 -20.023  1.00  0.00     0.003 C
HETATM   23  C27 UNL     1     -11.259  20.036 -20.142  1.00  0.00     0.019 C
HETATM   24  C28 UNL     1     -10.444  18.876 -20.668  1.00  0.00     0.117 C
ENDBRANCH  18  19
ENDBRANCH  17  18
ENDBRANCH  16  17
ENDBRANCH  10  16
ENDBRANCH   3   5
BRANCH   2  25
HETATM   25  C2  UNL     1     -11.597  19.569 -16.915  1.00  0.00     0.074 C
HETATM   26  C3  UNL     1     -11.592  20.775 -16.341  1.00  0.00     0.005 C
BRANCH  26  27
HETATM   27  C4  UNL     1     -12.394  21.833 -16.933  1.00  0.00    -0.002 C
HETATM   28  C5  UNL     1     -13.596  22.125 -16.527  1.00  0.00    -0.007 C
BRANCH  28  29
HETATM   29  C6  UNL     1     -14.336  21.474 -15.443  1.00  0.00     0.151 C
BRANCH  29  30
HETATM   30  N1  UNL     1     -15.772  21.548 -15.617  1.00  0.00    -0.367 N
HETATM   31  C7  UNL     1     -16.525  20.529 -15.000  1.00  0.00     0.132 C
HETATM   32  S1  UNL     1     -17.040  21.414 -13.470  1.00  0.00    -0.122 SA
HETATM   33  C8  UNL     1     -16.971  23.098 -14.208  1.00  0.00     0.114 C
HETATM   34  C9  UNL     1     -16.348  22.825 -15.536  1.00  0.00     0.186 C
BRANCH  34  35
HETATM   35  C10 UNL     1     -17.256  23.154 -16.673  1.00  0.00     0.243 C
HETATM   36  O2  UNL     1     -18.472  22.762 -16.631  1.00  0.00    -0.271 OA
HETATM   37  N2  UNL     1     -16.871  23.872 -17.808  1.00  0.00    -0.350 N
HETATM   38  C11 UNL     1     -15.553  24.392 -18.079  1.00  0.00     0.126 C
HETATM   39  C14 UNL     1     -17.708  24.229 -18.933  1.00  0.00     0.126 C
HETATM   40  C12 UNL     1     -15.482  24.765 -19.520  1.00  0.00     0.021 C
HETATM   41  C13 UNL     1     -16.775  24.350 -20.112  1.00  0.00     0.021 C
ENDBRANCH  34  35
ENDBRANCH  29  30
ENDBRANCH  28  29
ENDBRANCH  26  27
ENDBRANCH   2  25
TORSDOF 12
ENDMDL