MODEL 5
REMARK VINA RESULT: -8.603307322      0.792      1.767
REMARK  12 active torsions:
REMARK  status: ('A' for Active; 'I' for Inactive)
REMARK    1  A    between atoms: C2_2  and  C3_3
REMARK    2  A    between atoms: C3_3  and  N1_4
REMARK    3  A    between atoms: N1_4  and  C4_5
REMARK    4  A    between atoms: N1_4  and  C7_8
REMARK    5  A    between atoms: C4_5  and  C5_6
REMARK    6  A    between atoms: C7_8  and  C8_9
REMARK    7  A    between atoms: C8_9  and  C9_10
REMARK    8  A    between atoms: C9_10  and  N2_11
REMARK    9  A    between atoms: C12_14  and  N3_15
REMARK   10  A    between atoms: C16_22  and  O1_23
REMARK   11  A    between atoms: N5_25  and  C17_26
REMARK   12  A    between atoms: C17_26  and  C18_27
ROOT
HETATM    1  N3  UNL     1     -12.144  19.039 -15.599  1.00  0.00    -0.323 N
HETATM    2  C13 UNL     1     -12.455  19.847 -14.474  1.00  0.00     0.174 C
HETATM    3  C14 UNL     1     -13.968  19.871 -14.188  1.00  0.00     0.046 A
HETATM    4  C15 UNL     1     -14.762  19.959 -15.316  1.00  0.00     0.109 A
HETATM    5  S1  UNL     1     -16.312  20.209 -14.572  1.00  0.00     0.006 SA
HETATM    6  N4  UNL     1     -15.871  20.186 -12.953  1.00  0.00    -0.305 N
ATOM      7  H4  UNL     1     -16.469  20.297 -12.135  1.00  0.00     0.176 HD
HETATM    8  C16 UNL     1     -14.551  19.986 -12.992  1.00  0.00     0.157 A
HETATM    9  N5  UNL     1     -14.302  19.679 -16.625  1.00  0.00    -0.287 N
HETATM   10  C26 UNL     1     -12.920  19.211 -16.788  1.00  0.00     0.326 C
HETATM   11  O3  UNL     1     -12.429  18.969 -17.877  1.00  0.00    -0.247 OA
ENDROOT
BRANCH   1  12
HETATM   12  C12 UNL     1     -11.105  18.070 -15.489  1.00  0.00     0.107 C
HETATM   13  C11 UNL     1      -9.879  18.615 -14.823  1.00  0.00     0.047 C
HETATM   14  C10 UNL     1      -9.031  17.366 -14.460  1.00  0.00     0.140 C
HETATM   15  N2  UNL     1      -9.544  16.211 -15.067  1.00  0.00    -0.331 N
HETATM   16  N8  UNL     1      -9.773  16.315 -16.402  1.00  0.00    -0.142 NA
HETATM   17  C27 UNL     1     -10.694  17.403 -16.786  1.00  0.00     0.160 C
BRANCH  15  18
HETATM   18  C9  UNL     1      -8.962  14.960 -14.745  1.00  0.00     0.143 C
BRANCH  18  19
HETATM   19  C8  UNL     1      -7.568  14.962 -14.227  1.00  0.00     0.065 C
BRANCH  19  20
HETATM   20  C7  UNL     1      -6.525  14.420 -15.155  1.00  0.00     0.064 C
BRANCH  20  21
HETATM   21  N1  UNL     1      -5.522  15.236 -15.640  1.00  0.00    -0.374 N
BRANCH  21  22
HETATM   22  C3  UNL     1      -5.902  16.424 -16.375  1.00  0.00     0.126 C
BRANCH  22  23
HETATM   23  C2  UNL     1      -6.472  16.028 -17.740  1.00  0.00     0.016 C
HETATM   24  C1  UNL     1      -5.545  16.503 -18.832  1.00  0.00     0.006 C
ENDBRANCH  22  23
ENDBRANCH  21  22
BRANCH  21  25
HETATM   25  C4  UNL     1      -4.169  14.973 -15.666  1.00  0.00     0.062 C
BRANCH  25  26
HETATM   26  C5  UNL     1      -3.206  16.102 -15.772  1.00  0.00     0.040 C
HETATM   27  C6  UNL     1      -2.256  16.049 -16.916  1.00  0.00     0.010 C
ENDBRANCH  25  26
ENDBRANCH  21  25
ENDBRANCH  20  21
ENDBRANCH  19  20
ENDBRANCH  18  19
ENDBRANCH  15  18
ENDBRANCH   1  12
BRANCH   9  28
HETATM   28  C17 UNL     1     -15.014  19.976 -17.819  1.00  0.00     0.179 C
BRANCH  28  29
HETATM   29  C18 UNL     1     -15.205  21.404 -18.089  1.00  0.00     0.029 A
HETATM   30  C19 UNL     1     -16.441  21.992 -17.740  1.00  0.00     0.029 A
HETATM   31  C20 UNL     1     -16.734  23.255 -18.202  1.00  0.00     0.007 A
HETATM   32  C21 UNL     1     -17.975  23.817 -17.890  1.00  0.00     0.101 A
HETATM   33  C24 UNL     1     -15.882  23.992 -18.999  1.00  0.00     0.048 A
HETATM   34  N6  UNL     1     -18.341  25.023 -18.336  1.00  0.00    -0.374 N
HETATM   35  C22 UNL     1     -17.497  25.743 -19.115  1.00  0.00     0.090 A
ATOM     36  H6  UNL     1     -19.256  25.400 -18.091  1.00  0.00     0.164 HD
HETATM   37  C23 UNL     1     -16.268  25.249 -19.455  1.00  0.00     0.047 A
HETATM   38  N7  UNL     1     -14.723  23.430 -19.320  1.00  0.00    -0.322 N
HETATM   39  C25 UNL     1     -14.407  22.192 -18.881  1.00  0.00     0.253 A
ATOM     40  H7  UNL     1     -14.061  23.940 -19.906  1.00  0.00     0.169 HD
HETATM   41  O2  UNL     1     -13.268  21.719 -19.227  1.00  0.00    -0.268 OA
ENDBRANCH  28  29
ENDBRANCH   9  28
BRANCH   8  42
HETATM   42  O1  UNL     1     -13.920  19.916 -11.839  1.00  0.00    -0.345 OA
ATOM     43  H1  UNL     1     -14.063  19.243 -11.183  1.00  0.00     0.219 HD
ENDBRANCH   8  42
TORSDOF 12
ENDMDL