MODEL 4
REMARK VINA RESULT: -8.601148758      3.611     10.394
REMARK  13 active torsions:
REMARK  status: ('A' for Active; 'I' for Inactive)
REMARK    1  A    between atoms: C2_2  and  C3_3
REMARK    2  A    between atoms: C6_8  and  N2_9
REMARK    3  A    between atoms: N2_9  and  C7_10
REMARK    4  A    between atoms: C7_10  and  C8_11
REMARK    5  A    between atoms: C8_11  and  N3_12
REMARK    6  A    between atoms: C10_17  and  S1_18
REMARK    7  A    between atoms: C13_21  and  N5_22
REMARK    8  A    between atoms: N5_22  and  C14_24
REMARK    9  A    between atoms: C14_24  and  C15_25
REMARK   10  A    between atoms: C15_25  and  C16_26
REMARK   11  A    between atoms: C16_26  and  N6_27
REMARK   12  A    between atoms: C23_37  and  O2_38
REMARK   13  A    between atoms: C25_40  and  O3_41
ROOT
HETATM    1  N3  UNL     1     -15.238  20.658 -14.117  1.00  0.00    -0.220 N
ATOM      2  H3  UNL     1     -14.823  20.656 -13.185  1.00  0.00     0.178 HD
HETATM    3  C9  UNL     1     -16.120  21.539 -14.311  1.00  0.00     0.680 A
HETATM    4  N4  UNL     1     -16.432  22.387 -13.286  1.00  0.00    -0.186 N
ATOM      5  H4  UNL     1     -15.957  22.296 -12.388  1.00  0.00     0.185 HD
HETATM    6  C10 UNL     1     -17.365  23.340 -13.457  1.00  0.00     0.089 A
HETATM    7  C12 UNL     1     -17.982  23.422 -14.694  1.00  0.00     0.086 A
HETATM    8  C13 UNL     1     -17.684  22.579 -15.742  1.00  0.00     0.119 A
HETATM    9  N7  UNL     1     -16.729  21.635 -15.501  1.00  0.00    -0.177 N
ATOM     10  H7  UNL     1     -16.472  20.986 -16.245  1.00  0.00     0.185 HD
ENDROOT
BRANCH   1  11
HETATM   11  C8  UNL     1     -14.737  19.667 -15.005  1.00  0.00     0.197 C
BRANCH  11  12
HETATM   12  C7  UNL     1     -13.274  19.322 -14.705  1.00  0.00     0.177 C
BRANCH  12  13
HETATM   13  N2  UNL     1     -12.551  18.865 -15.740  1.00  0.00    -0.401 NA
BRANCH  13  14
HETATM   14  C6  UNL     1     -11.798  18.832 -16.669  1.00  0.00     0.189 A
HETATM   15  N1  UNL     1     -11.999  19.724 -17.699  1.00  0.00    -0.334 N
HETATM   16  C4  UNL     1     -11.218  19.775 -18.779  1.00  0.00     0.015 A
ATOM     17  H1  UNL     1     -12.781  20.376 -17.633  1.00  0.00     0.168 HD
HETATM   18  C3  UNL     1     -10.130  18.922 -18.948  1.00  0.00    -0.025 A
HETATM   19  C5  UNL     1     -11.490  20.774 -19.867  1.00  0.00     0.069 C
HETATM   20  C28 UNL     1      -9.885  18.010 -17.945  1.00  0.00    -0.010 A
HETATM   21  C21 UNL     1     -10.721  17.978 -16.823  1.00  0.00     0.036 A
HETATM   22  C27 UNL     1      -8.833  17.146 -18.063  1.00  0.00     0.052 A
HETATM   23  C22 UNL     1     -10.435  17.040 -15.846  1.00  0.00     0.057 A
HETATM   24  C23 UNL     1      -9.365  16.172 -15.979  1.00  0.00     0.102 A
HETATM   25  C25 UNL     1      -8.546  16.208 -17.085  1.00  0.00     0.102 A
BRANCH  18  26
HETATM   26  C2  UNL     1      -9.298  19.026 -20.190  1.00  0.00     0.037 C
HETATM   27  C1  UNL     1      -8.149  19.957 -19.913  1.00  0.00     0.010 C
ENDBRANCH  18  26
BRANCH  24  28
HETATM   28  O2  UNL     1      -9.139  15.261 -14.964  1.00  0.00    -0.353 OA
HETATM   29  C24 UNL     1      -8.395  15.603 -13.806  1.00  0.00     0.210 C
ENDBRANCH  24  28
BRANCH  25  30
HETATM   30  O3  UNL     1      -7.463  15.333 -17.225  1.00  0.00    -0.353 OA
HETATM   31  C26 UNL     1      -6.178  15.825 -16.900  1.00  0.00     0.210 C
ENDBRANCH  25  30
ENDBRANCH  13  14
ENDBRANCH  12  13
ENDBRANCH  11  12
ENDBRANCH   1  11
BRANCH   6  32
HETATM   32  S1  UNL     1     -17.760  24.434 -12.107  1.00  0.00    -0.116 SA
HETATM   33  C11 UNL     1     -19.445  25.075 -12.269  1.00  0.00     0.097 C
ENDBRANCH   6  32
BRANCH   8  34
HETATM   34  N5  UNL     1     -18.228  22.631 -16.904  1.00  0.00    -0.376 N
ATOM     35  H5  UNL     1     -18.440  21.769 -17.407  1.00  0.00     0.161 HD
BRANCH  34  36
HETATM   36  C14 UNL     1     -18.541  23.909 -17.499  1.00  0.00     0.123 C
BRANCH  36  37
HETATM   37  C15 UNL     1     -17.791  24.031 -18.809  1.00  0.00     0.050 C
BRANCH  37  38
HETATM   38  C16 UNL     1     -16.523  24.791 -18.590  1.00  0.00     0.274 C
BRANCH  38  39
HETATM   39  N6  UNL     1     -15.361  23.968 -18.455  1.00  0.00     0.092 N
HETATM   40  C17 UNL     1     -15.376  22.763 -19.219  1.00  0.00     0.298 C
HETATM   41  C18 UNL     1     -15.060  21.517 -18.455  1.00  0.00     0.198 C
HETATM   42  O1  UNL     1     -14.050  21.624 -17.539  1.00  0.00    -0.388 OA
HETATM   43  C19 UNL     1     -13.644  22.894 -17.223  1.00  0.00     0.198 C
HETATM   44  C20 UNL     1     -14.892  23.779 -17.117  1.00  0.00     0.298 C
ENDBRANCH  38  39
ENDBRANCH  37  38
ENDBRANCH  36  37
ENDBRANCH  34  36
ENDBRANCH   8  34
TORSDOF 13
ENDMDL