MODEL 5
REMARK VINA RESULT: -5.735623935     11.243     15.416
REMARK  14 active torsions:
REMARK  status: ('A' for Active; 'I' for Inactive)
REMARK    1  A    between atoms: C2_2  and  C3_3
REMARK    2  A    between atoms: C3_3  and  C5_5
REMARK    3  A    between atoms: C7_10  and  C8_11
REMARK    4  A    between atoms: C11_16  and  O2_17
REMARK    5  A    between atoms: C12_19  and  C13_20
REMARK    6  A    between atoms: C13_20  and  C14_21
REMARK    7  A    between atoms: C14_21  and  C15_22
REMARK    8  A    between atoms: C17_29  and  C18_30
REMARK    9  A    between atoms: C18_30  and  C19_31
REMARK   10  A    between atoms: C22_36  and  O5_37
REMARK   11  A    between atoms: C23_39  and  C24_40
REMARK   12  A    between atoms: C24_40  and  C25_41
REMARK   13  A    between atoms: C29_48  and  C30_49
REMARK   14  A    between atoms: C30_49  and  C31_50
ROOT
HETATM    1  C5  UNL     1      16.724  22.339  16.295  1.00  0.00     0.180 C
HETATM    2  N1  UNL     1      16.468  21.637  15.050  1.00  0.00    -0.346 N
ATOM      3  H1  UNL     1      17.249  21.082  14.701  1.00  0.00     0.163 HD
HETATM    4  C6  UNL     1      15.323  21.600  14.259  1.00  0.00     0.241 C
HETATM    5  O1  UNL     1      15.398  22.071  13.070  1.00  0.00    -0.271 OA
HETATM    6  C7  UNL     1      13.971  21.060  14.638  1.00  0.00     0.179 C
HETATM    7  N2  UNL     1      14.008  19.642  14.413  1.00  0.00    -0.359 N
ATOM      8  H2  UNL     1      14.670  19.166  15.025  1.00  0.00     0.162 HD
HETATM    9  C11 UNL     1      13.358  18.775  13.565  1.00  0.00     0.135 C
HETATM   10  C12 UNL     1      12.067  18.054  13.632  1.00  0.00     0.159 C
HETATM   11  N4  UNL     1      11.095  18.604  14.515  1.00  0.00    -0.347 N
ATOM     12  H4  UNL     1      10.704  19.479  14.166  1.00  0.00     0.163 HD
HETATM   13  C16 UNL     1      10.548  18.232  15.747  1.00  0.00     0.241 C
HETATM   14  O4  UNL     1       9.262  18.355  15.807  1.00  0.00    -0.271 OA
HETATM   15  C17 UNL     1      11.174  17.735  16.978  1.00  0.00     0.175 C
HETATM   16  N5  UNL     1      11.334  18.881  17.924  1.00  0.00    -0.359 N
ATOM     17  H5  UNL     1      10.785  19.708  17.690  1.00  0.00     0.162 HD
HETATM   18  C22 UNL     1      12.093  19.002  19.048  1.00  0.00     0.135 C
HETATM   19  C23 UNL     1      13.557  18.903  19.291  1.00  0.00     0.159 C
HETATM   20  N6  UNL     1      14.173  19.931  18.432  1.00  0.00    -0.347 N
ATOM     21  H6  UNL     1      14.302  19.666  17.455  1.00  0.00     0.163 HD
HETATM   22  C28 UNL     1      14.601  21.202  18.762  1.00  0.00     0.241 C
HETATM   23  O6  UNL     1      13.921  22.253  18.418  1.00  0.00    -0.271 OA
HETATM   24  C29 UNL     1      15.854  21.550  19.529  1.00  0.00     0.177 C
HETATM   25  N7  UNL     1      17.026  21.403  18.710  1.00  0.00    -0.346 N
ATOM     26  H7  UNL     1      17.899  21.306  19.229  1.00  0.00     0.163 HD
HETATM   27  C34 UNL     1      17.168  21.372  17.326  1.00  0.00     0.241 C
HETATM   28  O7  UNL     1      17.782  20.346  16.840  1.00  0.00    -0.271 OA
ENDROOT
BRANCH  10  29
HETATM   29  C13 UNL     1      12.267  16.576  13.704  1.00  0.00     0.042 C
BRANCH  29  30
HETATM   30  C14 UNL     1      11.819  15.796  12.506  1.00  0.00     0.102 C
BRANCH  30  31
HETATM   31  C15 UNL     1      12.987  15.460  11.616  1.00  0.00     0.231 C
HETATM   32  N3  UNL     1      12.815  14.993  10.297  1.00  0.00    -0.062 NA
HETATM   33  O3  UNL     1      14.142  15.603  12.068  1.00  0.00    -0.277 OA
ENDBRANCH  30  31
ENDBRANCH  29  30
ENDBRANCH  10  29
BRANCH   9  34
HETATM   34  O2  UNL     1      13.995  18.513  12.457  1.00  0.00    -0.348 OA
ATOM     35  H2  UNL     1      14.145  19.264  11.895  1.00  0.00     0.219 HD
ENDBRANCH   9  34
BRANCH   6  36
HETATM   36  C8  UNL     1      12.863  21.838  14.043  1.00  0.00     0.009 C
HETATM   37  C9  UNL     1      12.999  23.298  13.927  1.00  0.00     0.012 C
HETATM   38  C10 UNL     1      11.652  21.568  14.964  1.00  0.00     0.012 C
ENDBRANCH   6  36
BRANCH  15  39
HETATM   39  C18 UNL     1      10.420  16.679  17.680  1.00  0.00     0.038 C
BRANCH  39  40
HETATM   40  C19 UNL     1      10.618  15.265  17.627  1.00  0.00    -0.020 C
HETATM   41  C20 UNL     1       9.769  14.412  18.501  1.00  0.00     0.009 C
HETATM   42  C21 UNL     1      10.616  14.653  16.233  1.00  0.00     0.009 C
ENDBRANCH  39  40
ENDBRANCH  15  39
BRANCH  18  43
HETATM   43  O5  UNL     1      11.444  19.258  20.154  1.00  0.00    -0.348 OA
ATOM     44  H5  UNL     1      11.685  18.735  20.909  1.00  0.00     0.219 HD
ENDBRANCH  18  43
BRANCH   1  45
HETATM   45  C3  UNL     1      17.843  23.358  16.018  1.00  0.00     0.013 C
HETATM   46  C4  UNL     1      18.746  23.356  17.213  1.00  0.00     0.012 C
BRANCH  45  47
HETATM   47  C2  UNL     1      17.306  24.710  15.699  1.00  0.00     0.002 C
HETATM   48  C1  UNL     1      17.480  24.919  14.200  1.00  0.00     0.005 C
ENDBRANCH  45  47
ENDBRANCH   1  45
BRANCH  19  49
HETATM   49  C24 UNL     1      14.149  17.552  19.018  1.00  0.00     0.037 C
BRANCH  49  50
HETATM   50  C25 UNL     1      14.740  16.991  20.323  1.00  0.00    -0.020 C
HETATM   51  C26 UNL     1      13.621  17.056  21.364  1.00  0.00     0.009 C
HETATM   52  C27 UNL     1      15.745  18.051  20.797  1.00  0.00     0.009 C
ENDBRANCH  49  50
ENDBRANCH  19  49
BRANCH  24  53
HETATM   53  C30 UNL     1      15.714  22.876  20.166  1.00  0.00     0.038 C
BRANCH  53  54
HETATM   54  C31 UNL     1      16.704  23.933  19.895  1.00  0.00    -0.020 C
HETATM   55  C32 UNL     1      17.390  24.573  21.047  1.00  0.00     0.009 C
HETATM   56  C33 UNL     1      16.150  25.013  18.968  1.00  0.00     0.009 C
ENDBRANCH  53  54
ENDBRANCH  24  53
TORSDOF 14
ENDMDL