MODEL 1
REMARK VINA RESULT: -6.024944647      0.000      0.000
REMARK  13 active torsions:
REMARK  status: ('A' for Active; 'I' for Inactive)
REMARK    1  A    between atoms: C2_2  and  C4_4
REMARK    2  A    between atoms: C4_4  and  C5_5
REMARK    3  A    between atoms: C6_6  and  C7_7
REMARK    4  A    between atoms: C9_12  and  C10_13
REMARK    5  A    between atoms: C10_13  and  C11_14
REMARK    6  A    between atoms: C15_21  and  C16_22
REMARK    7  A    between atoms: C16_22  and  C17_23
REMARK    8  A    between atoms: C21_30  and  C22_31
REMARK    9  A    between atoms: C26_38  and  C27_39
REMARK   10  A    between atoms: C27_39  and  C28_40
REMARK   11  A    between atoms: C31_43  and  O5_44
REMARK   12  A    between atoms: C32_48  and  C33_49
REMARK   13  A    between atoms: C33_49  and  C34_50
ROOT
HETATM    1  C7  UNL     1      23.692  26.637  16.440  1.00  0.00     0.172 C
HETATM    2  C8  UNL     1      22.874  27.456  17.331  1.00  0.00     0.233 C
HETATM    3  O1  UNL     1      22.325  28.487  16.815  1.00  0.00    -0.272 OA
HETATM    4  N1  UNL     1      22.599  27.263  18.696  1.00  0.00    -0.347 N
ATOM      5  H1  UNL     1      22.399  28.102  19.239  1.00  0.00     0.163 HD
HETATM    6  C9  UNL     1      22.567  26.014  19.415  1.00  0.00     0.177 C
HETATM    7  C14 UNL     1      23.613  26.100  20.475  1.00  0.00     0.241 C
HETATM    8  O2  UNL     1      23.128  26.551  21.590  1.00  0.00    -0.271 OA
HETATM    9  N2  UNL     1      24.949  25.788  20.439  1.00  0.00    -0.346 N
ATOM     10  H2  UNL     1      25.558  26.598  20.555  1.00  0.00     0.163 HD
HETATM   11  C15 UNL     1      25.676  24.536  20.271  1.00  0.00     0.177 C
HETATM   12  C20 UNL     1      26.625  24.410  21.447  1.00  0.00     0.241 C
HETATM   13  O3  UNL     1      26.513  23.371  22.144  1.00  0.00    -0.271 OA
HETATM   14  N3  UNL     1      27.590  25.329  21.820  1.00  0.00    -0.346 N
ATOM     15  H3  UNL     1      27.608  25.515  22.822  1.00  0.00     0.163 HD
HETATM   16  C21 UNL     1      28.569  26.074  21.084  1.00  0.00     0.180 C
HETATM   17  C25 UNL     1      28.567  26.007  19.647  1.00  0.00     0.241 C
HETATM   18  O4  UNL     1      29.084  24.993  19.060  1.00  0.00    -0.271 OA
HETATM   19  N4  UNL     1      28.029  26.989  18.731  1.00  0.00    -0.347 N
ATOM     20  H4  UNL     1      27.590  26.657  17.873  1.00  0.00     0.163 HD
HETATM   21  C26 UNL     1      28.080  28.414  18.964  1.00  0.00     0.159 C
HETATM   22  C31 UNL     1      26.903  29.159  18.490  1.00  0.00     0.135 C
HETATM   23  N5  UNL     1      25.875  28.831  17.607  1.00  0.00    -0.361 N
ATOM     24  H5  UNL     1      24.950  29.068  17.968  1.00  0.00     0.162 HD
HETATM   25  C32 UNL     1      25.830  28.239  16.313  1.00  0.00     0.162 C
HETATM   26  C35 UNL     1      25.068  26.985  16.189  1.00  0.00     0.166 C
HETATM   27  O7  UNL     1      25.768  26.009  15.776  1.00  0.00    -0.294 OA
ENDROOT
BRANCH   1  28
HETATM   28  C6  UNL     1      22.975  26.318  15.170  1.00  0.00    -0.009 C
HETATM   29  C5  UNL     1      21.698  26.298  15.065  1.00  0.00    -0.029 C
BRANCH  29  30
HETATM   30  C4  UNL     1      21.069  25.963  13.732  1.00  0.00     0.030 C
BRANCH  30  31
HETATM   31  C2  UNL     1      19.645  25.497  13.952  1.00  0.00    -0.019 C
HETATM   32  C1  UNL     1      18.660  26.620  13.911  1.00  0.00     0.010 C
HETATM   33  C3  UNL     1      19.562  24.799  15.276  1.00  0.00     0.010 C
ENDBRANCH  30  31
ENDBRANCH  29  30
ENDBRANCH   1  28
BRANCH  25  34
HETATM   34  C33 UNL     1      25.447  29.264  15.278  1.00  0.00     0.132 C
BRANCH  34  35
HETATM   35  C34 UNL     1      26.073  30.583  15.463  1.00  0.00     0.233 C
HETATM   36  N6  UNL     1      25.452  31.518  16.350  1.00  0.00    -0.062 NA
HETATM   37  O6  UNL     1      27.110  30.949  14.901  1.00  0.00    -0.277 OA
ENDBRANCH  34  35
ENDBRANCH  25  34
BRANCH   6  38
HETATM   38  C10 UNL     1      21.285  25.679  20.094  1.00  0.00     0.038 C
BRANCH  38  39
HETATM   39  C11 UNL     1      20.808  24.291  20.099  1.00  0.00    -0.020 C
HETATM   40  C12 UNL     1      20.419  23.760  21.450  1.00  0.00     0.009 C
HETATM   41  C13 UNL     1      19.744  23.996  19.061  1.00  0.00     0.009 C
ENDBRANCH  38  39
ENDBRANCH   6  38
BRANCH  22  42
HETATM   42  O5  UNL     1      26.829  30.358  19.014  1.00  0.00    -0.348 OA
ATOM     43  H5  UNL     1      27.134  31.031  18.418  1.00  0.00     0.219 HD
ENDBRANCH  22  42
BRANCH  21  44
HETATM   44  C27 UNL     1      29.396  28.892  18.377  1.00  0.00     0.037 C
BRANCH  44  45
HETATM   45  C28 UNL     1      29.817  28.203  17.126  1.00  0.00    -0.020 C
HETATM   46  C29 UNL     1      31.298  27.810  17.362  1.00  0.00     0.009 C
HETATM   47  C30 UNL     1      29.877  29.144  15.936  1.00  0.00     0.009 C
ENDBRANCH  44  45
ENDBRANCH  21  44
BRANCH  11  48
HETATM   48  C16 UNL     1      24.802  23.348  20.096  1.00  0.00     0.038 C
BRANCH  48  49
HETATM   49  C17 UNL     1      25.033  22.564  18.862  1.00  0.00    -0.020 C
HETATM   50  C18 UNL     1      25.819  21.275  19.162  1.00  0.00     0.009 C
HETATM   51  C19 UNL     1      26.041  23.392  18.022  1.00  0.00     0.009 C
ENDBRANCH  48  49
ENDBRANCH  11  48
BRANCH  16  52
HETATM   52  C22 UNL     1      29.918  25.678  21.696  1.00  0.00     0.009 C
HETATM   53  C23 UNL     1      30.987  26.690  21.476  1.00  0.00     0.012 C
HETATM   54  C24 UNL     1      29.832  25.252  23.117  1.00  0.00     0.012 C
ENDBRANCH  16  52
TORSDOF 13
ENDMDL