MODEL 1
REMARK VINA RESULT: -5.763121624      0.000      0.000
REMARK  12 active torsions:
REMARK  status: ('A' for Active; 'I' for Inactive)
REMARK    1  A    between atoms: C2_2  and  C3_3
REMARK    2  A    between atoms: C3_3  and  C4_4
REMARK    3  A    between atoms: C4_4  and  C5_5
REMARK    4  A    between atoms: C7_10  and  C8_11
REMARK    5  A    between atoms: C8_11  and  C9_12
REMARK    6  A    between atoms: N3_21  and  C15_22
REMARK    7  A    between atoms: C15_22  and  C16_23
REMARK    8  A    between atoms: C18_28  and  C19_29
REMARK    9  A    between atoms: C19_29  and  C20_30
REMARK   10  A    between atoms: C24_37  and  C25_38
REMARK   11  A    between atoms: C25_38  and  C26_39
REMARK   12  A    between atoms: C30_46  and  C31_47
ROOT
HETATM    1  C5  UNL     1      27.223  28.751  16.295  1.00  0.00     0.176 C
HETATM    2  N1  UNL     1      26.847  27.433  15.843  1.00  0.00    -0.346 N
ATOM      3  H1  UNL     1      27.361  27.088  15.032  1.00  0.00     0.163 HD
HETATM    4  C6  UNL     1      25.886  26.563  16.352  1.00  0.00     0.241 C
HETATM    5  O1  UNL     1      26.180  25.314  16.211  1.00  0.00    -0.271 OA
HETATM    6  C7  UNL     1      24.609  26.890  17.013  1.00  0.00     0.177 C
HETATM    7  N2  UNL     1      24.771  27.199  18.415  1.00  0.00    -0.346 N
ATOM      8  H2  UNL     1      24.324  28.054  18.747  1.00  0.00     0.163 HD
HETATM    9  C12 UNL     1      25.478  26.451  19.367  1.00  0.00     0.241 C
HETATM   10  O2  UNL     1      26.392  27.068  20.043  1.00  0.00    -0.271 OA
HETATM   11  C13 UNL     1      25.329  25.027  19.722  1.00  0.00     0.175 C
HETATM   12  C14 UNL     1      24.003  24.414  19.433  1.00  0.00     0.042 C
HETATM   13  N3  UNL     1      25.600  24.856  21.153  1.00  0.00    -0.327 N
HETATM   14  C17 UNL     1      26.489  23.884  21.632  1.00  0.00     0.243 C
HETATM   15  O5  UNL     1      26.240  23.406  22.793  1.00  0.00    -0.271 OA
HETATM   16  C18 UNL     1      27.677  23.347  20.957  1.00  0.00     0.177 C
HETATM   17  N4  UNL     1      28.862  23.774  21.713  1.00  0.00    -0.346 N
ATOM     18  H4  UNL     1      28.749  23.850  22.724  1.00  0.00     0.163 HD
HETATM   19  C23 UNL     1      30.116  24.086  21.214  1.00  0.00     0.241 C
HETATM   20  O6  UNL     1      31.049  24.283  22.087  1.00  0.00    -0.271 OA
HETATM   21  C24 UNL     1      30.558  24.234  19.818  1.00  0.00     0.177 C
HETATM   22  N5  UNL     1      30.813  25.684  19.636  1.00  0.00    -0.346 N
ATOM     23  H5  UNL     1      31.640  26.047  20.109  1.00  0.00     0.163 HD
HETATM   24  C29 UNL     1      30.090  26.605  18.920  1.00  0.00     0.241 C
HETATM   25  O7  UNL     1      29.657  27.660  19.531  1.00  0.00    -0.271 OA
HETATM   26  C30 UNL     1      29.696  26.603  17.478  1.00  0.00     0.180 C
HETATM   27  N6  UNL     1      29.607  27.960  16.963  1.00  0.00    -0.346 N
ATOM     28  H6  UNL     1      30.450  28.323  16.517  1.00  0.00     0.163 HD
HETATM   29  C34 UNL     1      28.511  28.831  17.002  1.00  0.00     0.241 C
HETATM   30  O8  UNL     1      28.621  29.872  17.769  1.00  0.00    -0.271 OA
ENDROOT
BRANCH   1  31
HETATM   31  C4  UNL     1      27.259  29.700  15.117  1.00  0.00     0.035 C
BRANCH  31  32
HETATM   32  C3  UNL     1      26.244  30.795  15.140  1.00  0.00     0.002 C
BRANCH  32  33
HETATM   33  C2  UNL     1      25.591  30.905  16.520  1.00  0.00    -0.004 C
HETATM   34  C1  UNL     1      25.819  32.292  17.083  1.00  0.00     0.005 C
ENDBRANCH  32  33
ENDBRANCH  31  32
ENDBRANCH   1  31
BRANCH   6  35
HETATM   35  C8  UNL     1      23.806  27.917  16.279  1.00  0.00     0.038 C
BRANCH  35  36
HETATM   36  C9  UNL     1      22.339  27.562  16.144  1.00  0.00    -0.020 C
HETATM   37  C10 UNL     1      22.100  26.741  14.882  1.00  0.00     0.009 C
HETATM   38  C11 UNL     1      21.794  26.900  17.376  1.00  0.00     0.009 C
ENDBRANCH  35  36
ENDBRANCH   6  35
BRANCH  26  39
HETATM   39  C31 UNL     1      30.709  25.848  16.641  1.00  0.00     0.009 C
HETATM   40  C32 UNL     1      31.910  26.748  16.433  1.00  0.00     0.012 C
HETATM   41  C33 UNL     1      30.099  25.640  15.273  1.00  0.00     0.012 C
ENDBRANCH  26  39
BRANCH  21  42
HETATM   42  C25 UNL     1      31.826  23.494  19.551  1.00  0.00     0.038 C
BRANCH  42  43
HETATM   43  C26 UNL     1      31.854  22.256  18.778  1.00  0.00    -0.020 C
HETATM   44  C27 UNL     1      30.840  21.219  19.065  1.00  0.00     0.009 C
HETATM   45  C28 UNL     1      31.817  22.512  17.267  1.00  0.00     0.009 C
ENDBRANCH  42  43
ENDBRANCH  21  42
BRANCH  13  46
HETATM   46  C15 UNL     1      24.920  25.780  22.055  1.00  0.00     0.239 C
BRANCH  46  47
HETATM   47  C16 UNL     1      25.725  26.276  23.164  1.00  0.00     0.191 C
HETATM   48  O3  UNL     1      25.261  26.236  24.331  1.00  0.00    -0.647 OA
HETATM   49  O4  UNL     1      26.988  26.802  23.011  1.00  0.00    -0.647 OA
ENDBRANCH  46  47
ENDBRANCH  13  46
BRANCH  16  50
HETATM   50  C19 UNL     1      27.627  21.831  21.163  1.00  0.00     0.038 C
BRANCH  50  51
HETATM   51  C20 UNL     1      27.530  21.037  19.904  1.00  0.00    -0.020 C
HETATM   52  C21 UNL     1      27.571  19.575  20.196  1.00  0.00     0.009 C
HETATM   53  C22 UNL     1      26.207  21.378  19.246  1.00  0.00     0.009 C
ENDBRANCH  50  51
ENDBRANCH  16  50
TORSDOF 12
ENDMDL