MODEL 3
REMARK VINA RESULT: -5.802341694      2.172      6.591
REMARK  14 active torsions:
REMARK  status: ('A' for Active; 'I' for Inactive)
REMARK    1  A    between atoms: C2_2  and  C4_4
REMARK    2  A    between atoms: C4_4  and  C5_5
REMARK    3  A    between atoms: C6_8  and  O1_9
REMARK    4  A    between atoms: C7_11  and  C8_12
REMARK    5  A    between atoms: C8_12  and  C9_13
REMARK    6  A    between atoms: C13_20  and  C14_21
REMARK    7  A    between atoms: C14_21  and  C15_22
REMARK    8  A    between atoms: C18_27  and  O3_28
REMARK    9  A    between atoms: C19_30  and  C20_31
REMARK   10  A    between atoms: C20_31  and  C21_32
REMARK       I    between atoms: N4_35  and  C24_36
REMARK   11  A    between atoms: C24_36  and  C25_38
REMARK   12  A    between atoms: C28_43  and  O5_44
REMARK   13  A    between atoms: C29_46  and  C30_47
REMARK   14  A    between atoms: C30_47  and  C31_48
ROOT
HETATM    1  C5  UNL     1      23.254  24.128  20.704  1.00  0.00     0.175 C
HETATM    2  N1  UNL     1      22.926  25.440  20.185  1.00  0.00    -0.359 N
ATOM      3  H1  UNL     1      22.019  25.774  20.510  1.00  0.00     0.162 HD
HETATM    4  C6  UNL     1      23.548  26.337  19.359  1.00  0.00     0.135 C
HETATM    5  C7  UNL     1      23.819  26.359  17.920  1.00  0.00     0.159 C
HETATM    6  N2  UNL     1      24.766  25.308  17.495  1.00  0.00    -0.347 N
ATOM      7  H2  UNL     1      24.400  24.360  17.407  1.00  0.00     0.163 HD
HETATM    8  C12 UNL     1      26.122  25.496  17.202  1.00  0.00     0.241 C
HETATM    9  O2  UNL     1      26.929  24.550  17.519  1.00  0.00    -0.271 OA
HETATM   10  C13 UNL     1      26.774  26.636  16.570  1.00  0.00     0.176 C
HETATM   11  N3  UNL     1      27.313  27.658  17.390  1.00  0.00    -0.356 N
ATOM     12  H3  UNL     1      27.873  28.302  16.832  1.00  0.00     0.162 HD
HETATM   13  C18 UNL     1      27.311  28.044  18.705  1.00  0.00     0.162 C
HETATM   14  C19 UNL     1      27.783  27.676  20.002  1.00  0.00     0.088 C
HETATM   15  N4  UNL     1      28.567  26.495  20.276  1.00  0.00    -0.222 N
HETATM   16  C24 UNL     1      29.636  26.108  19.370  1.00  0.00     0.246 C
HETATM   17  O4  UNL     1      29.921  26.755  18.361  1.00  0.00    -0.271 OA
HETATM   18  N5  UNL     1      28.385  25.712  21.422  1.00  0.00    -0.272 N
ATOM     19  H5  UNL     1      29.196  25.133  21.643  1.00  0.00     0.189 HD
HETATM   20  C28 UNL     1      27.333  25.550  22.329  1.00  0.00     0.154 C
HETATM   21  C29 UNL     1      26.048  24.820  22.240  1.00  0.00     0.166 C
HETATM   22  N8  UNL     1      25.814  24.241  20.925  1.00  0.00    -0.347 N
ATOM     23  H8  UNL     1      26.605  24.246  20.281  1.00  0.00     0.163 HD
HETATM   24  C34 UNL     1      24.634  23.682  20.450  1.00  0.00     0.241 C
HETATM   25  O6  UNL     1      24.772  22.652  19.694  1.00  0.00    -0.271 OA
ENDROOT
BRANCH  21  26
HETATM   26  C30 UNL     1      25.983  23.624  23.184  1.00  0.00     0.092 C
BRANCH  26  27
HETATM   27  C31 UNL     1      27.109  22.737  23.225  1.00  0.00     0.028 A
HETATM   28  C32 UNL     1      28.005  22.537  24.257  1.00  0.00     0.114 A
HETATM   29  N6  UNL     1      28.901  21.584  23.881  1.00  0.00    -0.360 N
HETATM   30  C33 UNL     1      28.571  21.194  22.635  1.00  0.00     0.180 A
ATOM     31  H6  UNL     1      29.678  21.231  24.439  1.00  0.00     0.166 HD
HETATM   32  N7  UNL     1      27.501  21.889  22.256  1.00  0.00    -0.354 N
ATOM     33  H7  UNL     1      27.039  21.792  21.352  1.00  0.00     0.166 HD
ENDBRANCH  26  27
ENDBRANCH  21  26
BRANCH  20  34
HETATM   34  O5  UNL     1      27.399  26.104  23.510  1.00  0.00    -0.347 OA
ATOM     35  H5  UNL     1      28.246  26.292  23.898  1.00  0.00     0.219 HD
ENDBRANCH  20  34
BRANCH   1  36
HETATM   36  C4  UNL     1      22.175  23.163  20.309  1.00  0.00     0.038 C
BRANCH  36  37
HETATM   37  C2  UNL     1      21.248  22.698  21.362  1.00  0.00    -0.020 C
HETATM   38  C1  UNL     1      20.437  21.539  20.754  1.00  0.00     0.009 C
HETATM   39  C3  UNL     1      20.200  23.811  21.549  1.00  0.00     0.009 C
ENDBRANCH  36  37
ENDBRANCH   1  36
BRANCH  14  40
HETATM   40  C20 UNL     1      28.333  28.857  20.793  1.00  0.00     0.067 C
BRANCH  40  41
HETATM   41  C21 UNL     1      29.528  29.541  20.363  1.00  0.00    -0.017 C
HETATM   42  C22 UNL     1      29.593  31.017  20.277  1.00  0.00     0.010 C
HETATM   43  C23 UNL     1      30.620  29.167  21.397  1.00  0.00     0.010 C
ENDBRANCH  40  41
ENDBRANCH  14  40
BRANCH  16  44
HETATM   44  C25 UNL     1      30.467  24.895  19.605  1.00  0.00     0.072 C
HETATM   45  C26 UNL     1      30.553  24.061  18.341  1.00  0.00     0.019 C
HETATM   46  C27 UNL     1      31.925  25.272  19.881  1.00  0.00     0.019 C
ENDBRANCH  16  44
BRANCH  13  47
HETATM   47  O3  UNL     1      26.616  29.187  18.862  1.00  0.00    -0.345 OA
ATOM     48  H3  UNL     1      26.073  29.144  19.640  1.00  0.00     0.219 HD
ENDBRANCH  13  47
BRANCH   4  49
HETATM   49  O1  UNL     1      23.997  27.401  19.988  1.00  0.00    -0.348 OA
ATOM     50  H1  UNL     1      23.767  27.419  20.910  1.00  0.00     0.219 HD
ENDBRANCH   4  49
BRANCH   5  51
HETATM   51  C8  UNL     1      22.687  26.393  16.967  1.00  0.00     0.037 C
BRANCH  51  52
HETATM   52  C9  UNL     1      21.512  27.256  17.218  1.00  0.00    -0.020 C
HETATM   53  C10 UNL     1      20.373  26.509  17.845  1.00  0.00     0.009 C
HETATM   54  C11 UNL     1      21.049  27.843  15.885  1.00  0.00     0.009 C
ENDBRANCH  51  52
ENDBRANCH   5  51
BRANCH  10  55
HETATM   55  C14 UNL     1      27.785  26.149  15.515  1.00  0.00     0.038 C
BRANCH  55  56
HETATM   56  C15 UNL     1      28.955  27.045  15.340  1.00  0.00    -0.020 C
HETATM   57  C16 UNL     1      28.754  28.077  14.256  1.00  0.00     0.009 C
HETATM   58  C17 UNL     1      30.107  26.124  14.869  1.00  0.00     0.009 C
ENDBRANCH  55  56
ENDBRANCH  10  55
TORSDOF 14
ENDMDL