MODEL 5
REMARK VINA RESULT: -5.843767340     13.773     18.416
REMARK  15 active torsions:
REMARK  status: ('A' for Active; 'I' for Inactive)
REMARK    1  A    between atoms: C2_2  and  C3_3
REMARK    2  A    between atoms: C3_3  and  C4_4
REMARK    3  A    between atoms: C4_4  and  C5_5
REMARK    4  A    between atoms: C6_8  and  O1_9
REMARK    5  A    between atoms: C7_11  and  C8_12
REMARK    6  A    between atoms: C7_11  and  C9_15
REMARK    7  A    between atoms: C12_20  and  O3_21
REMARK    8  A    between atoms: C13_23  and  C14_24
REMARK    9  A    between atoms: C14_24  and  C15_25
REMARK   10  A    between atoms: C18_30  and  O4_31
REMARK   11  A    between atoms: C19_33  and  C20_34
REMARK   12  A    between atoms: C20_34  and  C21_35
REMARK   13  A    between atoms: C25_42  and  C26_43
REMARK   14  A    between atoms: C26_43  and  C27_44
REMARK   15  A    between atoms: C34_55  and  O7_56
ROOT
HETATM    1  C5  UNL     1      24.334  27.065  18.584  1.00  0.00     0.158 C
HETATM    2  N1  UNL     1      25.741  26.993  18.357  1.00  0.00    -0.360 N
ATOM      3  H1  UNL     1      26.239  26.555  19.132  1.00  0.00     0.162 HD
HETATM    4  C6  UNL     1      26.598  27.383  17.322  1.00  0.00     0.151 C
HETATM    5  C7  UNL     1      27.230  28.616  16.906  1.00  0.00     0.179 C
HETATM    6  N3  UNL     1      28.521  28.412  16.223  1.00  0.00    -0.345 N
ATOM      7  H3  UNL     1      28.878  29.305  15.883  1.00  0.00     0.163 HD
HETATM    8  C12 UNL     1      29.393  27.412  15.898  1.00  0.00     0.164 C
HETATM    9  C13 UNL     1      30.272  26.503  16.637  1.00  0.00     0.081 C
HETATM   10  N4  UNL     1      30.649  27.042  17.946  1.00  0.00    -0.336 N
ATOM     11  H4  UNL     1      31.207  27.893  17.885  1.00  0.00     0.168 HD
HETATM   12  C18 UNL     1      30.412  26.646  19.231  1.00  0.00     0.139 C
HETATM   13  C19 UNL     1      30.192  25.372  19.916  1.00  0.00     0.160 C
HETATM   14  N5  UNL     1      28.885  25.411  20.582  1.00  0.00    -0.344 N
ATOM     15  H5  UNL     1      28.504  26.330  20.806  1.00  0.00     0.163 HD
HETATM   16  C24 UNL     1      28.095  24.263  20.947  1.00  0.00     0.268 C
HETATM   17  O5  UNL     1      27.779  24.260  22.156  1.00  0.00    -0.266 OA
HETATM   18  C25 UNL     1      27.709  23.235  20.030  1.00  0.00     0.099 C
HETATM   19  N6  UNL     1      26.553  23.550  19.198  1.00  0.00    -0.321 N
ATOM     20  H6  UNL     1      26.767  23.786  18.229  1.00  0.00     0.169 HD
HETATM   21  C30 UNL     1      25.189  23.578  19.534  1.00  0.00     0.244 C
HETATM   22  O6  UNL     1      24.445  22.944  18.695  1.00  0.00    -0.271 OA
HETATM   23  C31 UNL     1      24.504  24.187  20.640  1.00  0.00     0.174 C
HETATM   24  C32 UNL     1      23.152  23.452  20.809  1.00  0.00     0.042 C
HETATM   25  N7  UNL     1      24.357  25.589  20.792  1.00  0.00    -0.355 N
HETATM   26  C33 UNL     1      24.711  26.112  22.149  1.00  0.00     0.152 C
HETATM   27  C34 UNL     1      23.907  26.602  19.934  1.00  0.00     0.137 C
ENDROOT
BRANCH   5  28
HETATM   28  C8  UNL     1      26.361  29.333  15.948  1.00  0.00     0.268 C
HETATM   29  N2  UNL     1      25.560  30.445  16.220  1.00  0.00    -0.059 NA
HETATM   30  O2  UNL     1      26.326  28.917  14.765  1.00  0.00    -0.274 OA
ENDBRANCH   5  28
BRANCH   5  31
HETATM   31  C9  UNL     1      27.605  29.595  18.001  1.00  0.00     0.023 C
HETATM   32  C10 UNL     1      27.574  28.953  19.362  1.00  0.00     0.013 C
HETATM   33  C11 UNL     1      28.838  30.376  17.826  1.00  0.00     0.013 C
ENDBRANCH   5  31
BRANCH   4  34
HETATM   34  O1  UNL     1      26.918  26.398  16.531  1.00  0.00    -0.347 OA
ATOM     35  H1  UNL     1      26.197  26.117  15.980  1.00  0.00     0.219 HD
ENDBRANCH   4  34
BRANCH   8  36
HETATM   36  O3  UNL     1      29.489  27.198  14.611  1.00  0.00    -0.345 OA
ATOM     37  H3  UNL     1      30.344  26.882  14.340  1.00  0.00     0.219 HD
ENDBRANCH   8  36
BRANCH   1  38
HETATM   38  C4  UNL     1      23.434  26.497  17.514  1.00  0.00     0.033 C
BRANCH  38  39
HETATM   39  C3  UNL     1      23.112  27.467  16.417  1.00  0.00     0.002 C
BRANCH  39  40
HETATM   40  C2  UNL     1      21.584  27.373  16.236  1.00  0.00    -0.004 C
HETATM   41  C1  UNL     1      21.204  27.074  14.829  1.00  0.00     0.005 C
ENDBRANCH  39  40
ENDBRANCH  38  39
ENDBRANCH   1  38
BRANCH   9  42
HETATM   42  C14 UNL     1      30.152  25.044  16.637  1.00  0.00     0.011 C
BRANCH  42  43
HETATM   43  C15 UNL     1      31.176  24.112  16.126  1.00  0.00     0.002 C
HETATM   44  C16 UNL     1      31.980  24.880  14.992  1.00  0.00     0.013 C
HETATM   45  C17 UNL     1      32.284  23.693  17.044  1.00  0.00     0.013 C
ENDBRANCH  42  43
ENDBRANCH   9  42
BRANCH  27  46
HETATM   46  O7  UNL     1      22.905  27.323  20.359  1.00  0.00    -0.348 OA
ATOM     47  H7  UNL     1      22.305  27.503  19.644  1.00  0.00     0.219 HD
ENDBRANCH  27  46
BRANCH  12  48
HETATM   48  O4  UNL     1      30.362  27.632  20.105  1.00  0.00    -0.348 OA
ATOM     49  H4  UNL     1      30.921  27.513  20.864  1.00  0.00     0.219 HD
ENDBRANCH  12  48
BRANCH  13  50
HETATM   50  C20 UNL     1      31.270  25.320  21.022  1.00  0.00     0.037 C
BRANCH  50  51
HETATM   51  C21 UNL     1      31.762  23.951  21.306  1.00  0.00    -0.020 C
HETATM   52  C22 UNL     1      31.408  22.901  20.309  1.00  0.00     0.009 C
HETATM   53  C23 UNL     1      31.302  23.478  22.671  1.00  0.00     0.009 C
ENDBRANCH  50  51
ENDBRANCH  13  50
BRANCH  18  54
HETATM   54  C26 UNL     1      27.661  21.809  20.399  1.00  0.00     0.012 C
BRANCH  54  55
HETATM   55  C27 UNL     1      27.639  20.679  19.494  1.00  0.00     0.002 C
HETATM   56  C28 UNL     1      26.388  19.987  19.096  1.00  0.00     0.013 C
HETATM   57  C29 UNL     1      28.500  19.554  20.167  1.00  0.00     0.013 C
ENDBRANCH  54  55
ENDBRANCH  18  54
TORSDOF 15
ENDMDL