MODEL 2
REMARK VINA RESULT: -8.794823335      1.101      1.501
REMARK  14 active torsions:
REMARK  status: ('A' for Active; 'I' for Inactive)
REMARK    1  A    between atoms: C5_5  and  C6_6
REMARK    2  A    between atoms: C6_6  and  N1_7
REMARK    3  A    between atoms: C7_9  and  O1_10
REMARK    4  A    between atoms: C7_9  and  C8_12
REMARK    5  A    between atoms: C8_12  and  C9_13
REMARK    6  A    between atoms: C9_13  and  C10_14
REMARK    7  A    between atoms: C12_19  and  C14_21
REMARK    8  A    between atoms: C14_21  and  C15_22
REMARK    9  A    between atoms: C15_22  and  C16_23
REMARK   10  A    between atoms: C16_23  and  C17_24
REMARK   11  A    between atoms: C17_24  and  N3_25
REMARK   12  A    between atoms: C23_39  and  C24_40
REMARK   13  A    between atoms: C24_40  and  C25_41
REMARK   14  A    between atoms: C29_48  and  C30_49
ROOT
HETATM    1  C10 UNL     1      14.425  21.298  16.402  1.00  0.00     0.177 C
HETATM    2  N2  UNL     1      15.149  22.044  17.409  1.00  0.00    -0.346 N
ATOM      3  H2  UNL     1      15.591  22.903  17.081  1.00  0.00     0.163 HD
HETATM    4  C11 UNL     1      15.332  21.761  18.763  1.00  0.00     0.246 C
HETATM    5  O2  UNL     1      14.902  22.626  19.584  1.00  0.00    -0.271 OA
HETATM    6  C12 UNL     1      15.992  20.528  19.347  1.00  0.00     0.110 C
HETATM    7  C13 UNL     1      15.792  20.594  20.842  1.00  0.00     0.049 C
HETATM    8  N4  UNL     1      15.512  19.306  18.757  1.00  0.00    -0.342 N
ATOM      9  H4  UNL     1      16.035  19.005  17.934  1.00  0.00     0.163 HD
HETATM   10  C18 UNL     1      14.457  18.457  19.109  1.00  0.00     0.241 C
HETATM   11  O3  UNL     1      14.760  17.237  19.433  1.00  0.00    -0.271 OA
HETATM   12  C19 UNL     1      13.009  18.744  19.167  1.00  0.00     0.174 C
HETATM   13  C20 UNL     1      12.568  19.445  20.443  1.00  0.00     0.042 C
HETATM   14  N5  UNL     1      12.226  17.495  19.201  1.00  0.00    -0.342 N
HETATM   15  C21 UNL     1      12.417  16.642  20.359  1.00  0.00     0.153 C
HETATM   16  C22 UNL     1      11.329  17.077  18.225  1.00  0.00     0.243 C
HETATM   17  O4  UNL     1      10.390  16.266  18.554  1.00  0.00    -0.271 OA
HETATM   18  C23 UNL     1      11.319  17.464  16.789  1.00  0.00     0.177 C
HETATM   19  N6  UNL     1      10.308  18.497  16.626  1.00  0.00    -0.346 N
ATOM     20  H6  UNL     1       9.536  18.544  17.291  1.00  0.00     0.163 HD
HETATM   21  C28 UNL     1      10.367  19.451  15.556  1.00  0.00     0.241 C
HETATM   22  O5  UNL     1       9.289  19.666  14.950  1.00  0.00    -0.271 OA
HETATM   23  C29 UNL     1      11.593  20.150  15.168  1.00  0.00     0.180 C
HETATM   24  N7  UNL     1      11.857  21.261  16.080  1.00  0.00    -0.346 N
ATOM     25  H7  UNL     1      11.091  21.570  16.680  1.00  0.00     0.163 HD
HETATM   26  C33 UNL     1      13.068  21.926  16.194  1.00  0.00     0.241 C
HETATM   27  O6  UNL     1      13.102  23.204  16.122  1.00  0.00    -0.271 OA
ENDROOT
BRANCH   1  28
HETATM   28  C9  UNL     1      15.110  21.468  15.062  1.00  0.00     0.043 C
BRANCH  28  29
HETATM   29  C8  UNL     1      16.424  22.189  15.121  1.00  0.00     0.086 C
BRANCH  29  30
HETATM   30  C7  UNL     1      16.269  23.425  14.315  1.00  0.00     0.111 C
HETATM   31  N1  UNL     1      16.532  24.571  14.832  1.00  0.00    -0.370 N
ATOM     32  H1  UNL     1      16.408  25.388  14.234  1.00  0.00     0.161 HD
BRANCH  31  33
HETATM   33  C6  UNL     1      16.983  24.809  16.176  1.00  0.00     0.160 C
BRANCH  33  34
HETATM   34  C5  UNL     1      18.330  25.489  16.172  1.00  0.00    -0.040 A
HETATM   35  C4  UNL     1      19.038  25.643  17.358  1.00  0.00     0.009 A
HETATM   36  C3  UNL     1      20.256  26.243  17.430  1.00  0.00     0.008 A
HETATM   37  C2  UNL     1      20.833  26.730  16.268  1.00  0.00    -0.056 A
HETATM   38  C1  UNL     1      22.164  27.391  16.318  1.00  0.00     0.049 C
HETATM   39  C35 UNL     1      20.158  26.593  15.075  1.00  0.00    -0.056 A
HETATM   40  C34 UNL     1      18.912  25.975  15.027  1.00  0.00     0.016 A
HETATM   41  C36 UNL     1      20.798  27.128  13.824  1.00  0.00     0.049 C
ENDBRANCH  33  34
ENDBRANCH  31  33
BRANCH  30  42
HETATM   42  O1  UNL     1      15.837  23.386  12.984  1.00  0.00    -0.350 OA
ATOM     43  H1  UNL     1      16.476  23.181  12.312  1.00  0.00     0.219 HD
ENDBRANCH  30  42
ENDBRANCH  29  30
ENDBRANCH  28  29
ENDBRANCH   1  28
BRANCH   6  44
HETATM   44  C14 UNL     1      17.484  20.678  19.104  1.00  0.00     0.041 C
BRANCH  44  45
HETATM   45  C15 UNL     1      18.267  21.560  19.954  1.00  0.00     0.004 C
BRANCH  45  46
HETATM   46  C16 UNL     1      18.768  22.862  19.462  1.00  0.00     0.027 C
BRANCH  46  47
HETATM   47  C17 UNL     1      18.571  23.957  20.548  1.00  0.00     0.229 C
BRANCH  47  48
HETATM   48  N3  UNL     1      17.206  24.443  20.461  1.00  0.00    -0.079 N
ATOM     49  H33 UNL     1      17.130  25.302  19.917  1.00  0.00     0.274 HD
ATOM     50  H32 UNL     1      16.616  23.854  19.875  1.00  0.00     0.274 HD
ATOM     51  H31 UNL     1      16.842  24.545  21.409  1.00  0.00     0.274 HD
ENDBRANCH  47  48
ENDBRANCH  46  47
ENDBRANCH  45  46
ENDBRANCH  44  45
ENDBRANCH   6  44
BRANCH  23  52
HETATM   52  C30 UNL     1      11.460  20.654  13.754  1.00  0.00     0.009 C
HETATM   53  C31 UNL     1      12.641  20.283  12.922  1.00  0.00     0.012 C
HETATM   54  C32 UNL     1      11.250  22.159  13.801  1.00  0.00     0.012 C
ENDBRANCH  23  52
BRANCH  18  55
HETATM   55  C24 UNL     1      10.843  16.299  15.929  1.00  0.00     0.038 C
BRANCH  55  56
HETATM   56  C25 UNL     1      11.004  16.534  14.464  1.00  0.00    -0.020 C
HETATM   57  C26 UNL     1       9.696  16.421  13.715  1.00  0.00     0.009 C
HETATM   58  C27 UNL     1      11.935  15.457  13.931  1.00  0.00     0.009 C
ENDBRANCH  55  56
ENDBRANCH  18  55
TORSDOF 14
ENDMDL