MODEL 3
REMARK VINA RESULT: -5.846719560     14.607     19.389
REMARK  15 active torsions:
REMARK  status: ('A' for Active; 'I' for Inactive)
REMARK    1  A    between atoms: C2_2  and  C4_4
REMARK    2  A    between atoms: C4_4  and  C5_5
REMARK    3  A    between atoms: C5_5  and  C6_6
REMARK    4  A    between atoms: C7_9  and  C8_10
REMARK    5  A    between atoms: C8_10  and  C9_11
REMARK    6  A    between atoms: C9_11  and  C10_12
REMARK    7  A    between atoms: C10_12  and  N2_13
REMARK    8  A    between atoms: C12_18  and  O1_19
REMARK    9  A    between atoms: C14_23  and  C15_24
REMARK   10  A    between atoms: C15_24  and  C16_25
REMARK   11  A    between atoms: C19_28  and  O2_29
REMARK   12  A    between atoms: C20_33  and  C21_34
REMARK   13  A    between atoms: C21_34  and  C22_35
REMARK   14  A    between atoms: C26_42  and  C27_43
REMARK   15  A    between atoms: C31_50  and  C32_51
ROOT
HETATM    1  C6  UNL     1      12.621  19.259  14.239  1.00  0.00     0.184 C
HETATM    2  N1  UNL     1      12.938  18.014  13.735  1.00  0.00    -0.368 N
ATOM      3  H1  UNL     1      13.888  17.779  14.023  1.00  0.00     0.161 HD
HETATM    4  C7  UNL     1      12.481  17.064  13.050  1.00  0.00     0.058 C
HETATM    5  C12 UNL     1      11.168  16.967  12.407  1.00  0.00     0.161 C
HETATM    6  N5  UNL     1       9.852  16.986  12.901  1.00  0.00    -0.349 N
HETATM    7  C13 UNL     1       9.008  18.103  12.407  1.00  0.00     0.153 C
HETATM    8  C14 UNL     1       9.228  16.033  13.810  1.00  0.00     0.183 C
HETATM    9  C19 UNL     1      10.150  15.531  14.879  1.00  0.00     0.139 C
HETATM   10  N6  UNL     1      10.548  16.120  16.054  1.00  0.00    -0.359 N
ATOM     11  H6  UNL     1      11.513  16.448  16.028  1.00  0.00     0.162 HD
HETATM   12  C20 UNL     1       9.894  16.377  17.326  1.00  0.00     0.175 C
HETATM   13  C25 UNL     1      10.821  15.749  18.335  1.00  0.00     0.241 C
HETATM   14  O3  UNL     1      11.087  14.524  18.057  1.00  0.00    -0.271 OA
HETATM   15  N7  UNL     1      11.369  16.353  19.452  1.00  0.00    -0.346 N
ATOM     16  H7  UNL     1      11.361  15.792  20.303  1.00  0.00     0.163 HD
HETATM   17  C26 UNL     1      11.954  17.673  19.580  1.00  0.00     0.180 C
HETATM   18  C30 UNL     1      13.146  17.892  18.741  1.00  0.00     0.241 C
HETATM   19  O4  UNL     1      14.176  17.185  19.004  1.00  0.00    -0.271 OA
HETATM   20  N8  UNL     1      13.299  18.792  17.676  1.00  0.00    -0.346 N
ATOM     21  H8  UNL     1      13.945  18.507  16.940  1.00  0.00     0.163 HD
HETATM   22  C31 UNL     1      12.654  20.073  17.494  1.00  0.00     0.180 C
HETATM   23  C35 UNL     1      11.593  20.019  16.466  1.00  0.00     0.242 C
HETATM   24  O5  UNL     1      10.504  20.629  16.809  1.00  0.00    -0.271 OA
HETATM   25  N9  UNL     1      11.588  19.426  15.213  1.00  0.00    -0.338 N
ATOM     26  H9  UNL     1      10.685  19.039  14.937  1.00  0.00     0.164 HD
ENDROOT
BRANCH   4  27
HETATM   27  C8  UNL     1      13.385  15.861  12.815  1.00  0.00     0.063 C
BRANCH  27  28
HETATM   28  C9  UNL     1      14.639  16.267  12.072  1.00  0.00     0.026 C
BRANCH  28  29
HETATM   29  C10 UNL     1      14.838  15.361  10.880  1.00  0.00     0.122 C
BRANCH  29  30
HETATM   30  N2  UNL     1      13.581  15.154  10.237  1.00  0.00    -0.367 N
HETATM   31  C11 UNL     1      13.349  15.047   8.990  1.00  0.00     0.196 C
HETATM   32  N3  UNL     1      14.358  15.118   7.970  1.00  0.00    -0.067 NA
HETATM   33  N4  UNL     1      12.006  14.846   8.583  1.00  0.00    -0.067 NA
ATOM     34  H2  UNL     1      12.770  15.083  10.852  1.00  0.00     0.161 HD
ENDBRANCH  29  30
ENDBRANCH  28  29
ENDBRANCH  27  28
ENDBRANCH   4  27
BRANCH   5  35
HETATM   35  O1  UNL     1      11.270  16.840  11.101  1.00  0.00    -0.345 OA
ATOM     36  H1  UNL     1      10.772  16.099  10.777  1.00  0.00     0.219 HD
ENDBRANCH   5  35
BRANCH   1  37
HETATM   37  C5  UNL     1      12.414  20.350  13.180  1.00  0.00     0.051 C
BRANCH  37  38
HETATM   38  C4  UNL     1      12.848  21.700  13.628  1.00  0.00     0.036 C
BRANCH  38  39
HETATM   39  C2  UNL     1      14.240  21.942  13.113  1.00  0.00    -0.093 C
HETATM   40  C1  UNL     1      14.659  21.385  11.989  1.00  0.00     0.014 C
HETATM   41  C3  UNL     1      15.187  22.817  13.859  1.00  0.00     0.042 C
ENDBRANCH  38  39
ENDBRANCH  37  38
ENDBRANCH   1  37
BRANCH   8  42
HETATM   42  C15 UNL     1       8.601  14.847  13.215  1.00  0.00     0.008 C
BRANCH  42  43
HETATM   43  C16 UNL     1       8.583  14.535  11.798  1.00  0.00    -0.089 C
HETATM   44  C17 UNL     1       9.676  13.618  11.297  1.00  0.00     0.042 C
HETATM   45  C18 UNL     1       7.239  14.191  11.194  1.00  0.00     0.042 C
ENDBRANCH  42  43
ENDBRANCH   8  42
BRANCH   9  46
HETATM   46  O2  UNL     1      10.633  14.342  14.619  1.00  0.00    -0.348 OA
ATOM     47  H2  UNL     1      10.945  13.892  15.395  1.00  0.00     0.219 HD
ENDBRANCH   9  46
BRANCH  22  48
HETATM   48  C32 UNL     1      13.629  21.215  17.298  1.00  0.00     0.009 C
HETATM   49  C33 UNL     1      13.943  21.897  18.618  1.00  0.00     0.012 C
HETATM   50  C34 UNL     1      14.983  20.650  16.837  1.00  0.00     0.012 C
ENDBRANCH  22  48
BRANCH  12  51
HETATM   51  C21 UNL     1       8.498  15.923  17.402  1.00  0.00     0.038 C
BRANCH  51  52
HETATM   52  C22 UNL     1       8.249  14.602  18.011  1.00  0.00    -0.020 C
HETATM   53  C23 UNL     1       7.044  14.805  18.972  1.00  0.00     0.009 C
HETATM   54  C24 UNL     1       7.868  13.464  17.143  1.00  0.00     0.009 C
ENDBRANCH  51  52
ENDBRANCH  12  51
BRANCH  17  55
HETATM   55  C27 UNL     1      12.203  17.922  21.064  1.00  0.00     0.009 C
HETATM   56  C28 UNL     1      13.101  19.079  21.344  1.00  0.00     0.012 C
HETATM   57  C29 UNL     1      12.615  16.692  21.820  1.00  0.00     0.012 C
ENDBRANCH  17  55
TORSDOF 15
ENDMDL