MODEL 3
REMARK VINA RESULT: -6.018532289      2.245      7.739
REMARK  18 active torsions:
REMARK  status: ('A' for Active; 'I' for Inactive)
REMARK    1  A    between atoms: C2_2  and  C3_3
REMARK    2  A    between atoms: C3_3  and  C4_4
REMARK    3  A    between atoms: C4_4  and  C5_5
REMARK    4  A    between atoms: C5_5  and  C6_6
REMARK    5  A    between atoms: C6_6  and  C7_7
REMARK    6  A    between atoms: C8_10  and  O1_11
REMARK    7  A    between atoms: C9_13  and  C10_14
REMARK    8  A    between atoms: C10_14  and  C11_15
REMARK    9  A    between atoms: C15_22  and  C16_23
REMARK   10  A    between atoms: C19_28  and  O3_29
REMARK   11  A    between atoms: C20_31  and  C21_32
REMARK   12  A    between atoms: C21_32  and  C22_33
REMARK   13  A    between atoms: C25_38  and  O4_39
REMARK   14  A    between atoms: C30_46  and  O5_47
REMARK   15  A    between atoms: N6_49  and  C31_50
REMARK   16  A    between atoms: C31_50  and  C32_51
REMARK   17  A    between atoms: C32_51  and  C34_53
REMARK   18  A    between atoms: C34_53  and  N7_54
ROOT
HETATM    1  C7  UNL     1      12.410  19.261  17.481  1.00  0.00     0.176 C
HETATM    2  N1  UNL     1      13.840  19.358  17.331  1.00  0.00    -0.359 N
ATOM      3  H1  UNL     1      14.127  19.394  16.353  1.00  0.00     0.162 HD
HETATM    4  C8  UNL     1      14.917  19.414  18.199  1.00  0.00     0.135 C
HETATM    5  C9  UNL     1      15.482  20.435  19.103  1.00  0.00     0.159 C
HETATM    6  N2  UNL     1      16.950  20.427  19.074  1.00  0.00    -0.347 N
ATOM      7  H2  UNL     1      17.384  19.519  18.902  1.00  0.00     0.163 HD
HETATM    8  C14 UNL     1      17.822  21.486  19.250  1.00  0.00     0.241 C
HETATM    9  O2  UNL     1      18.712  21.397  20.138  1.00  0.00    -0.271 OA
HETATM   10  C15 UNL     1      17.819  22.781  18.463  1.00  0.00     0.179 C
HETATM   11  N3  UNL     1      17.917  22.518  17.055  1.00  0.00    -0.359 N
ATOM     12  H3  UNL     1      18.874  22.501  16.701  1.00  0.00     0.162 HD
HETATM   13  C19 UNL     1      16.945  22.282  16.079  1.00  0.00     0.135 C
HETATM   14  C20 UNL     1      15.961  23.214  15.466  1.00  0.00     0.158 C
HETATM   15  N4  UNL     1      14.619  22.693  15.588  1.00  0.00    -0.361 N
ATOM     16  H4  UNL     1      14.387  22.349  16.520  1.00  0.00     0.162 HD
HETATM   17  C25 UNL     1      13.590  22.579  14.666  1.00  0.00     0.135 C
HETATM   18  C26 UNL     1      13.425  21.766  13.469  1.00  0.00     0.162 C
HETATM   19  C27 UNL     1      14.399  22.050  12.349  1.00  0.00     0.035 C
HETATM   20  C28 UNL     1      15.327  20.896  12.371  1.00  0.00     0.022 C
HETATM   21  C29 UNL     1      14.640  19.823  13.124  1.00  0.00     0.127 C
HETATM   22  N5  UNL     1      13.377  20.341  13.607  1.00  0.00    -0.335 N
HETATM   23  C30 UNL     1      12.290  19.554  14.085  1.00  0.00     0.225 C
HETATM   24  N6  UNL     1      11.351  19.804  15.118  1.00  0.00    -0.281 N
HETATM   25  C35 UNL     1      11.647  20.043  16.495  1.00  0.00     0.249 C
HETATM   26  O6  UNL     1      11.147  21.148  16.946  1.00  0.00    -0.271 OA
ENDROOT
BRANCH  24  27
HETATM   27  C31 UNL     1       9.920  19.868  14.717  1.00  0.00     0.141 C
BRANCH  27  28
HETATM   28  C32 UNL     1       9.404  18.571  14.175  1.00  0.00     0.025 C
HETATM   29  C33 UNL     1       9.354  17.483  15.201  1.00  0.00     0.013 C
BRANCH  28  30
HETATM   30  C34 UNL     1       7.965  18.738  13.669  1.00  0.00     0.235 C
BRANCH  30  31
HETATM   31  N7  UNL     1       7.040  18.472  14.750  1.00  0.00    -0.079 N
ATOM     32  H73 UNL     1       6.661  17.527  14.709  1.00  0.00     0.274 HD
ATOM     33  H72 UNL     1       7.511  18.402  15.652  1.00  0.00     0.274 HD
ATOM     34  H71 UNL     1       6.307  19.181  14.752  1.00  0.00     0.274 HD
ENDBRANCH  30  31
ENDBRANCH  28  30
ENDBRANCH  27  28
ENDBRANCH  24  27
BRANCH  23  35
HETATM   35  O5  UNL     1      12.084  18.396  13.500  1.00  0.00    -0.332 OA
ATOM     36  H5  UNL     1      11.237  18.260  13.094  1.00  0.00     0.221 HD
ENDBRANCH  23  35
BRANCH   1  37
HETATM   37  C6  UNL     1      11.990  19.634  18.898  1.00  0.00     0.035 C
BRANCH  37  38
HETATM   38  C5  UNL     1      11.471  18.516  19.706  1.00  0.00     0.002 C
BRANCH  38  39
HETATM   39  C4  UNL     1      11.767  17.200  18.982  1.00  0.00     0.000 C
BRANCH  39  40
HETATM   40  C3  UNL     1      10.515  16.487  18.538  1.00  0.00    -0.000 C
BRANCH  40  41
HETATM   41  C2  UNL     1      10.947  15.286  17.693  1.00  0.00    -0.005 C
HETATM   42  C1  UNL     1       9.997  14.140  17.958  1.00  0.00     0.005 C
ENDBRANCH  40  41
ENDBRANCH  39  40
ENDBRANCH  38  39
ENDBRANCH  37  38
ENDBRANCH   1  37
BRANCH  17  43
HETATM   43  O4  UNL     1      12.563  23.358  14.929  1.00  0.00    -0.348 OA
ATOM     44  H4  UNL     1      12.072  23.088  15.696  1.00  0.00     0.219 HD
ENDBRANCH  17  43
BRANCH   4  45
HETATM   45  O1  UNL     1      15.655  18.318  18.271  1.00  0.00    -0.348 OA
ATOM     46  H1  UNL     1      15.176  17.508  18.399  1.00  0.00     0.219 HD
ENDBRANCH   4  45
BRANCH   5  47
HETATM   47  C10 UNL     1      15.054  20.386  20.521  1.00  0.00     0.037 C
BRANCH  47  48
HETATM   48  C11 UNL     1      14.632  19.109  21.120  1.00  0.00    -0.020 C
HETATM   49  C12 UNL     1      15.705  18.143  21.530  1.00  0.00     0.009 C
HETATM   50  C13 UNL     1      13.903  19.474  22.434  1.00  0.00     0.009 C
ENDBRANCH  47  48
ENDBRANCH   5  47
BRANCH  14  51
HETATM   51  C21 UNL     1      16.145  24.591  15.978  1.00  0.00     0.037 C
BRANCH  51  52
HETATM   52  C22 UNL     1      16.862  25.568  15.107  1.00  0.00    -0.020 C
HETATM   53  C23 UNL     1      18.237  25.830  15.730  1.00  0.00     0.009 C
HETATM   54  C24 UNL     1      16.999  25.164  13.673  1.00  0.00     0.009 C
ENDBRANCH  51  52
ENDBRANCH  14  51
BRANCH  13  55
HETATM   55  O3  UNL     1      16.889  21.050  15.628  1.00  0.00    -0.348 OA
ATOM     56  H3  UNL     1      16.051  20.788  15.264  1.00  0.00     0.219 HD
ENDBRANCH  13  55
BRANCH  10  57
HETATM   57  C16 UNL     1      19.075  23.556  18.913  1.00  0.00     0.009 C
HETATM   58  C17 UNL     1      18.781  24.574  19.966  1.00  0.00     0.012 C
HETATM   59  C18 UNL     1      19.739  24.251  17.736  1.00  0.00     0.012 C
ENDBRANCH  10  57
TORSDOF 18
ENDMDL