MODEL 4
REMARK VINA RESULT: -5.058733896      2.089      8.400
REMARK  13 active torsions:
REMARK  status: ('A' for Active; 'I' for Inactive)
REMARK    1  A    between atoms: C2_2  and  C3_3
REMARK    2  A    between atoms: C3_3  and  C4_4
REMARK    3  A    between atoms: C4_4  and  N1_5
REMARK    4  A    between atoms: C6_8  and  C7_9
REMARK    5  A    between atoms: C11_16  and  C12_17
REMARK    6  A    between atoms: C12_17  and  C13_18
REMARK    7  A    between atoms: C16_23  and  O3_24
REMARK    8  A    between atoms: C17_26  and  C18_27
REMARK    9  A    between atoms: C22_34  and  C23_35
REMARK   10  A    between atoms: C27_42  and  C28_43
REMARK   11  A    between atoms: C28_43  and  C30_45
REMARK   12  A    between atoms: C33_51  and  C34_52
REMARK   13  A    between atoms: C34_52  and  N7_54
ROOT
HETATM    1  N1  UNL     1      26.624  24.662  22.335  1.00  0.00    -0.335 N
HETATM    2  C5  UNL     1      25.654  24.496  21.282  1.00  0.00     0.243 C
HETATM    3  O1  UNL     1      24.463  24.812  21.496  1.00  0.00    -0.271 OA
HETATM    4  C6  UNL     1      25.959  23.979  19.957  1.00  0.00     0.180 C
HETATM    5  N2  UNL     1      24.946  24.142  18.947  1.00  0.00    -0.346 N
ATOM      6  H2  UNL     1      25.102  23.577  18.112  1.00  0.00     0.163 HD
HETATM    7  C10 UNL     1      23.798  24.921  18.892  1.00  0.00     0.241 C
HETATM    8  O2  UNL     1      22.692  24.251  19.012  1.00  0.00    -0.271 OA
HETATM    9  C11 UNL     1      23.597  26.362  18.722  1.00  0.00     0.175 C
HETATM   10  N3  UNL     1      24.718  27.225  18.934  1.00  0.00    -0.359 N
ATOM     11  H3  UNL     1      24.789  27.551  19.898  1.00  0.00     0.162 HD
HETATM   12  C16 UNL     1      25.736  27.721  18.116  1.00  0.00     0.135 C
HETATM   13  C17 UNL     1      26.911  27.052  17.506  1.00  0.00     0.162 C
HETATM   14  N4  UNL     1      28.042  27.915  17.258  1.00  0.00    -0.347 N
ATOM     15  H4  UNL     1      28.203  28.119  16.272  1.00  0.00     0.163 HD
HETATM   16  C21 UNL     1      28.951  28.518  18.121  1.00  0.00     0.241 C
HETATM   17  O4  UNL     1      30.205  28.317  17.910  1.00  0.00    -0.271 OA
HETATM   18  C22 UNL     1      28.708  29.389  19.287  1.00  0.00     0.180 C
HETATM   19  N5  UNL     1      29.680  29.339  20.329  1.00  0.00    -0.342 N
ATOM     20  H5  UNL     1      29.575  30.099  21.002  1.00  0.00     0.163 HD
HETATM   21  C26 UNL     1      30.737  28.492  20.640  1.00  0.00     0.265 C
HETATM   22  O5  UNL     1      31.901  29.043  20.578  1.00  0.00    -0.266 OA
HETATM   23  C27 UNL     1      30.676  27.064  21.027  1.00  0.00     0.084 C
HETATM   24  N6  UNL     1      29.699  26.404  21.370  1.00  0.00    -0.324 N
ATOM     25  H6  UNL     1      30.097  25.482  21.543  1.00  0.00     0.169 HD
HETATM   26  C32 UNL     1      28.395  26.223  21.643  1.00  0.00     0.247 C
HETATM   27  O6  UNL     1      27.391  26.996  21.623  1.00  0.00    -0.271 OA
HETATM   28  C33 UNL     1      28.008  24.799  22.072  1.00  0.00     0.209 C
ENDROOT
BRANCH  28  29
HETATM   29  C34 UNL     1      28.983  24.353  23.085  1.00  0.00     0.211 C
HETATM   30  C35 UNL     1      28.982  22.888  23.382  1.00  0.00     0.042 C
BRANCH  29  31
HETATM   31  N7  UNL     1      29.053  25.141  24.293  1.00  0.00    -0.073 N
ATOM     32  H73 UNL     1      29.962  25.599  24.356  1.00  0.00     0.274 HD
ATOM     33  H72 UNL     1      28.443  25.954  24.210  1.00  0.00     0.274 HD
ATOM     34  H71 UNL     1      28.853  24.648  25.163  1.00  0.00     0.274 HD
ENDBRANCH  29  31
ENDBRANCH  28  29
BRANCH   1  35
HETATM   35  C4  UNL     1      26.083  24.658  23.677  1.00  0.00     0.127 C
BRANCH  35  36
HETATM   36  C3  UNL     1      25.743  26.003  24.231  1.00  0.00     0.020 C
BRANCH  36  37
HETATM   37  C2  UNL     1      25.462  25.923  25.739  1.00  0.00    -0.003 C
HETATM   38  C1  UNL     1      24.238  26.740  26.086  1.00  0.00     0.005 C
ENDBRANCH  36  37
ENDBRANCH  35  36
ENDBRANCH   1  35
BRANCH   4  39
HETATM   39  C7  UNL     1      26.142  22.456  20.140  1.00  0.00     0.009 C
HETATM   40  C8  UNL     1      27.566  22.044  19.967  1.00  0.00     0.012 C
HETATM   41  C9  UNL     1      25.274  21.702  19.159  1.00  0.00     0.012 C
ENDBRANCH   4  39
BRANCH  23  42
HETATM   42  C28 UNL     1      32.010  26.343  21.003  1.00  0.00     0.037 C
HETATM   43  C29 UNL     1      31.988  25.463  19.772  1.00  0.00     0.016 C
BRANCH  42  44
HETATM   44  C30 UNL     1      32.284  25.583  22.264  1.00  0.00     0.006 C
HETATM   45  C31 UNL     1      32.254  26.557  23.452  1.00  0.00     0.006 C
ENDBRANCH  42  44
ENDBRANCH  23  42
BRANCH   9  46
HETATM   46  C12 UNL     1      22.807  26.642  17.492  1.00  0.00     0.038 C
BRANCH  46  47
HETATM   47  C13 UNL     1      21.443  27.200  17.626  1.00  0.00    -0.020 C
HETATM   48  C14 UNL     1      21.111  27.329  19.141  1.00  0.00     0.009 C
HETATM   49  C15 UNL     1      20.434  26.211  17.085  1.00  0.00     0.009 C
ENDBRANCH  46  47
ENDBRANCH   9  46
BRANCH  18  50
HETATM   50  C23 UNL     1      28.664  30.869  18.829  1.00  0.00     0.009 C
HETATM   51  C24 UNL     1      27.482  31.535  19.425  1.00  0.00     0.012 C
HETATM   52  C25 UNL     1      29.978  31.530  19.155  1.00  0.00     0.012 C
ENDBRANCH  18  50
BRANCH  12  53
HETATM   53  O3  UNL     1      25.733  28.988  17.781  1.00  0.00    -0.348 OA
ATOM     54  H3  UNL     1      26.165  29.620  18.343  1.00  0.00     0.219 HD
ENDBRANCH  12  53
BRANCH  13  55
HETATM   55  C18 UNL     1      26.413  26.483  16.171  1.00  0.00     0.008 C
HETATM   56  C19 UNL     1      27.581  25.865  15.405  1.00  0.00     0.012 C
HETATM   57  C20 UNL     1      25.816  27.543  15.304  1.00  0.00     0.012 C
ENDBRANCH  13  55
TORSDOF 13
ENDMDL