MODEL 4
REMARK VINA RESULT: -5.950334624      1.248      1.612
REMARK  15 active torsions:
REMARK  status: ('A' for Active; 'I' for Inactive)
REMARK    1  A    between atoms: C2_2  and  C4_4
REMARK    2  A    between atoms: C4_4  and  C5_5
REMARK    3  A    between atoms: C6_8  and  O1_9
REMARK    4  A    between atoms: C7_11  and  C8_12
REMARK    5  A    between atoms: C8_12  and  C9_13
REMARK    6  A    between atoms: C17_27  and  C18_28
REMARK    7  A    between atoms: C18_28  and  C19_29
REMARK    8  A    between atoms: C23_36  and  C24_37
REMARK    9  A    between atoms: C24_37  and  C25_38
REMARK   10  A    between atoms: C25_38  and  C26_39
REMARK   11  A    between atoms: C26_39  and  C27_40
REMARK   12  A    between atoms: C27_40  and  N5_41
REMARK   13  A    between atoms: C30_49  and  C31_50
REMARK   14  A    between atoms: C31_50  and  C32_51
REMARK   15  A    between atoms: C35_56  and  O6_57
ROOT
HETATM    1  C5  UNL     1      24.723  27.149  17.044  1.00  0.00     0.158 C
HETATM    2  N1  UNL     1      24.977  27.499  18.430  1.00  0.00    -0.361 N
ATOM      3  H1  UNL     1      25.080  28.495  18.625  1.00  0.00     0.162 HD
HETATM    4  C6  UNL     1      25.098  26.643  19.539  1.00  0.00     0.135 C
HETATM    5  C7  UNL     1      24.107  25.703  20.092  1.00  0.00     0.159 C
HETATM    6  N2  UNL     1      23.864  24.524  19.299  1.00  0.00    -0.347 N
ATOM      7  H2  UNL     1      23.179  24.641  18.553  1.00  0.00     0.163 HD
HETATM    8  C12 UNL     1      24.420  23.243  19.392  1.00  0.00     0.246 C
HETATM    9  O2  UNL     1      23.581  22.277  19.531  1.00  0.00    -0.271 OA
HETATM   10  C13 UNL     1      25.839  22.839  19.351  1.00  0.00     0.106 C
HETATM   11  C14 UNL     1      25.921  21.303  19.347  1.00  0.00     0.048 C
HETATM   12  C15 UNL     1      26.434  23.261  18.030  1.00  0.00     0.048 C
HETATM   13  N3  UNL     1      26.571  23.268  20.489  1.00  0.00    -0.342 N
ATOM     14  H3  UNL     1      25.995  23.651  21.238  1.00  0.00     0.163 HD
HETATM   15  C16 UNL     1      27.934  23.258  20.765  1.00  0.00     0.241 C
HETATM   16  O3  UNL     1      28.291  22.870  21.945  1.00  0.00    -0.271 OA
HETATM   17  C17 UNL     1      29.072  23.630  19.910  1.00  0.00     0.177 C
HETATM   18  N4  UNL     1      29.491  24.995  20.187  1.00  0.00    -0.346 N
ATOM     19  H4  UNL     1      29.347  25.326  21.141  1.00  0.00     0.163 HD
HETATM   20  C22 UNL     1      30.073  25.914  19.290  1.00  0.00     0.241 C
HETATM   21  O4  UNL     1      31.252  26.303  19.643  1.00  0.00    -0.271 OA
HETATM   22  C23 UNL     1      29.538  26.470  18.052  1.00  0.00     0.178 C
HETATM   23  N6  UNL     1      29.995  27.785  17.679  1.00  0.00    -0.341 N
HETATM   24  C28 UNL     1      31.313  28.237  18.021  1.00  0.00     0.153 C
HETATM   25  C29 UNL     1      29.138  28.689  16.927  1.00  0.00     0.243 C
HETATM   26  O5  UNL     1      29.688  29.392  16.016  1.00  0.00    -0.271 OA
HETATM   27  C30 UNL     1      27.698  28.845  17.134  1.00  0.00     0.176 C
HETATM   28  N7  UNL     1      26.931  28.106  16.111  1.00  0.00    -0.359 N
ATOM     29  H7  UNL     1      27.138  28.353  15.143  1.00  0.00     0.162 HD
HETATM   30  C35 UNL     1      25.974  27.127  16.281  1.00  0.00     0.135 C
ENDROOT
BRANCH  22  31
HETATM   31  C24 UNL     1      29.636  25.580  16.840  1.00  0.00     0.035 C
BRANCH  31  32
HETATM   32  C25 UNL     1      30.895  24.804  16.691  1.00  0.00     0.004 C
BRANCH  32  33
HETATM   33  C26 UNL     1      31.630  25.180  15.397  1.00  0.00     0.027 C
BRANCH  33  34
HETATM   34  C27 UNL     1      30.634  26.010  14.589  1.00  0.00     0.229 C
BRANCH  34  35
HETATM   35  N5  UNL     1      31.205  27.291  14.222  1.00  0.00    -0.079 N
ATOM     36  H53 UNL     1      32.068  27.479  14.732  1.00  0.00     0.274 HD
ATOM     37  H52 UNL     1      31.585  27.276  13.276  1.00  0.00     0.274 HD
ATOM     38  H51 UNL     1      30.524  28.041  14.343  1.00  0.00     0.274 HD
ENDBRANCH  34  35
ENDBRANCH  33  34
ENDBRANCH  32  33
ENDBRANCH  31  32
ENDBRANCH  22  31
BRANCH  17  39
HETATM   39  C18 UNL     1      30.220  22.669  20.279  1.00  0.00     0.038 C
BRANCH  39  40
HETATM   40  C19 UNL     1      30.627  21.771  19.176  1.00  0.00    -0.020 C
HETATM   41  C20 UNL     1      30.047  20.383  19.521  1.00  0.00     0.009 C
HETATM   42  C21 UNL     1      32.143  21.532  19.146  1.00  0.00     0.009 C
ENDBRANCH  39  40
ENDBRANCH  17  39
BRANCH  27  43
HETATM   43  C31 UNL     1      27.214  30.247  17.125  1.00  0.00     0.038 C
BRANCH  43  44
HETATM   44  C32 UNL     1      26.413  30.751  16.015  1.00  0.00    -0.020 C
HETATM   45  C33 UNL     1      27.355  31.630  15.125  1.00  0.00     0.009 C
HETATM   46  C34 UNL     1      25.256  31.601  16.386  1.00  0.00     0.009 C
ENDBRANCH  43  44
ENDBRANCH  27  43
BRANCH  30  47
HETATM   47  O6  UNL     1      26.214  26.000  15.669  1.00  0.00    -0.348 OA
ATOM     48  H6  UNL     1      26.727  25.379  16.173  1.00  0.00     0.219 HD
ENDBRANCH  30  47
BRANCH   1  49
HETATM   49  C4  UNL     1      23.659  28.069  16.561  1.00  0.00     0.037 C
BRANCH  49  50
HETATM   50  C2  UNL     1      22.352  27.543  16.177  1.00  0.00    -0.020 C
HETATM   51  C1  UNL     1      21.583  26.797  17.214  1.00  0.00     0.009 C
HETATM   52  C3  UNL     1      22.343  26.768  14.888  1.00  0.00     0.009 C
ENDBRANCH  49  50
ENDBRANCH   1  49
BRANCH   4  53
HETATM   53  O1  UNL     1      26.254  26.722  20.130  1.00  0.00    -0.348 OA
ATOM     54  H1  UNL     1      26.927  27.125  19.593  1.00  0.00     0.219 HD
ENDBRANCH   4  53
BRANCH   5  55
HETATM   55  C8  UNL     1      22.754  26.418  20.315  1.00  0.00     0.037 C
BRANCH  55  56
HETATM   56  C9  UNL     1      22.003  25.836  21.486  1.00  0.00    -0.020 C
HETATM   57  C10 UNL     1      20.594  25.435  21.085  1.00  0.00     0.009 C
HETATM   58  C11 UNL     1      21.955  26.812  22.653  1.00  0.00     0.009 C
ENDBRANCH  55  56
ENDBRANCH   5  55
TORSDOF 15
ENDMDL