MODEL 1
REMARK VINA RESULT: -5.715777398      0.000      0.000
REMARK  6 active torsions:
REMARK  status: ('A' for Active; 'I' for Inactive)
REMARK    1  A    between atoms: C2_2  and  C3_3
REMARK    2  A    between atoms: C3_3  and  O1_4
REMARK    3  A    between atoms: O1_4  and  C4_5
REMARK    4  A    between atoms: C4_5  and  C6_7
REMARK    5  A    between atoms: C6_7  and  C7_8
REMARK    6  A    between atoms: C7_8  and  C8_9
ROOT
HETATM    1  C7  UNL     1      20.568  -3.180  -3.237  1.00  0.00     0.061 C
ENDROOT
BRANCH   1   2
HETATM    2  C6  UNL     1      19.594  -3.087  -4.405  1.00  0.00     0.037 C
BRANCH   2   3
HETATM    3  C4  UNL     1      18.220  -2.702  -3.901  1.00  0.00     0.118 C
HETATM    4  C5  UNL     1      18.135  -1.207  -3.891  1.00  0.00     0.039 C
BRANCH   3   5
HETATM    5  O1  UNL     1      17.984  -3.287  -2.680  1.00  0.00    -0.383 OA
BRANCH   5   6
HETATM    6  C3  UNL     1      16.926  -2.733  -1.982  1.00  0.00     0.194 C
BRANCH   6   7
HETATM    7  C2  UNL     1      16.194  -3.789  -1.231  1.00  0.00    -0.011 C
HETATM    8  C1  UNL     1      16.764  -4.952  -0.922  1.00  0.00     0.009 C
ENDBRANCH   6   7
ENDBRANCH   5   6
ENDBRANCH   3   5
ENDBRANCH   2   3
ENDBRANCH   1   2
BRANCH   1   9
HETATM    9  C8  UNL     1      21.840  -2.568  -3.704  1.00  0.00     0.025 A
HETATM   10  C9  UNL     1      22.044  -1.473  -4.515  1.00  0.00     0.114 A
HETATM   11  N1  UNL     1      23.361  -1.259  -4.688  1.00  0.00    -0.360 N
HETATM   12  C10 UNL     1      23.989  -2.214  -3.988  1.00  0.00     0.180 A
ATOM     13  H1  UNL     1      23.793  -0.518  -5.240  1.00  0.00     0.166 HD
HETATM   14  N2  UNL     1      23.087  -3.008  -3.391  1.00  0.00    -0.355 N
ATOM     15  H2  UNL     1      23.303  -3.810  -2.799  1.00  0.00     0.166 HD
ENDBRANCH   1   9
TORSDOF 6
ENDMDL