MODEL 1
REMARK VINA RESULT: -5.771063264      0.000      0.000
REMARK  6 active torsions:
REMARK  status: ('A' for Active; 'I' for Inactive)
REMARK    1  A    between atoms: C2_2  and  C3_3
REMARK    2  A    between atoms: C3_3  and  N1_4
REMARK    3  A    between atoms: N1_4  and  C5_6
REMARK    4  A    between atoms: C5_6  and  C6_7
REMARK    5  A    between atoms: C6_7  and  N2_8
REMARK    6  A    between atoms: N2_8  and  C7_10
ROOT
HETATM    1  C6  UNL     1      15.312  -9.260  -1.333  1.00  0.00     0.159 C
ENDROOT
BRANCH   1   2
HETATM    2  C5  UNL     1      15.062  -7.817  -1.046  1.00  0.00     0.081 C
BRANCH   2   3
HETATM    3  N1  UNL     1      14.771  -6.982  -2.139  1.00  0.00    -0.377 N
HETATM    4  C4  UNL     1      15.312  -5.684  -2.194  1.00  0.00     0.154 C
BRANCH   3   5
HETATM    5  C3  UNL     1      13.571  -7.221  -2.820  1.00  0.00     0.062 C
BRANCH   5   6
HETATM    6  C2  UNL     1      12.464  -6.246  -2.721  1.00  0.00     0.040 C
HETATM    7  C1  UNL     1      11.761  -5.907  -4.012  1.00  0.00     0.010 C
ENDBRANCH   5   6
ENDBRANCH   3   5
ENDBRANCH   2   3
ENDBRANCH   1   2
BRANCH   1   8
HETATM    8  N2  UNL     1      14.680 -10.195  -0.482  1.00  0.00    -0.413 N
ATOM      9  H2  UNL     1      13.773 -10.589  -0.733  1.00  0.00     0.153 HD
BRANCH   8  10
HETATM   10  C7  UNL     1      15.312 -10.576   0.712  1.00  0.00     0.076 C
HETATM   11  C8  UNL     1      15.672 -12.003   0.893  1.00  0.00     0.024 C
HETATM   12  C9  UNL     1      15.665 -12.118   2.428  1.00  0.00     0.002 C
HETATM   13  C10 UNL     1      14.282 -11.508   2.700  1.00  0.00     0.002 C
HETATM   14  C11 UNL     1      14.382 -10.238   1.883  1.00  0.00     0.024 C
ENDBRANCH   8  10
ENDBRANCH   1   8
TORSDOF 6
ENDMDL