MODEL 3
REMARK VINA RESULT: -5.615433968      2.418      6.662
REMARK  7 active torsions:
REMARK  status: ('A' for Active; 'I' for Inactive)
REMARK    1  A    between atoms: C3_3  and  O1_4
REMARK    2  A    between atoms: O1_4  and  C4_5
REMARK    3  A    between atoms: C4_5  and  C5_6
REMARK    4  A    between atoms: C5_6  and  N1_7
REMARK    5  A    between atoms: N1_7  and  C6_9
REMARK    6  A    between atoms: C6_9  and  C7_10
REMARK    7  A    between atoms: C7_10  and  C8_11
ROOT
HETATM    1  C5  UNL     1      15.328  -8.925  -1.153  1.00  0.00     0.140 C
ENDROOT
BRANCH   1   2
HETATM    2  C4  UNL     1      16.244  -8.951   0.078  1.00  0.00     0.187 C
BRANCH   2   3
HETATM    3  O1  UNL     1      15.571  -9.505   1.085  1.00  0.00    -0.384 OA
BRANCH   3   4
HETATM    4  C3  UNL     1      15.031 -10.715   1.015  1.00  0.00     0.121 C
HETATM    5  C2  UNL     1      15.812 -11.962   1.120  1.00  0.00     0.032 C
HETATM    6  C1  UNL     1      15.498 -12.060   2.619  1.00  0.00     0.005 C
HETATM    7  C11 UNL     1      14.356 -11.098   2.343  1.00  0.00     0.032 C
ENDBRANCH   3   4
ENDBRANCH   2   3
ENDBRANCH   1   2
BRANCH   1   8
HETATM    8  N1  UNL     1      14.645  -7.683  -1.292  1.00  0.00    -0.419 N
ATOM      9  H1  UNL     1      14.149  -7.249  -0.513  1.00  0.00     0.153 HD
BRANCH   8  10
HETATM   10  C6  UNL     1      14.695  -7.080  -2.586  1.00  0.00     0.114 C
BRANCH  10  11
HETATM   11  C7  UNL     1      14.475  -5.592  -2.453  1.00  0.00     0.024 C
BRANCH  11  12
HETATM   12  C8  UNL     1      15.784  -4.832  -2.420  1.00  0.00    -0.013 A
HETATM   13  C9  UNL     1      16.530  -4.645  -1.176  1.00  0.00     0.005 A
HETATM   14  C10 UNL     1      15.708  -3.459  -1.721  1.00  0.00     0.005 A
ENDBRANCH  11  12
ENDBRANCH  10  11
ENDBRANCH   8  10
ENDBRANCH   1   8
TORSDOF 7
ENDMDL