MODEL 3
REMARK VINA RESULT: -5.549702917      3.472      6.699
REMARK  7 active torsions:
REMARK  status: ('A' for Active; 'I' for Inactive)
REMARK    1  A    between atoms: C2_2  and  C3_3
REMARK    2  A    between atoms: C3_3  and  C4_4
REMARK    3  A    between atoms: C3_3  and  C7_10
REMARK    4  A    between atoms: C4_4  and  C5_5
REMARK    5  A    between atoms: C5_5  and  N1_6
REMARK    6  A    between atoms: C7_10  and  O1_11
REMARK    7  A    between atoms: O1_11  and  C8_12
ROOT
HETATM    1  C3  UNL     1      15.470  -3.477  -2.328  1.00  0.00     0.010 C
ENDROOT
BRANCH   1   2
HETATM    2  C2  UNL     1      16.183  -3.687  -0.963  1.00  0.00     0.002 C
HETATM    3  C1  UNL     1      16.876  -4.991  -0.852  1.00  0.00     0.005 C
ENDBRANCH   1   2
BRANCH   1   4
HETATM    4  C4  UNL     1      15.621  -4.764  -3.087  1.00  0.00     0.034 C
BRANCH   4   5
HETATM    5  C5  UNL     1      14.447  -5.211  -3.857  1.00  0.00     0.232 C
BRANCH   5   6
HETATM    6  N1  UNL     1      13.497  -5.782  -2.902  1.00  0.00    -0.079 N
HETATM    7  C6  UNL     1      12.211  -6.015  -3.522  1.00  0.00     0.266 C
ATOM      8  H12 UNL     1      13.863  -6.629  -2.469  1.00  0.00     0.276 HD
ATOM      9  H11 UNL     1      13.411  -5.203  -2.067  1.00  0.00     0.276 HD
ENDBRANCH   5   6
ENDBRANCH   4   5
ENDBRANCH   1   4
BRANCH   1  10
HETATM   10  C7  UNL     1      16.107  -2.325  -3.014  1.00  0.00     0.172 C
BRANCH  10  11
HETATM   11  O1  UNL     1      17.077  -2.565  -3.936  1.00  0.00    -0.386 OA
BRANCH  11  12
HETATM   12  C8  UNL     1      18.289  -2.033  -3.501  1.00  0.00     0.121 A
HETATM   13  C9  UNL     1      19.239  -3.201  -3.123  1.00  0.00     0.032 A
HETATM   14  C10 UNL     1      20.159  -2.810  -4.245  1.00  0.00     0.005 A
HETATM   15  C11 UNL     1      19.276  -1.637  -4.520  1.00  0.00     0.032 A
ENDBRANCH  11  12
ENDBRANCH  10  11
ENDBRANCH   1  10
TORSDOF 7
ENDMDL