MODEL 2
REMARK VINA RESULT: -5.638443951      5.535      7.668
REMARK  6 active torsions:
REMARK  status: ('A' for Active; 'I' for Inactive)
REMARK    1  A    between atoms: O1_2  and  C2_3
REMARK    2  A    between atoms: C2_3  and  C3_4
REMARK    3  A    between atoms: C3_4  and  N1_6
REMARK    4  A    between atoms: N1_6  and  C5_8
REMARK    5  A    between atoms: C5_8  and  C7_10
REMARK    6  A    between atoms: C7_10  and  C8_11
ROOT
HETATM    1  N1  UNL     1      15.192  -3.957  -2.429  1.00  0.00    -0.412 N
ATOM      2  H1  UNL     1      14.473  -3.252  -2.590  1.00  0.00     0.154 HD
ENDROOT
BRANCH   1   3
HETATM    3  C3  UNL     1      15.094  -5.146  -3.125  1.00  0.00     0.096 C
HETATM    4  C4  UNL     1      15.259  -4.851  -4.634  1.00  0.00     0.034 C
BRANCH   3   5
HETATM    5  C2  UNL     1      13.837  -5.953  -3.020  1.00  0.00     0.191 C
BRANCH   5   6
HETATM    6  O1  UNL     1      13.098  -5.863  -4.234  1.00  0.00    -0.394 OA
HETATM    7  C1  UNL     1      11.731  -5.921  -3.956  1.00  0.00     0.201 C
ENDBRANCH   5   6
ENDBRANCH   3   5
ENDBRANCH   1   3
BRANCH   1   8
HETATM    8  C5  UNL     1      16.223  -3.649  -1.506  1.00  0.00     0.073 C
HETATM    9  C6  UNL     1      16.798  -4.849  -0.911  1.00  0.00     0.032 C
BRANCH   8  10
HETATM   10  C7  UNL     1      17.105  -2.640  -2.127  1.00  0.00     0.029 C
BRANCH  10  11
HETATM   11  C8  UNL     1      18.033  -2.874  -3.181  1.00  0.00    -0.013 C
HETATM   12  C9  UNL     1      19.449  -3.341  -2.905  1.00  0.00     0.005 C
HETATM   13  C10 UNL     1      19.656  -2.979  -4.397  1.00  0.00     0.001 C
HETATM   14  C11 UNL     1      18.658  -1.845  -4.045  1.00  0.00     0.005 C
ENDBRANCH  10  11
ENDBRANCH   8  10
ENDBRANCH   1   8
TORSDOF 6
ENDMDL