MODEL 1
REMARK VINA RESULT: -5.695247923      0.000      0.000
REMARK  7 active torsions:
REMARK  status: ('A' for Active; 'I' for Inactive)
REMARK    1  A    between atoms: C3_3  and  C4_4
REMARK    2  A    between atoms: C4_4  and  C5_5
REMARK    3  A    between atoms: C5_5  and  O1_6
REMARK    4  A    between atoms: O1_6  and  C6_7
REMARK    5  A    between atoms: C6_7  and  C7_8
REMARK    6  A    between atoms: C7_8  and  N1_9
REMARK    7  A    between atoms: N1_9  and  C8_12
ROOT
HETATM    1  C6  UNL     1      15.061  -8.075  -0.919  1.00  0.00     0.195 C
ENDROOT
BRANCH   1   2
HETATM    2  O1  UNL     1      15.457  -9.382  -0.993  1.00  0.00    -0.389 OA
BRANCH   2   3
HETATM    3  C5  UNL     1      16.546  -9.697  -0.191  1.00  0.00     0.168 C
BRANCH   3   4
HETATM    4  C4  UNL     1      16.299 -11.010   0.478  1.00  0.00     0.031 C
BRANCH   4   5
HETATM    5  C3  UNL     1      14.997 -11.217   1.152  1.00  0.00    -0.013 C
HETATM    6  C2  UNL     1      15.140 -12.494   2.041  1.00  0.00     0.005 C
HETATM    7  C1  UNL     1      15.503 -11.548   3.194  1.00  0.00     0.001 C
HETATM    8  C11 UNL     1      14.715 -10.492   2.412  1.00  0.00     0.005 C
ENDBRANCH   4   5
ENDBRANCH   3   4
ENDBRANCH   2   3
ENDBRANCH   1   2
BRANCH   1   9
HETATM    9  C7  UNL     1      13.610  -7.941  -1.394  1.00  0.00     0.258 C
BRANCH   9  10
HETATM   10  N1  UNL     1      13.544  -7.647  -2.803  1.00  0.00    -0.069 N
ATOM     11  H12 UNL     1      14.442  -7.806  -3.259  1.00  0.00     0.277 HD
ATOM     12  H11 UNL     1      12.988  -8.340  -3.302  1.00  0.00     0.277 HD
BRANCH  10  13
HETATM   13  C8  UNL     1      13.061  -6.310  -3.046  1.00  0.00     0.186 A
HETATM   14  C9  UNL     1      11.839  -5.971  -3.815  1.00  0.00     0.035 A
HETATM   15  C10 UNL     1      13.120  -5.945  -4.562  1.00  0.00     0.035 A
ENDBRANCH  10  13
ENDBRANCH   9  10
ENDBRANCH   1   9
TORSDOF 7
ENDMDL