MODEL 4
REMARK VINA RESULT: -6.353829386      1.865      3.077
REMARK  6 active torsions:
REMARK  status: ('A' for Active; 'I' for Inactive)
REMARK    1  A    between atoms: N1_4  and  C4_5
REMARK    2  A    between atoms: C4_5  and  C5_6
REMARK    3  A    between atoms: C5_6  and  C6_7
REMARK    4  A    between atoms: C5_6  and  C7_12
REMARK    5  A    between atoms: C6_7  and  N2_8
REMARK    6  A    between atoms: C7_12  and  C8_13
ROOT
HETATM    1  C5  UNL     1      17.863  -4.232  -3.848  1.00  0.00     0.038 C
ENDROOT
BRANCH   1   2
HETATM    2  C4  UNL     1      19.216  -3.690  -3.631  1.00  0.00     0.130 C
BRANCH   2   3
HETATM    3  N1  UNL     1      20.272  -4.040  -4.520  1.00  0.00    -0.377 N
HETATM    4  C2  UNL     1      20.848  -4.959  -5.496  1.00  0.00     0.016 A
HETATM    5  C1  UNL     1      20.750  -6.094  -6.182  1.00  0.00     0.039 C
HETATM    6  C3  UNL     1      21.581  -3.766  -5.180  1.00  0.00     0.178 A
ENDBRANCH   2   3
ENDBRANCH   1   2
BRANCH   1   7
HETATM    7  C6  UNL     1      16.771  -3.217  -3.837  1.00  0.00     0.236 C
BRANCH   7   8
HETATM    8  N2  UNL     1      17.067  -2.124  -2.894  1.00  0.00    -0.079 N
ATOM      9  H23 UNL     1      17.950  -2.278  -2.408  1.00  0.00     0.274 HD
ATOM     10  H22 UNL     1      17.305  -1.261  -3.383  1.00  0.00     0.274 HD
ATOM     11  H21 UNL     1      16.298  -1.983  -2.238  1.00  0.00     0.274 HD
ENDBRANCH   7   8
ENDBRANCH   1   7
BRANCH   1  12
HETATM   12  C7  UNL     1      17.592  -5.493  -3.065  1.00  0.00    -0.030 C
HETATM   13  C11 UNL     1      16.135  -5.572  -2.657  1.00  0.00     0.010 C
HETATM   14  C12 UNL     1      16.093  -5.470  -1.138  1.00  0.00     0.001 C
HETATM   15  C13 UNL     1      17.450  -5.995  -0.712  1.00  0.00     0.001 C
HETATM   16  C14 UNL     1      18.389  -5.450  -1.789  1.00  0.00     0.010 C
BRANCH  12  17
HETATM   17  C8  UNL     1      17.921  -6.691  -3.871  1.00  0.00    -0.005 A
HETATM   18  C9  UNL     1      17.266  -7.033  -5.142  1.00  0.00     0.006 A
HETATM   19  C10 UNL     1      17.181  -7.983  -3.922  1.00  0.00     0.006 A
ENDBRANCH  12  17
ENDBRANCH   1  12
TORSDOF 6
ENDMDL