MODEL 2
REMARK VINA RESULT: -6.176167641      6.389      9.222
REMARK  4 active torsions:
REMARK  status: ('A' for Active; 'I' for Inactive)
REMARK    1  A    between atoms: C1_2  and  C2_4
REMARK    2  A    between atoms: C3_5  and  C4_6
REMARK    3  A    between atoms: C5_7  and  C6_8
REMARK    4  A    between atoms: C6_8  and  C7_9
REMARK       I    between atoms: C7_9  and  N1_11
ROOT
HETATM    1  C6  UNL     1      20.574  -5.064  -5.775  1.00  0.00     0.130 C
ENDROOT
BRANCH   1   2
HETATM    2  C5  UNL     1      20.906  -6.139  -6.752  1.00  0.00    -0.018 C
HETATM    3  C4  UNL     1      20.475  -6.033  -7.994  1.00  0.00    -0.003 C
BRANCH   3   4
HETATM    4  C3  UNL     1      20.780  -7.064  -8.980  1.00  0.00     0.007 C
HETATM    5  C2  UNL     1      21.746  -7.948  -8.800  1.00  0.00     0.084 C
BRANCH   5   6
HETATM    6  C1  UNL     1      22.028  -8.965  -9.801  1.00  0.00     0.198 C
HETATM    7  O1  UNL     1      22.381  -8.659 -10.970  1.00  0.00    -0.645 OA
HETATM    8  O2  UNL     1      21.900 -10.298  -9.442  1.00  0.00    -0.645 OA
ENDBRANCH   5   6
ENDBRANCH   3   4
ENDBRANCH   1   2
BRANCH   1   9
HETATM    9  C7  UNL     1      19.514  -5.493  -4.831  1.00  0.00     0.223 C
HETATM   10  O3  UNL     1      19.282  -6.710  -4.733  1.00  0.00    -0.273 OA
HETATM   11  N1  UNL     1      18.822  -4.509  -4.094  1.00  0.00    -0.352 N
HETATM   12  C8  UNL     1      19.050  -3.086  -4.170  1.00  0.00     0.126 C
HETATM   13  C11 UNL     1      17.769  -4.824  -3.147  1.00  0.00     0.126 C
HETATM   14  C9  UNL     1      17.702  -2.548  -3.673  1.00  0.00     0.021 C
HETATM   15  C10 UNL     1      17.469  -3.469  -2.493  1.00  0.00     0.021 C
ENDBRANCH   1   9
TORSDOF 4
ENDMDL