MODEL 2
REMARK VINA RESULT: -5.649946277      1.563      4.120
REMARK  5 active torsions:
REMARK  status: ('A' for Active; 'I' for Inactive)
REMARK    1  A    between atoms: N1_2  and  C2_5
REMARK    2  A    between atoms: C2_5  and  C4_7
REMARK    3  A    between atoms: C4_7  and  C5_8
REMARK    4  A    between atoms: C4_7  and  N2_13
REMARK    5  A    between atoms: C5_8  and  C7_10
ROOT
HETATM    1  C4  UNL     1      18.662  -3.689  -4.264  1.00  0.00     0.257 C
ENDROOT
BRANCH   1   2
HETATM    2  C2  UNL     1      19.146  -5.101  -4.265  1.00  0.00     0.215 C
HETATM    3  C3  UNL     1      18.368  -6.095  -5.053  1.00  0.00     0.042 C
BRANCH   2   4
HETATM    4  N1  UNL     1      20.480  -5.029  -4.914  1.00  0.00    -0.073 N
HETATM    5  C1  UNL     1      20.711  -6.200  -5.726  1.00  0.00     0.267 C
ATOM      6  H12 UNL     1      21.226  -4.886  -4.232  1.00  0.00     0.277 HD
ATOM      7  H11 UNL     1      20.596  -4.168  -5.447  1.00  0.00     0.277 HD
ENDBRANCH   2   4
ENDBRANCH   1   2
BRANCH   1   8
HETATM    8  C5  UNL     1      17.776  -3.260  -3.159  1.00  0.00     0.021 C
HETATM    9  C6  UNL     1      17.664  -4.220  -2.011  1.00  0.00     0.012 C
BRANCH   8  10
HETATM   10  C7  UNL     1      16.443  -2.691  -3.606  1.00  0.00    -0.009 A
HETATM   11  C8  UNL     1      16.244  -1.185  -3.426  1.00  0.00     0.005 A
HETATM   12  C9  UNL     1      15.447  -2.180  -2.622  1.00  0.00     0.005 A
ENDBRANCH   8  10
ENDBRANCH   1   8
BRANCH   1  13
HETATM   13  N2  UNL     1      19.779  -2.873  -4.550  1.00  0.00     0.095 N
HETATM   14  C10 UNL     1      20.544  -2.319  -3.508  1.00  0.00     0.273 C
HETATM   15  C11 UNL     1      21.692  -1.682  -4.315  1.00  0.00     0.032 C
HETATM   16  C12 UNL     1      21.101  -1.423  -5.702  1.00  0.00     0.032 C
HETATM   17  C13 UNL     1      19.630  -1.817  -5.482  1.00  0.00     0.273 C
ENDBRANCH   1  13
TORSDOF 5
ENDMDL