MODEL 1
REMARK VINA RESULT: -6.338443349      0.000      0.000
REMARK  5 active torsions:
REMARK  status: ('A' for Active; 'I' for Inactive)
REMARK    1  A    between atoms: C2_2  and  C3_3
REMARK    2  A    between atoms: C3_3  and  N1_4
REMARK       I    between atoms: N1_4  and  C4_5
REMARK    3  A    between atoms: N1_4  and  C7_9
REMARK    4  A    between atoms: C4_5  and  C5_7
REMARK    5  A    between atoms: C13_15  and  O2_16
ROOT
HETATM    1  C7  UNL     1      16.488  -4.287  -2.104  1.00  0.00     0.058 C
HETATM    2  C8  UNL     1      15.675  -3.587  -1.000  1.00  0.00     0.041 C
HETATM    3  C9  UNL     1      17.281  -5.394  -1.386  1.00  0.00     0.033 C
HETATM    4  C10 UNL     1      16.648  -6.740  -1.477  1.00  0.00     0.003 C
HETATM    5  C11 UNL     1      15.164  -6.767  -1.503  1.00  0.00     0.003 C
HETATM    6  C12 UNL     1      14.511  -5.667  -2.254  1.00  0.00     0.034 C
HETATM    7  C13 UNL     1      15.554  -4.875  -3.074  1.00  0.00     0.146 C
ENDROOT
BRANCH   1   8
HETATM    8  N1  UNL     1      17.380  -3.288  -2.613  1.00  0.00    -0.334 N
HETATM    9  C4  UNL     1      18.577  -3.656  -3.339  1.00  0.00     0.243 C
HETATM   10  O1  UNL     1      18.893  -4.849  -3.552  1.00  0.00    -0.268 OA
BRANCH   8  11
HETATM   11  C3  UNL     1      17.075  -1.893  -2.409  1.00  0.00     0.153 C
BRANCH  11  12
HETATM   12  C2  UNL     1      16.401  -1.232  -3.537  1.00  0.00    -0.017 C
HETATM   13  C1  UNL     1      15.109  -1.029  -3.532  1.00  0.00     0.008 C
ENDBRANCH  11  12
ENDBRANCH   8  11
BRANCH   9  14
HETATM   14  C5  UNL     1      19.476  -2.638  -3.861  1.00  0.00     0.064 C
HETATM   15  C6  UNL     1      19.560  -2.350  -5.144  1.00  0.00     0.017 C
ENDBRANCH   9  14
ENDBRANCH   1   8
BRANCH   7  16
HETATM   16  O2  UNL     1      16.126  -5.824  -3.921  1.00  0.00    -0.393 OA
ATOM     17  H2  UNL     1      15.551  -6.545  -4.146  1.00  0.00     0.210 HD
ENDBRANCH   7  16
TORSDOF 5
ENDMDL