MODEL 3
REMARK VINA RESULT: -6.202859591      2.486      5.094
REMARK  5 active torsions:
REMARK  status: ('A' for Active; 'I' for Inactive)
REMARK    1  A    between atoms: C3_3  and  C4_4
REMARK    2  A    between atoms: C3_3  and  C5_7
REMARK    3  A    between atoms: C5_7  and  C6_8
REMARK    4  A    between atoms: C5_7  and  C7_10
REMARK    5  A    between atoms: C7_10  and  C8_11
ROOT
HETATM    1  C1  UNL     1      17.948  -5.888  -0.852  1.00  0.00     0.013 C
HETATM    2  C2  UNL     1      18.373  -5.337  -1.834  1.00  0.00    -0.101 C
HETATM    3  C3  UNL     1      18.880  -4.645  -3.051  1.00  0.00     0.175 C
ENDROOT
BRANCH   3   4
HETATM    4  C4  UNL     1      18.814  -5.573  -4.168  1.00  0.00     0.189 C
HETATM    5  O1  UNL     1      18.111  -6.614  -4.085  1.00  0.00    -0.647 OA
HETATM    6  O2  UNL     1      19.543  -5.285  -5.326  1.00  0.00    -0.647 OA
ENDBRANCH   3   4
BRANCH   3   7
HETATM    7  C5  UNL     1      18.082  -3.366  -3.218  1.00  0.00     0.073 C
BRANCH   7   8
HETATM    8  C6  UNL     1      19.025  -2.327  -3.641  1.00  0.00     0.237 C
HETATM    9  O3  UNL     1      18.979  -1.896  -4.772  1.00  0.00    -0.306 OA
ENDBRANCH   7   8
BRANCH   7  10
HETATM   10  C7  UNL     1      16.964  -3.504  -4.184  1.00  0.00     0.018 C
BRANCH  10  11
HETATM   11  C8  UNL     1      15.592  -3.632  -3.610  1.00  0.00    -0.014 C
HETATM   12  C9  UNL     1      15.133  -5.016  -3.285  1.00  0.00     0.005 C
HETATM   13  C10 UNL     1      14.125  -4.794  -2.122  1.00  0.00     0.000 C
HETATM   14  C11 UNL     1      14.917  -3.831  -1.282  1.00  0.00     0.000 C
HETATM   15  C12 UNL     1      15.568  -2.897  -2.263  1.00  0.00     0.005 C
ENDBRANCH  10  11
ENDBRANCH   7  10
ENDBRANCH   3   7
TORSDOF 5
ENDMDL