MODEL 1
REMARK VINA RESULT: -6.229273326      0.000      0.000
REMARK  5 active torsions:
REMARK  status: ('A' for Active; 'I' for Inactive)
REMARK    1  A    between atoms: C1_2  and  C2_4
REMARK    2  A    between atoms: C2_4  and  C3_5
REMARK    3  A    between atoms: C2_4  and  C7_9
REMARK    4  A    between atoms: C3_5  and  C4_6
REMARK    5  A    between atoms: C7_9  and  C8_11
ROOT
HETATM    1  C2  UNL     1      18.797  -3.106  -3.389  1.00  0.00     0.145 C
ENDROOT
BRANCH   1   2
HETATM    2  C1  UNL     1      20.052  -2.466  -3.912  1.00  0.00     0.242 C
HETATM    3  N1  UNL     1      20.026  -1.584  -5.012  1.00  0.00    -0.061 NA
HETATM    4  O1  UNL     1      21.133  -2.722  -3.356  1.00  0.00    -0.276 OA
ENDBRANCH   1   2
BRANCH   1   5
HETATM    5  C3  UNL     1      17.581  -2.402  -3.880  1.00  0.00     0.026 C
BRANCH   5   6
HETATM    6  C4  UNL     1      16.737  -1.853  -2.735  1.00  0.00    -0.013 A
HETATM    7  C5  UNL     1      15.391  -1.266  -3.104  1.00  0.00     0.005 A
HETATM    8  C6  UNL     1      15.433  -2.627  -2.531  1.00  0.00     0.005 A
ENDBRANCH   5   6
ENDBRANCH   1   5
BRANCH   1   9
HETATM    9  C7  UNL     1      18.773  -4.534  -3.738  1.00  0.00     0.143 C
HETATM   10  O2  UNL     1      19.219  -4.793  -4.882  1.00  0.00    -0.297 OA
BRANCH   9  11
HETATM   11  C8  UNL     1      18.292  -5.599  -2.889  1.00  0.00     0.056 C
HETATM   12  C9  UNL     1      18.232  -5.403  -1.427  1.00  0.00     0.012 C
HETATM   13  C10 UNL     1      16.922  -6.046  -0.938  1.00  0.00     0.001 C
HETATM   14  C11 UNL     1      16.490  -6.893  -2.143  1.00  0.00     0.001 C
HETATM   15  C12 UNL     1      16.832  -5.928  -3.259  1.00  0.00     0.012 C
ENDBRANCH   9  11
ENDBRANCH   1   9
TORSDOF 5
ENDMDL