MODEL 1
REMARK VINA RESULT: -6.328527344      0.000      0.000
REMARK  7 active torsions:
REMARK  status: ('A' for Active; 'I' for Inactive)
REMARK    1  A    between atoms: C2_2  and  C3_3
REMARK    2  A    between atoms: C3_3  and  N1_4
REMARK    3  A    between atoms: C4_6  and  N2_7
REMARK    4  A    between atoms: N2_7  and  O1_9
REMARK    5  A    between atoms: O1_9  and  C5_10
REMARK    6  A    between atoms: C7_12  and  C12_17
REMARK    7  A    between atoms: C9_14  and  C10_15
ROOT
HETATM    1  O1  UNL     1      16.210  -6.503  -1.178  1.00  0.00    -0.274 OA
ENDROOT
BRANCH   1   2
HETATM    2  N2  UNL     1      15.085  -7.241  -1.293  1.00  0.00    -0.262 N
ATOM      3  H2  UNL     1      14.196  -6.806  -1.047  1.00  0.00     0.195 HD
BRANCH   2   4
HETATM    4  C4  UNL     1      15.073  -8.585  -1.736  1.00  0.00     0.200 C
HETATM    5  N1  UNL     1      14.668  -9.516  -0.954  1.00  0.00    -0.381 N
ATOM      6  H1  UNL     1      14.659 -10.485  -1.273  1.00  0.00     0.160 HD
BRANCH   5   7
HETATM    7  C3  UNL     1      14.222  -9.189   0.385  1.00  0.00     0.147 C
BRANCH   7   8
HETATM    8  C2  UNL     1      14.516 -10.248   1.354  1.00  0.00    -0.018 C
HETATM    9  C1  UNL     1      14.896  -9.944   2.578  1.00  0.00     0.008 C
ENDBRANCH   7   8
ENDBRANCH   5   7
ENDBRANCH   2   4
ENDBRANCH   1   2
BRANCH   1  10
HETATM   10  C5  UNL     1      16.191  -5.534  -2.159  1.00  0.00     0.157 C
HETATM   11  C6  UNL     1      17.348  -4.547  -1.997  1.00  0.00     0.040 C
HETATM   12  C7  UNL     1      16.656  -3.222  -1.799  1.00  0.00    -0.007 C
HETATM   13  C8  UNL     1      15.471  -3.683  -0.930  1.00  0.00     0.012 C
HETATM   14  C9  UNL     1      14.941  -4.707  -1.949  1.00  0.00     0.022 C
BRANCH  12  15
HETATM   15  C12 UNL     1      15.916  -2.797  -3.043  1.00  0.00    -0.005 A
HETATM   16  C10 UNL     1      16.812  -1.664  -3.626  1.00  0.00    -0.003 A
HETATM   17  C11 UNL     1      15.415  -1.423  -3.206  1.00  0.00     0.011 A
ENDBRANCH  12  15
ENDBRANCH   1  10
TORSDOF 7
ENDMDL