MODEL 3
REMARK VINA RESULT: -5.756787185      2.765      3.961
REMARK  4 active torsions:
REMARK  status: ('A' for Active; 'I' for Inactive)
REMARK    1  A    between atoms: O1_2  and  C2_3
REMARK    2  A    between atoms: C2_3  and  C3_4
REMARK    3  A    between atoms: C5_8  and  O4_9
REMARK    4  A    between atoms: C10_16  and  O6_17
ROOT
HETATM    1  C3  UNL     1      34.949  61.555  19.830  1.00  0.00     0.177 C
HETATM    2  O2  UNL     1      33.670  61.048  19.829  1.00  0.00    -0.350 OA
HETATM    3  C4  UNL     1      33.325  60.683  18.523  1.00  0.00     0.277 C
HETATM    4  O3  UNL     1      32.030  60.286  18.397  1.00  0.00    -0.328 OA
HETATM    5  C5  UNL     1      31.963  59.072  17.781  1.00  0.00     0.289 C
HETATM    6  C6  UNL     1      33.308  58.440  17.762  1.00  0.00     0.192 C
HETATM    7  O5  UNL     1      33.913  58.350  16.501  1.00  0.00    -0.379 OA
HETATM    8  C7  UNL     1      34.666  59.532  16.685  1.00  0.00     0.185 C
HETATM    9  C8  UNL     1      34.231  59.581  18.098  1.00  0.00     0.064 C
HETATM   10  C9  UNL     1      35.231  59.235  19.155  1.00  0.00     0.054 C
HETATM   11  C10 UNL     1      35.993  60.468  19.588  1.00  0.00     0.150 C
ENDROOT
BRANCH   1  12
HETATM   12  C2  UNL     1      35.353  62.343  21.021  1.00  0.00     0.201 C
BRANCH  12  13
HETATM   13  O1  UNL     1      36.474  63.088  20.958  1.00  0.00    -0.393 OA
HETATM   14  C1  UNL     1      36.988  63.642  22.082  1.00  0.00     0.201 C
ENDBRANCH  12  13
ENDBRANCH   1  12
BRANCH  11  15
HETATM   15  O6  UNL     1      36.736  60.205  20.724  1.00  0.00    -0.393 OA
ATOM     16  H6  UNL     1      36.636  59.305  21.012  1.00  0.00     0.210 HD
ENDBRANCH  11  15
BRANCH   5  17
HETATM   17  O4  UNL     1      31.036  58.288  18.460  1.00  0.00    -0.368 OA
ATOM     18  H4  UNL     1      31.306  58.226  19.368  1.00  0.00     0.212 HD
ENDBRANCH   5  17
TORSDOF 4
ENDMDL