MODEL 4
REMARK VINA RESULT: -5.821813329      2.675      5.389
REMARK  4 active torsions:
REMARK  status: ('A' for Active; 'I' for Inactive)
REMARK    1  A    between atoms: C3_3  and  N1_4
REMARK    2  A    between atoms: C5_6  and  O1_7
REMARK    3  A    between atoms: C6_9  and  O2_10
REMARK    4  A    between atoms: C7_12  and  N2_13
ROOT
HETATM    1  C1  UNL     1      42.581  58.863  18.550  1.00  0.00     0.014 C
HETATM    2  C2  UNL     1      41.473  59.271  18.384  1.00  0.00    -0.096 C
HETATM    3  C3  UNL     1      40.111  59.755  18.208  1.00  0.00     0.242 C
ENDROOT
BRANCH   3   4
HETATM    4  N1  UNL     1      40.003  61.149  17.943  1.00  0.00    -0.278 N
HETATM    5  C4  UNL     1      40.116  61.574  16.601  1.00  0.00     0.185 C
HETATM    6  C5  UNL     1      38.835  61.993  15.938  1.00  0.00     0.171 C
HETATM    7  C6  UNL     1      37.716  62.340  16.894  1.00  0.00     0.201 C
HETATM    8  C7  UNL     1      37.811  61.505  18.120  1.00  0.00     0.303 C
HETATM    9  O3  UNL     1      39.071  61.775  18.681  1.00  0.00    -0.251 OA
BRANCH   6  10
HETATM   10  O1  UNL     1      39.086  63.051  15.092  1.00  0.00    -0.391 OA
ATOM     11  H1  UNL     1      38.972  63.866  15.566  1.00  0.00     0.210 HD
ENDBRANCH   6  10
BRANCH   7  12
HETATM   12  O2  UNL     1      36.516  62.088  16.216  1.00  0.00    -0.388 OA
ATOM     13  H2  UNL     1      35.854  61.941  16.881  1.00  0.00     0.210 HD
ENDBRANCH   7  12
BRANCH   8  14
HETATM   14  N2  UNL     1      36.798  61.781  19.104  1.00  0.00    -0.269 N
HETATM   15  C8  UNL     1      36.918  62.230  20.367  1.00  0.00     0.114 A
HETATM   16  C9  UNL     1      35.664  62.372  20.955  1.00  0.00     0.037 A
HETATM   17  C10 UNL     1      34.777  61.987  19.987  1.00  0.00     0.108 A
HETATM   18  N3  UNL     1      35.479  61.647  18.913  1.00  0.00    -0.308 N
ATOM     19  H3  UNL     1      35.061  61.321  18.042  1.00  0.00     0.186 HD
ENDBRANCH   8  14
ENDBRANCH   3   4
TORSDOF 4
ENDMDL