MODEL 5
REMARK VINA RESULT: -5.661902263      1.859      2.294
REMARK  3 active torsions:
REMARK  status: ('A' for Active; 'I' for Inactive)
REMARK    1  A    between atoms: O1_1  and  C1_3
REMARK    2  A    between atoms: C7_13  and  C8_14
REMARK    3  A    between atoms: C8_14  and  N2_15
ROOT
HETATM    1  C1  UNL     1      36.596  60.281  15.643  1.00  0.00     0.154 C
HETATM    2  C2  UNL     1      37.878  60.876  15.073  1.00  0.00     0.045 C
HETATM    3  C3  UNL     1      39.100  60.321  15.749  1.00  0.00     0.239 C
HETATM    4  N1  UNL     1      39.993  61.367  16.164  1.00  0.00    -0.072 N
ATOM      5  H11 UNL     1      40.313  61.911  15.363  1.00  0.00     0.277 HD
ATOM      6  H12 UNL     1      40.886  60.982  16.472  1.00  0.00     0.277 HD
HETATM    7  C4  UNL     1      39.430  62.225  17.174  1.00  0.00     0.264 C
HETATM    8  C5  UNL     1      37.948  62.481  16.884  1.00  0.00     0.148 C
HETATM    9  C6  UNL     1      37.784  62.375  15.388  1.00  0.00     0.042 C
HETATM   10  O2  UNL     1      37.237  61.554  17.591  1.00  0.00    -0.375 OA
HETATM   11  C7  UNL     1      36.180  60.980  16.918  1.00  0.00     0.170 C
ENDROOT
BRANCH  11  12
HETATM   12  C8  UNL     1      35.619  59.904  17.831  1.00  0.00     0.184 C
BRANCH  12  13
HETATM   13  N2  UNL     1      34.223  59.606  17.500  1.00  0.00    -0.285 N
HETATM   14  C9  UNL     1      33.130  60.031  18.147  1.00  0.00     0.130 A
HETATM   15  C10 UNL     1      32.015  59.532  17.521  1.00  0.00     0.127 A
HETATM   16  N3  UNL     1      32.493  58.808  16.498  1.00  0.00    -0.296 N
HETATM   17  N4  UNL     1      33.807  58.862  16.497  1.00  0.00    -0.241 N
ATOM     18  H3  UNL     1      31.925  58.296  15.823  1.00  0.00     0.187 HD
ATOM     19  H4  UNL     1      34.413  58.396  15.822  1.00  0.00     0.208 HD
ENDBRANCH  12  13
ENDBRANCH  11  12
BRANCH   1  20
HETATM   20  O1  UNL     1      35.599  60.514  14.693  1.00  0.00    -0.393 OA
ATOM     21  H1  UNL     1      35.819  59.980  13.939  1.00  0.00     0.210 HD
ENDBRANCH   1  20
TORSDOF 3
ENDMDL