MODEL 3
REMARK VINA RESULT: -5.097598895      4.052      5.528
REMARK  4 active torsions:
REMARK  status: ('A' for Active; 'I' for Inactive)
REMARK    1  A    between atoms: C2_2  and  S1_3
REMARK    2  A    between atoms: S1_3  and  C3_4
REMARK    3  A    between atoms: C6_8  and  O2_9
REMARK    4  A    between atoms: C7_11  and  O3_12
ROOT
HETATM    1  C3  UNL     1      36.167  61.322  17.142  1.00  0.00     0.190 C
HETATM    2  C4  UNL     1      35.971  60.519  15.884  1.00  0.00     0.104 C
HETATM    3  C5  UNL     1      37.292  60.595  15.123  1.00  0.00     0.269 C
HETATM    4  O1  UNL     1      37.546  61.947  14.898  1.00  0.00    -0.329 OA
HETATM    5  C6  UNL     1      38.914  62.225  14.819  1.00  0.00     0.293 C
HETATM    6  C7  UNL     1      39.471  62.047  16.227  1.00  0.00     0.228 C
HETATM    7  C8  UNL     1      38.482  61.122  16.931  1.00  0.00     0.297 C
HETATM    8  O4  UNL     1      38.227  60.096  16.045  1.00  0.00    -0.329 OA
HETATM    9  O5  UNL     1      37.403  61.881  17.286  1.00  0.00    -0.343 OA
ENDROOT
BRANCH   1  10
HETATM   10  S1  UNL     1      35.631  60.366  18.601  1.00  0.00    -0.137 SA
BRANCH  10  11
HETATM   11  C2  UNL     1      34.154  59.400  18.155  1.00  0.00     0.072 C
HETATM   12  C1  UNL     1      32.911  60.112  18.630  1.00  0.00     0.016 C
ENDBRANCH  10  11
ENDBRANCH   1  10
BRANCH   6  13
HETATM   13  O3  UNL     1      40.726  61.462  16.133  1.00  0.00    -0.386 OA
ATOM     14  H3  UNL     1      41.090  61.662  15.278  1.00  0.00     0.210 HD
ENDBRANCH   6  13
BRANCH   5  15
HETATM   15  O2  UNL     1      39.031  63.574  14.510  1.00  0.00    -0.368 OA
ATOM     16  H2  UNL     1      39.753  63.652  13.897  1.00  0.00     0.212 HD
ENDBRANCH   5  15
TORSDOF 4
ENDMDL