MODEL 5
REMARK VINA RESULT: -5.293435833      1.519      1.744
REMARK  4 active torsions:
REMARK  status: ('A' for Active; 'I' for Inactive)
REMARK    1  A    between atoms: O1_2  and  C2_3
REMARK    2  A    between atoms: C3_4  and  O2_5
REMARK    3  A    between atoms: C7_11  and  S1_12
REMARK    4  A    between atoms: C9_14  and  O3_15
ROOT
HETATM    1  C2  UNL     1      38.122  60.912  17.179  1.00  0.00     0.179 C
HETATM    2  C3  UNL     1      37.350  61.538  16.027  1.00  0.00     0.151 C
HETATM    3  C4  UNL     1      36.188  60.586  15.773  1.00  0.00     0.055 C
HETATM    4  C5  UNL     1      35.324  60.457  16.989  1.00  0.00     0.111 C
HETATM    5  C6  UNL     1      34.518  59.235  16.808  1.00  0.00     0.065 C
HETATM    6  N1  UNL     1      33.935  58.234  16.671  1.00  0.00    -0.197 NA
HETATM    7  C7  UNL     1      36.056  60.309  18.276  1.00  0.00     0.096 C
HETATM    8  C9  UNL     1      37.302  61.121  18.413  1.00  0.00     0.164 C
ENDROOT
BRANCH   7   9
HETATM    9  S1  UNL     1      34.945  60.756  19.651  1.00  0.00    -0.165 SA
HETATM   10  C8  UNL     1      35.594  60.033  21.176  1.00  0.00     0.090 C
ENDBRANCH   7   9
BRANCH   2  11
HETATM   11  O2  UNL     1      36.894  62.813  16.333  1.00  0.00    -0.393 OA
ATOM     12  H2  UNL     1      37.247  63.472  15.746  1.00  0.00     0.210 HD
ENDBRANCH   2  11
BRANCH   8  13
HETATM   13  O3  UNL     1      37.049  62.440  18.719  1.00  0.00    -0.392 OA
ATOM     14  H3  UNL     1      36.145  62.630  18.940  1.00  0.00     0.210 HD
ENDBRANCH   8  13
BRANCH   1  15
HETATM   15  O1  UNL     1      39.425  61.327  17.260  1.00  0.00    -0.386 OA
HETATM   16  C1  UNL     1      40.285  60.219  17.171  1.00  0.00     0.202 C
ENDBRANCH   1  15
TORSDOF 4
ENDMDL