MODEL 3
REMARK VINA RESULT: -5.386871572      3.184      4.438
REMARK  3 active torsions:
REMARK  status: ('A' for Active; 'I' for Inactive)
REMARK    1  A    between atoms: C7_11  and  C8_12
REMARK    2  A    between atoms: C8_12  and  C9_13
REMARK    3  A    between atoms: C9_13  and  O5_14
ROOT
HETATM    1  O1  UNL     1      39.709  63.319  19.314  1.00  0.00    -0.260 OA
HETATM    2  C1  UNL     1      38.590  62.776  19.182  1.00  0.00     0.315 C
HETATM    3  O2  UNL     1      37.586  63.008  20.101  1.00  0.00    -0.316 OA
HETATM    4  C2  UNL     1      36.565  62.031  20.193  1.00  0.00     0.205 C
HETATM    5  C3  UNL     1      37.165  60.738  19.652  1.00  0.00     0.198 C
HETATM    6  O3  UNL     1      37.466  60.851  18.300  1.00  0.00    -0.350 OA
HETATM    7  C4  UNL     1      38.350  61.877  18.028  1.00  0.00     0.224 C
HETATM    8  C5  UNL     1      39.694  61.217  17.727  1.00  0.00     0.098 C
HETATM    9  C6  UNL     1      39.740  60.653  16.336  1.00  0.00     0.175 C
HETATM   10  O4  UNL     1      39.401  61.632  15.446  1.00  0.00    -0.367 OA
HETATM   11  C7  UNL     1      38.145  62.179  15.641  1.00  0.00     0.220 C
HETATM   12  N1  UNL     1      37.902  62.698  16.932  1.00  0.00    -0.357 N
ATOM     13  H1  UNL     1      37.440  63.595  17.079  1.00  0.00     0.159 HD
ENDROOT
BRANCH  11  14
HETATM   14  C8  UNL     1      37.105  61.182  15.175  1.00  0.00     0.079 C
BRANCH  14  15
HETATM   15  C9  UNL     1      37.016  61.169  13.651  1.00  0.00     0.168 C
BRANCH  15  16
HETATM   16  O5  UNL     1      37.944  60.332  13.075  1.00  0.00    -0.401 OA
ATOM     17  H5  UNL     1      38.122  60.554  12.169  1.00  0.00     0.209 HD
ENDBRANCH  15  16
ENDBRANCH  14  15
ENDBRANCH  11  14
TORSDOF 3
ENDMDL