MODEL 1
REMARK VINA RESULT: -5.398977101      0.000      0.000
REMARK  5 active torsions:
REMARK  status: ('A' for Active; 'I' for Inactive)
REMARK    1  A    between atoms: C2_2  and  O1_3
REMARK    2  A    between atoms: O1_3  and  C3_4
REMARK    3  A    between atoms: C6_8  and  O3_9
REMARK    4  A    between atoms: C7_11  and  O4_12
REMARK    5  A    between atoms: C9_15  and  O5_16
ROOT
HETATM    1  O4  UNL     1      37.278  61.298  14.133  1.00  0.00    -0.272 OA
HETATM    2  C8  UNL     1      37.530  60.431  13.083  1.00  0.00     0.229 C
HETATM    3  N1  UNL     1      37.735  59.721  12.192  1.00  0.00    -0.164 NA
ENDROOT
BRANCH   1   4
HETATM    4  C7  UNL     1      37.813  61.088  15.403  1.00  0.00     0.206 C
HETATM    5  C6  UNL     1      36.871  61.473  16.524  1.00  0.00     0.179 C
HETATM    6  C4  UNL     1      37.647  61.176  17.813  1.00  0.00     0.152 C
HETATM    7  O2  UNL     1      38.611  62.171  17.913  1.00  0.00    -0.351 OA
HETATM    8  C5  UNL     1      36.681  61.152  18.950  1.00  0.00     0.042 C
HETATM    9  C3  UNL     1      39.587  61.913  16.980  1.00  0.00     0.291 C
HETATM   10  C9  UNL     1      39.077  61.866  15.563  1.00  0.00     0.206 C
BRANCH   5  11
HETATM   11  O3  UNL     1      35.699  60.754  16.523  1.00  0.00    -0.390 OA
ATOM     12  H3  UNL     1      35.164  61.026  15.786  1.00  0.00     0.210 HD
ENDBRANCH   5  11
BRANCH   9  13
HETATM   13  O1  UNL     1      40.141  60.672  17.265  1.00  0.00    -0.359 OA
BRANCH  13  14
HETATM   14  C2  UNL     1      41.374  60.761  17.900  1.00  0.00     0.166 C
HETATM   15  C1  UNL     1      41.726  59.365  18.380  1.00  0.00     0.033 C
ENDBRANCH  13  14
ENDBRANCH   9  13
BRANCH  10  16
HETATM   16  O5  UNL     1      38.939  63.137  15.046  1.00  0.00    -0.388 OA
ATOM     17  H5  UNL     1      38.356  63.137  14.296  1.00  0.00     0.210 HD
ENDBRANCH  10  16
ENDBRANCH   1   4
TORSDOF 5
ENDMDL