MODEL 4
REMARK VINA RESULT: -4.728322597      2.202      2.353
REMARK  5 active torsions:
REMARK  status: ('A' for Active; 'I' for Inactive)
REMARK    1  A    between atoms: O1_2  and  C2_3
REMARK    2  A    between atoms: C3_4  and  N1_5
REMARK    3  A    between atoms: N1_5  and  N2_7
REMARK    4  A    between atoms: C5_15  and  O3_16
REMARK    5  A    between atoms: C6_18  and  O4_19
ROOT
HETATM    1  C2  UNL     1      39.665  61.097  18.279  1.00  0.00     0.202 C
HETATM    2  C3  UNL     1      38.293  61.656  18.586  1.00  0.00     0.270 C
HETATM    3  O2  UNL     1      37.436  61.215  17.592  1.00  0.00    -0.344 OA
HETATM    4  C4  UNL     1      37.753  61.685  16.340  1.00  0.00     0.228 C
HETATM    5  S1  UNL     1      36.628  60.840  15.159  1.00  0.00    -0.060 SA
HETATM    6  C5  UNL     1      39.153  61.393  15.903  1.00  0.00     0.189 C
HETATM    7  C6  UNL     1      40.184  61.636  16.973  1.00  0.00     0.183 C
ENDROOT
BRANCH   2   8
HETATM    8  N1  UNL     1      38.274  63.081  18.689  1.00  0.00    -0.291 N
ATOM      9  H1  UNL     1      37.626  63.636  18.128  1.00  0.00     0.184 HD
BRANCH   8  10
HETATM   10  N2  UNL     1      39.065  63.631  19.479  1.00  0.00    -0.251 N
HETATM   11  N3  UNL     1      39.984  64.434  19.736  1.00  0.00    -0.331 N
ATOM     12  H32 UNL     1      40.169  64.838  18.819  1.00  0.00     0.178 HD
ATOM     13  H31 UNL     1      40.632  64.884  20.384  1.00  0.00     0.178 HD
ATOM     14  H2  UNL     1      38.851  63.204  20.380  1.00  0.00     0.207 HD
ENDBRANCH   8  10
ENDBRANCH   2   8
BRANCH   1  15
HETATM   15  O1  UNL     1      39.517  59.718  18.134  1.00  0.00    -0.384 OA
HETATM   16  C1  UNL     1      40.677  59.030  18.446  1.00  0.00     0.202 C
ENDBRANCH   1  15
BRANCH   7  17
HETATM   17  O4  UNL     1      40.512  62.985  17.045  1.00  0.00    -0.390 OA
ATOM     18  H4  UNL     1      39.879  63.539  16.602  1.00  0.00     0.210 HD
ENDBRANCH   7  17
BRANCH   6  19
HETATM   19  O3  UNL     1      39.409  62.161  14.759  1.00  0.00    -0.389 OA
ATOM     20  H3  UNL     1      40.327  62.408  14.778  1.00  0.00     0.210 HD
ENDBRANCH   6  19
TORSDOF 5
ENDMDL