MODEL 4
REMARK VINA RESULT: -5.681550854      3.654      4.631
REMARK  4 active torsions:
REMARK  status: ('A' for Active; 'I' for Inactive)
REMARK    1  A    between atoms: O1_1  and  C1_3
REMARK    2  A    between atoms: C3_6  and  O3_7
REMARK    3  A    between atoms: O3_7  and  C4_8
REMARK    4  A    between atoms: C4_8  and  C5_9
ROOT
HETATM    1  O3  UNL     1      33.725  61.161  19.225  1.00  0.00    -0.338 OA
ENDROOT
BRANCH   1   2
HETATM    2  C3  UNL     1      33.396  59.906  18.729  1.00  0.00     0.415 C
HETATM    3  O2  UNL     1      34.465  59.373  18.016  1.00  0.00    -0.334 OA
HETATM    4  C2  UNL     1      33.992  58.880  16.826  1.00  0.00     0.234 C
HETATM    5  C1  UNL     1      32.500  58.800  17.060  1.00  0.00     0.286 C
HETATM    6  O4  UNL     1      32.307  59.947  17.865  1.00  0.00    -0.306 OA
BRANCH   5   7
HETATM    7  O1  UNL     1      31.807  58.953  15.839  1.00  0.00    -0.369 OA
ATOM      8  H1  UNL     1      30.949  59.330  15.995  1.00  0.00     0.212 HD
ENDBRANCH   5   7
ENDBRANCH   1   2
BRANCH   1   9
HETATM    9  C4  UNL     1      35.074  61.348  19.089  1.00  0.00     0.184 C
BRANCH   9  10
HETATM   10  C5  UNL     1      35.800  61.738  20.306  1.00  0.00     0.011 C
HETATM   11  C6  UNL     1      35.236  62.860  21.099  1.00  0.00     0.043 C
HETATM   12  C7  UNL     1      36.476  63.384  21.835  1.00  0.00     0.273 C
HETATM   13  N1  UNL     1      37.579  62.508  21.431  1.00  0.00     0.089 N
HETATM   14  C8  UNL     1      37.303  61.210  22.029  1.00  0.00     0.273 C
HETATM   15  C10 UNL     1      37.213  62.272  20.020  1.00  0.00     0.284 C
HETATM   16  C9  UNL     1      36.138  60.606  21.238  1.00  0.00     0.043 C
ENDBRANCH   9  10
ENDBRANCH   1   9
TORSDOF 4
ENDMDL