MODEL 1
REMARK VINA RESULT: -6.206105713      0.000      0.000
REMARK  4 active torsions:
REMARK  status: ('A' for Active; 'I' for Inactive)
REMARK    1  A    between atoms: O1_1  and  C1_3
REMARK    2  A    between atoms: C1_3  and  C2_4
REMARK    3  A    between atoms: C4_6  and  O2_7
REMARK    4  A    between atoms: C6_11  and  N1_12
ROOT
HETATM    1  C2  UNL     1      33.275  59.089  17.605  1.00  0.00     0.148 C
HETATM    2  C3  UNL     1      33.430  59.920  18.860  1.00  0.00     0.077 C
HETATM    3  C4  UNL     1      34.933  60.017  18.978  1.00  0.00     0.112 C
HETATM    4  C5  UNL     1      35.319  61.434  19.249  1.00  0.00     0.211 C
HETATM    5  O3  UNL     1      36.449  61.604  18.452  1.00  0.00    -0.360 OA
HETATM    6  C6  UNL     1      35.955  61.163  17.204  1.00  0.00     0.260 C
HETATM    7  C10 UNL     1      35.397  59.799  17.552  1.00  0.00     0.207 C
HETATM    8  O4  UNL     1      34.297  59.502  16.792  1.00  0.00    -0.371 OA
ENDROOT
BRANCH   6   9
HETATM    9  N1  UNL     1      37.020  61.113  16.250  1.00  0.00    -0.322 N
HETATM   10  C7  UNL     1      36.836  61.199  14.912  1.00  0.00     0.111 A
HETATM   11  C8  UNL     1      38.057  61.118  14.274  1.00  0.00     0.106 A
HETATM   12  N2  UNL     1      38.964  60.982  15.263  1.00  0.00    -0.361 N
HETATM   13  C9  UNL     1      38.334  60.980  16.455  1.00  0.00     0.184 A
ATOM     14  H2  UNL     1      39.972  60.895  15.130  1.00  0.00     0.166 HD
ENDBRANCH   6   9
BRANCH   3  15
HETATM   15  O2  UNL     1      35.463  59.108  19.863  1.00  0.00    -0.385 OA
ATOM     16  H2  UNL     1      34.979  58.291  19.890  1.00  0.00     0.210 HD
ENDBRANCH   3  15
BRANCH   1  17
HETATM   17  C1  UNL     1      31.936  59.457  16.985  1.00  0.00     0.196 C
BRANCH  17  18
HETATM   18  O1  UNL     1      31.749  58.830  15.762  1.00  0.00    -0.398 OA
ATOM     19  H1  UNL     1      30.837  58.602  15.621  1.00  0.00     0.209 HD
ENDBRANCH  17  18
ENDBRANCH   1  17
TORSDOF 4
ENDMDL