MODEL 3
REMARK VINA RESULT: -8.364030307      2.791      6.888
REMARK  2 active torsions:
REMARK  status: ('A' for Active; 'I' for Inactive)
REMARK    1  A    between atoms: C2_2  and  C3_3
REMARK    2  A    between atoms: C3_3  and  C4_4
ROOT
HETATM    1  C4  UNL     1      15.879   9.950  -6.756  1.00  0.00    -0.012 C
HETATM    2  C5  UNL     1      14.650  10.759  -7.003  1.00  0.00     0.008 C
HETATM    3  C6  UNL     1      15.210  11.867  -7.879  1.00  0.00     0.042 C
HETATM    4  C7  UNL     1      16.321  11.221  -8.677  1.00  0.00     0.097 C
HETATM    5  C8  UNL     1      15.943  11.248 -10.122  1.00  0.00     0.041 C
HETATM    6  C9  UNL     1      17.073  10.971 -11.058  1.00  0.00     0.010 C
HETATM    7  C10 UNL     1      18.360  11.631 -10.689  1.00  0.00     0.104 C
HETATM    8  C11 UNL     1      18.205  13.033 -10.174  1.00  0.00     0.369 C
HETATM    9  N1  UNL     1      19.484  13.657 -10.079  1.00  0.00    -0.014 N
ATOM     10  H11 UNL     1      20.119  13.082  -9.525  1.00  0.00     0.283 HD
ATOM     11  H12 UNL     1      19.432  14.484  -9.485  1.00  0.00     0.283 HD
HETATM   12  C12 UNL     1      20.082  13.985 -11.342  1.00  0.00     0.247 C
HETATM   13  C13 UNL     1      19.238  14.858 -12.214  1.00  0.00     0.111 C
HETATM   14  C14 UNL     1      17.863  14.973 -11.641  1.00  0.00     0.118 C
HETATM   15  N2  UNL     1      17.162  16.058 -11.723  1.00  0.00    -0.383 N
ATOM     16  H21 UNL     1      16.223  16.138 -11.332  1.00  0.00     0.157 HD
ATOM     17  H22 UNL     1      17.517  16.895 -12.186  1.00  0.00     0.157 HD
HETATM   18  O1  UNL     1      17.375  13.825 -11.005  1.00  0.00    -0.277 OA
HETATM   19  O2  UNL     1      17.615  13.042  -8.904  1.00  0.00    -0.168 OA
HETATM   20  O3  UNL     1      17.551  11.823  -8.426  1.00  0.00    -0.225 OA
HETATM   21  C15 UNL     1      16.438   9.790  -8.139  1.00  0.00     0.045 C
ENDROOT
BRANCH   1  22
HETATM   22  C3  UNL     1      15.653   8.664  -6.040  1.00  0.00     0.004 C
BRANCH  22  23
HETATM   23  C2  UNL     1      16.306   8.566  -4.705  1.00  0.00    -0.004 C
HETATM   24  C1  UNL     1      15.596   7.442  -3.939  1.00  0.00     0.005 C
ENDBRANCH  22  23
ENDBRANCH   1  22
TORSDOF 2
ENDMDL