MODEL 4
REMARK VINA RESULT: -7.678115264      3.707      5.341
REMARK  3 active torsions:
REMARK  status: ('A' for Active; 'I' for Inactive)
REMARK    1  A    between atoms: N1_2  and  C3_4
REMARK    2  A    between atoms: C5_10  and  N4_11
REMARK    3  A    between atoms: C6_16  and  C7_17
ROOT
HETATM    1  C3  UNL     1      12.998  12.882  -6.398  1.00  0.00     0.148 A
HETATM    2  N2  UNL     1      12.737  13.913  -7.167  1.00  0.00    -0.321 N
ATOM      3  H2  UNL     1      12.033  14.596  -6.886  1.00  0.00     0.169 HD
HETATM    4  C4  UNL     1      13.373  14.062  -8.281  1.00  0.00     0.142 A
HETATM    5  N3  UNL     1      13.239  15.107  -9.176  1.00  0.00    -0.175 N
ATOM      6  H3  UNL     1      12.550  15.837  -8.989  1.00  0.00     0.186 HD
HETATM    7  C5  UNL     1      13.963  15.184 -10.244  1.00  0.00     0.677 A
HETATM    8  N5  UNL     1      14.908  14.282 -10.617  1.00  0.00    -0.194 N
ATOM      9  H5  UNL     1      15.456  14.391 -11.470  1.00  0.00     0.184 HD
HETATM   10  C6  UNL     1      15.078  13.213  -9.768  1.00  0.00     0.051 A
HETATM   11  C13 UNL     1      14.319  13.125  -8.634  1.00  0.00     0.076 A
HETATM   12  S1  UNL     1      14.216  12.067  -7.300  1.00  0.00    -0.048 SA
ENDROOT
BRANCH  10  13
HETATM   13  C7  UNL     1      15.898  12.044 -10.078  1.00  0.00     0.038 C
HETATM   14  C8  UNL     1      17.206  11.885  -9.342  1.00  0.00     0.011 C
HETATM   15  C9  UNL     1      17.704  10.498  -9.847  1.00  0.00     0.001 C
HETATM   16  C10 UNL     1      18.267  10.777 -11.214  1.00  0.00     0.000 C
HETATM   17  C11 UNL     1      17.272  11.404 -12.132  1.00  0.00     0.001 C
HETATM   18  C12 UNL     1      16.469  12.460 -11.512  1.00  0.00     0.011 C
ENDBRANCH  10  13
BRANCH   7  19
HETATM   19  N4  UNL     1      13.761  16.191 -11.098  1.00  0.00    -0.234 N
ATOM     20  H42 UNL     1      14.094  17.104 -10.787  1.00  0.00     0.174 HD
ATOM     21  H41 UNL     1      13.333  15.999 -12.004  1.00  0.00     0.174 HD
ENDBRANCH   7  19
BRANCH   1  22
HETATM   22  N1  UNL     1      12.437  12.546  -5.109  1.00  0.00    -0.370 N
HETATM   23  C1  UNL     1      12.474  11.170  -4.694  1.00  0.00     0.151 C
HETATM   24  C2  UNL     1      11.889  13.538  -4.232  1.00  0.00     0.151 C
ENDBRANCH   1  22
TORSDOF 3
ENDMDL