MODEL 4
REMARK VINA RESULT: -7.315354995      2.215      6.006
REMARK  6 active torsions:
REMARK  status: ('A' for Active; 'I' for Inactive)
REMARK    1  A    between atoms: C2_2  and  C3_3
REMARK    2  A    between atoms: C5_7  and  C6_8
REMARK    3  A    between atoms: C8_13  and  C9_14
REMARK    4  A    between atoms: C9_14  and  C10_15
REMARK    5  A    between atoms: C10_15  and  C11_16
REMARK    6  A    between atoms: C15_22  and  N4_23
ROOT
HETATM    1  C3  UNL     1      13.677  11.724  -6.786  1.00  0.00     0.001 A
HETATM    2  C4  UNL     1      13.607  13.097  -6.705  1.00  0.00     0.100 A
HETATM    3  N1  UNL     1      13.802  13.848  -7.798  1.00  0.00    -0.350 N
ATOM      4  H1  UNL     1      13.743  14.861  -7.701  1.00  0.00     0.166 HD
HETATM    5  C5  UNL     1      14.074  13.338  -9.031  1.00  0.00     0.136 A
HETATM    6  N3  UNL     1      14.140  12.038  -9.105  1.00  0.00    -0.327 N
ATOM      7  H3  UNL     1      14.341  11.614 -10.011  1.00  0.00     0.169 HD
HETATM    8  C15 UNL     1      13.952  11.210  -8.028  1.00  0.00     0.108 A
ENDROOT
BRANCH   5   9
HETATM    9  C6  UNL     1      14.275  14.300 -10.164  1.00  0.00     0.103 A
HETATM   10  N2  UNL     1      13.511  15.392 -10.221  1.00  0.00    -0.355 N
HETATM   11  C7  UNL     1      13.647  16.254 -11.171  1.00  0.00     0.140 A
ATOM     12  H2  UNL     1      12.807  15.548  -9.500  1.00  0.00     0.166 HD
HETATM   13  S1  UNL     1      14.899  15.601 -12.108  1.00  0.00    -0.073 SA
HETATM   14  C8  UNL     1      15.187  14.170 -11.159  1.00  0.00     0.090 A
BRANCH  14  15
HETATM   15  C9  UNL     1      16.188  13.161 -11.457  1.00  0.00    -0.056 C
BRANCH  15  16
HETATM   16  C10 UNL     1      17.030  12.354 -11.730  1.00  0.00    -0.091 C
BRANCH  16  17
HETATM   17  C11 UNL     1      18.074  11.389 -12.076  1.00  0.00     0.013 C
HETATM   18  C12 UNL     1      17.799  10.671 -13.365  1.00  0.00     0.028 C
HETATM   19  C13 UNL     1      18.216  10.433 -10.909  1.00  0.00     0.028 C
HETATM   20  C14 UNL     1      19.413  12.109 -12.256  1.00  0.00     0.028 C
ENDBRANCH  16  17
ENDBRANCH  15  16
ENDBRANCH  14  15
ENDBRANCH   5   9
BRANCH   8  21
HETATM   21  N4  UNL     1      14.026   9.943  -8.152  1.00  0.00    -0.385 N
ATOM     22  H42 UNL     1      14.929   9.475  -8.239  1.00  0.00     0.157 HD
ATOM     23  H41 UNL     1      13.159   9.407  -8.162  1.00  0.00     0.157 HD
ENDBRANCH   8  21
BRANCH   1  24
HETATM   24  C2  UNL     1      13.474  10.826  -5.625  1.00  0.00     0.039 C
HETATM   25  C1  UNL     1      12.449  11.351  -4.657  1.00  0.00     0.010 C
ENDBRANCH   1  24
TORSDOF 6
ENDMDL