MODEL 1
REMARK VINA RESULT: -8.788743504      0.000      0.000
REMARK  3 active torsions:
REMARK  status: ('A' for Active; 'I' for Inactive)
REMARK    1  A    between atoms: C2_2  and  C3_3
REMARK    2  A    between atoms: C3_3  and  N1_5
REMARK    3  A    between atoms: C14_21  and  N5_22
ROOT
HETATM    1  N1  UNL     1      16.526  11.687  -9.333  1.00  0.00    -0.313 N
HETATM    2  C5  UNL     1      15.658  12.662  -9.614  1.00  0.00     0.124 A
HETATM    3  N2  UNL     1      15.609  13.576 -10.572  1.00  0.00    -0.331 N
ATOM      4  H2  UNL     1      16.344  13.580 -11.279  1.00  0.00     0.168 HD
HETATM    5  C6  UNL     1      14.652  14.484 -10.654  1.00  0.00     0.078 A
HETATM    6  C7  UNL     1      14.643  15.478 -11.768  1.00  0.00     0.089 C
HETATM    7  N3  UNL     1      13.709  14.471  -9.727  1.00  0.00    -0.349 N
ATOM      8  H3  UNL     1      12.974  15.175  -9.789  1.00  0.00     0.167 HD
HETATM    9  C8  UNL     1      13.648  13.576  -8.683  1.00  0.00     0.021 A
HETATM   10  C9  UNL     1      12.677  13.911  -7.648  1.00  0.00     0.069 C
HETATM   11  C10 UNL     1      14.633  12.646  -8.636  1.00  0.00     0.046 A
HETATM   12  C11 UNL     1      14.912  11.621  -7.774  1.00  0.00     0.047 A
HETATM   13  C12 UNL     1      14.272  11.105  -6.692  1.00  0.00     0.037 A
HETATM   14  C13 UNL     1      12.902  11.368  -6.248  1.00  0.00     0.070 C
HETATM   15  N4  UNL     1      14.868  10.043  -6.078  1.00  0.00    -0.195 N
ATOM     16  H4  UNL     1      14.414   9.643  -5.258  1.00  0.00     0.184 HD
HETATM   17  C14 UNL     1      16.022   9.495  -6.496  1.00  0.00     0.677 A
HETATM   18  N6  UNL     1      16.629  10.002  -7.574  1.00  0.00    -0.176 N
ATOM     19  H6  UNL     1      17.503   9.587  -7.899  1.00  0.00     0.186 HD
HETATM   20  C15 UNL     1      16.111  11.044  -8.232  1.00  0.00     0.138 A
ENDROOT
BRANCH   1  21
HETATM   21  C3  UNL     1      17.711  11.348 -10.054  1.00  0.00     0.089 C
HETATM   22  C4  UNL     1      18.658  12.535 -10.157  1.00  0.00     0.033 C
BRANCH  21  23
HETATM   23  C2  UNL     1      17.432  10.779 -11.423  1.00  0.00     0.021 C
HETATM   24  C1  UNL     1      18.702  10.198 -12.033  1.00  0.00     0.007 C
ENDBRANCH  21  23
ENDBRANCH   1  21
BRANCH  17  25
HETATM   25  N5  UNL     1      16.478   8.513  -5.831  1.00  0.00    -0.234 N
ATOM     26  H52 UNL     1      17.052   7.775  -6.239  1.00  0.00     0.174 HD
ATOM     27  H51 UNL     1      16.255   8.473  -4.837  1.00  0.00     0.174 HD
ENDBRANCH  17  25
TORSDOF 3
ENDMDL