MODEL 2
REMARK VINA RESULT: -8.269004165      0.987      2.538
REMARK  3 active torsions:
REMARK  status: ('A' for Active; 'I' for Inactive)
REMARK    1  A    between atoms: S1_2  and  C2_3
REMARK    2  A    between atoms: N3_10  and  C5_11
REMARK    3  A    between atoms: C14_20  and  N4_21
ROOT
HETATM    1  C2  UNL     1      12.908  12.325  -5.731  1.00  0.00     0.147 A
HETATM    2  N1  UNL     1      12.764  13.254  -6.687  1.00  0.00    -0.321 N
ATOM      3  H1  UNL     1      12.045  13.968  -6.568  1.00  0.00     0.169 HD
HETATM    4  C3  UNL     1      13.527  13.289  -7.798  1.00  0.00     0.139 A
HETATM    5  N2  UNL     1      13.561  14.108  -8.863  1.00  0.00    -0.336 N
ATOM      6  H2  UNL     1      12.957  14.915  -9.021  1.00  0.00     0.168 HD
HETATM    7  C4  UNL     1      14.537  13.671  -9.687  1.00  0.00     0.185 A
HETATM    8  N3  UNL     1      15.140  12.578  -9.175  1.00  0.00    -0.332 N
HETATM    9  C13 UNL     1      14.523  12.316  -7.984  1.00  0.00     0.124 A
HETATM   10  C14 UNL     1      14.657  11.371  -6.997  1.00  0.00     0.132 A
HETATM   11  N5  UNL     1      13.865  11.393  -5.914  1.00  0.00    -0.321 N
ATOM     12  H5  UNL     1      13.991  10.676  -5.200  1.00  0.00     0.169 HD
ENDROOT
BRANCH   8  13
HETATM   13  C5  UNL     1      16.228  11.806  -9.739  1.00  0.00     0.092 C
HETATM   14  C6  UNL     1      15.939  11.643 -11.227  1.00  0.00     0.030 C
HETATM   15  C7  UNL     1      17.020  10.840 -11.914  1.00  0.00    -0.012 C
HETATM   16  C8  UNL     1      17.703  11.790 -12.902  1.00  0.00     0.005 C
HETATM   17  C11 UNL     1      18.208  10.606 -10.968  1.00  0.00     0.009 C
HETATM   18  C9  UNL     1      18.305  12.802 -11.916  1.00  0.00     0.005 C
HETATM   19  C10 UNL     1      18.552  12.045 -10.637  1.00  0.00    -0.012 C
HETATM   20  C12 UNL     1      17.578  12.455  -9.522  1.00  0.00     0.030 C
ENDBRANCH   8  13
BRANCH  10  21
HETATM   21  N4  UNL     1      15.544  10.464  -7.107  1.00  0.00    -0.383 N
ATOM     22  H42 UNL     1      15.731  10.053  -8.022  1.00  0.00     0.157 HD
ATOM     23  H41 UNL     1      16.057  10.156  -6.281  1.00  0.00     0.157 HD
ENDBRANCH  10  21
BRANCH   1  24
HETATM   24  S1  UNL     1      11.896  12.282  -4.261  1.00  0.00    -0.098 SA
HETATM   25  C1  UNL     1      11.698  14.009  -3.700  1.00  0.00     0.099 C
ENDBRANCH   1  24
TORSDOF 3
ENDMDL