MODEL 3
REMARK VINA RESULT: -7.510221369      1.723      2.345
REMARK  4 active torsions:
REMARK  status: ('A' for Active; 'I' for Inactive)
REMARK    1  A    between atoms: C2_2  and  C5_5
REMARK    2  A    between atoms: C6_6  and  C7_7
REMARK    3  A    between atoms: C8_8  and  C9_9
REMARK    4  A    between atoms: C9_9  and  N1_10
ROOT
HETATM    1  C7  UNL     1      14.518  12.584  -9.759  1.00  0.00     0.055 A
HETATM    2  C8  UNL     1      15.269  11.519 -10.159  1.00  0.00     0.023 A
HETATM    3  S1  UNL     1      15.006  10.353  -8.940  1.00  0.00    -0.075 SA
HETATM    4  C13 UNL     1      13.948  11.242  -7.948  1.00  0.00     0.109 A
HETATM    5  N3  UNL     1      13.308  10.857  -6.702  1.00  0.00    -0.093 NA
HETATM    6  C14 UNL     1      13.823  12.442  -8.598  1.00  0.00     0.095 A
HETATM    7  C15 UNL     1      12.966  13.509  -8.039  1.00  0.00     0.103 C
HETATM    8  N4  UNL     1      12.275  14.343  -7.587  1.00  0.00    -0.191 NA
ENDROOT
BRANCH   1   9
HETATM    9  C6  UNL     1      14.502  13.829 -10.556  1.00  0.00    -0.063 C
HETATM   10  C5  UNL     1      14.518  14.853 -11.212  1.00  0.00    -0.092 C
BRANCH  10  11
HETATM   11  C2  UNL     1      14.565  16.083 -11.999  1.00  0.00     0.013 C
HETATM   12  C1  UNL     1      15.079  17.265 -11.181  1.00  0.00     0.028 C
HETATM   13  C3  UNL     1      15.489  15.845 -13.164  1.00  0.00     0.028 C
HETATM   14  C4  UNL     1      13.174  16.470 -12.467  1.00  0.00     0.028 C
ENDBRANCH  10  11
ENDBRANCH   1   9
BRANCH   2  15
HETATM   15  C9  UNL     1      16.122  11.345 -11.390  1.00  0.00     0.176 C
BRANCH  15  16
HETATM   16  N1  UNL     1      17.312  12.117 -11.373  1.00  0.00    -0.347 N
HETATM   17  C10 UNL     1      17.727  12.889 -12.415  1.00  0.00     0.109 A
HETATM   18  C11 UNL     1      18.911  13.501 -12.102  1.00  0.00     0.106 A
HETATM   19  N2  UNL     1      19.229  13.105 -10.860  1.00  0.00    -0.361 N
HETATM   20  C12 UNL     1      18.247  12.264 -10.433  1.00  0.00     0.182 A
ATOM     21  H2  UNL     1      20.056  13.382 -10.332  1.00  0.00     0.166 HD
ENDBRANCH  15  16
ENDBRANCH   2  15
TORSDOF 4
ENDMDL