MODEL 2
REMARK VINA RESULT: -8.190501567      1.476      1.570
REMARK  2 active torsions:
REMARK  status: ('A' for Active; 'I' for Inactive)
REMARK    1  A    between atoms: C5_5  and  C6_6
REMARK    2  A    between atoms: C13_16  and  N2_17
ROOT
HETATM    1  C1  UNL     1      13.462  15.298  -9.620  1.00  0.00     0.045 C
HETATM    2  C2  UNL     1      14.395  14.763 -10.700  1.00  0.00    -0.057 C
HETATM    3  C3  UNL     1      14.817  15.856 -11.580  1.00  0.00     0.045 C
HETATM    4  C4  UNL     1      15.308  13.741 -10.257  1.00  0.00     0.083 A
HETATM    5  C5  UNL     1      16.423  13.189 -10.786  1.00  0.00     0.045 A
HETATM    6  N1  UNL     1      16.824  12.192  -9.945  1.00  0.00    -0.339 N
ATOM      7  H1  UNL     1      17.639  11.595 -10.083  1.00  0.00     0.167 HD
HETATM    8  C12 UNL     1      15.995  12.123  -8.929  1.00  0.00     0.172 A
HETATM    9  C13 UNL     1      16.014  11.265  -7.844  1.00  0.00     0.146 A
HETATM   10  N3  UNL     1      15.028  11.407  -6.930  1.00  0.00    -0.335 N
ATOM     11  H3  UNL     1      15.009  10.793  -6.116  1.00  0.00     0.168 HD
HETATM   12  C14 UNL     1      14.067  12.346  -7.075  1.00  0.00     0.199 A
HETATM   13  N4  UNL     1      14.132  13.123  -8.148  1.00  0.00    -0.287 N
ATOM     14  H4  UNL     1      13.407  13.831  -8.257  1.00  0.00     0.188 HD
HETATM   15  N5  UNL     1      15.068  13.052  -9.095  1.00  0.00    -0.234 N
ENDROOT
BRANCH   5  16
HETATM   16  C6  UNL     1      17.147  13.601 -11.999  1.00  0.00     0.049 C
HETATM   17  C7  UNL     1      17.629  12.289 -12.661  1.00  0.00     0.085 C
HETATM   18  S1  UNL     1      19.224  11.967 -11.879  1.00  0.00    -0.159 SA
HETATM   19  C8  UNL     1      19.586  13.694 -11.486  1.00  0.00     0.001 C
HETATM   20  C9  UNL     1      20.020  13.765 -10.034  1.00  0.00     0.026 C
HETATM   21  C10 UNL     1      20.729  14.193 -12.338  1.00  0.00     0.026 C
HETATM   22  C11 UNL     1      18.331  14.443 -11.755  1.00  0.00     0.031 C
ENDBRANCH   5  16
BRANCH   9  23
HETATM   23  N2  UNL     1      16.932  10.375  -7.721  1.00  0.00    -0.382 N
ATOM     24  H22 UNL     1      17.899  10.623  -7.515  1.00  0.00     0.157 HD
ATOM     25  H21 UNL     1      16.718   9.383  -7.825  1.00  0.00     0.157 HD
ENDBRANCH   9  23
TORSDOF 2
ENDMDL