MODEL 2
REMARK VINA RESULT: -6.946009679      1.737      3.792
REMARK  2 active torsions:
REMARK  status: ('A' for Active; 'I' for Inactive)
REMARK    1  A    between atoms: C2_2  and  C3_3
REMARK    2  A    between atoms: C8_12  and  C9_13
ROOT
HETATM    1  C3  UNL     1      17.179  11.872 -11.941  1.00  0.00     0.028 C
HETATM    2  C4  UNL     1      15.948  11.766 -10.988  1.00  0.00     0.060 C
HETATM    3  C5  UNL     1      15.193  12.993 -10.862  1.00  0.00    -0.001 C
HETATM    4  N1  UNL     1      13.918  12.945 -10.717  1.00  0.00    -0.404 N
ATOM      5  H11 UNL     1      13.385  13.810 -10.628  1.00  0.00     0.155 HD
ATOM      6  H12 UNL     1      13.489  12.020 -10.696  1.00  0.00     0.155 HD
HETATM    7  C6  UNL     1      15.814  14.327 -10.892  1.00  0.00     0.150 C
HETATM    8  C7  UNL     1      14.834  15.363 -11.290  1.00  0.00     0.070 C
HETATM    9  N2  UNL     1      14.090  16.175 -11.605  1.00  0.00    -0.197 NA
HETATM   10  C8  UNL     1      16.831  14.255 -12.060  1.00  0.00     0.098 C
HETATM   11  C13 UNL     1      17.806  13.168 -11.577  1.00  0.00     0.152 C
HETATM   12  C14 UNL     1      19.138  13.336 -12.084  1.00  0.00     0.085 C
HETATM   13  N5  UNL     1      20.233  13.488 -12.458  1.00  0.00    -0.195 NA
HETATM   14  C15 UNL     1      17.850  13.167 -10.074  1.00  0.00     0.085 C
HETATM   15  N6  UNL     1      17.912  13.158  -8.904  1.00  0.00    -0.195 NA
ENDROOT
BRANCH  10  16
HETATM   16  C9  UNL     1      17.444  15.558 -12.283  1.00  0.00     0.041 A
HETATM   17  N3  UNL     1      18.414  16.134 -11.545  1.00  0.00    -0.354 N
HETATM   18  C10 UNL     1      18.767  17.324 -12.061  1.00  0.00     0.180 A
ATOM     19  H3  UNL     1      18.825  15.723 -10.708  1.00  0.00     0.166 HD
HETATM   20  N4  UNL     1      18.012  17.520 -13.151  1.00  0.00    -0.354 N
HETATM   21  C11 UNL     1      17.199  16.450 -13.299  1.00  0.00     0.029 A
ATOM     22  H4  UNL     1      18.046  18.335 -13.763  1.00  0.00     0.166 HD
HETATM   23  C12 UNL     1      16.185  16.380 -14.404  1.00  0.00     0.070 C
ENDBRANCH  10  16
BRANCH   1  24
HETATM   24  C2  UNL     1      17.943  10.625 -11.677  1.00  0.00     0.003 C
HETATM   25  C1  UNL     1      18.611   9.960 -12.819  1.00  0.00     0.005 C
ENDBRANCH   1  24
TORSDOF 2
ENDMDL