MODEL 4
REMARK VINA RESULT: -6.527796212      1.114      1.500
REMARK  4 active torsions:
REMARK  status: ('A' for Active; 'I' for Inactive)
REMARK    1  A    between atoms: C2_2  and  N1_5
REMARK    2  A    between atoms: N1_5  and  C5_7
REMARK    3  A    between atoms: C6_10  and  C7_11
REMARK       I    between atoms: C7_11  and  N2_13
REMARK    4  A    between atoms: N2_13  and  C8_15
ROOT
HETATM    1  C5  UNL     1      14.979  12.391  -8.629  1.00  0.00     0.100 A
HETATM    2  S1  UNL     1      14.046  13.733  -8.983  1.00  0.00    -0.033 SA
HETATM    3  S2  UNL     1      14.520  13.399 -10.859  1.00  0.00    -0.043 SA
HETATM    4  C6  UNL     1      15.287  12.189  -9.937  1.00  0.00     0.114 A
ENDROOT
BRANCH   4   5
HETATM    5  C7  UNL     1      16.130  11.136 -10.577  1.00  0.00     0.267 C
HETATM    6  O1  UNL     1      15.585  10.407 -11.432  1.00  0.00    -0.267 OA
HETATM    7  N2  UNL     1      17.502  10.938 -10.253  1.00  0.00    -0.302 N
ATOM      8  H2  UNL     1      17.830  10.109  -9.757  1.00  0.00     0.171 HD
BRANCH   7   9
HETATM    9  C8  UNL     1      18.319  11.896 -10.637  1.00  0.00     0.151 A
HETATM   10  N3  UNL     1      18.841  12.864  -9.887  1.00  0.00    -0.346 N
HETATM   11  C9  UNL     1      19.636  13.729 -10.445  1.00  0.00     0.097 A
ATOM     12  H3  UNL     1      18.621  12.926  -8.893  1.00  0.00     0.167 HD
HETATM   13  C10 UNL     1      19.893  13.593 -11.784  1.00  0.00     0.070 A
HETATM   14  S3  UNL     1      18.968  12.213 -12.182  1.00  0.00    -0.064 SA
ENDBRANCH   7   9
ENDBRANCH   4   5
BRANCH   1  15
HETATM   15  N1  UNL     1      15.306  11.729  -7.385  1.00  0.00    -0.374 N
ATOM     16  H1  UNL     1      16.117  12.050  -6.855  1.00  0.00     0.161 HD
BRANCH  15  17
HETATM   17  C2  UNL     1      14.537  10.648  -6.875  1.00  0.00     0.020 C
HETATM   18  C1  UNL     1      15.316   9.727  -5.971  1.00  0.00     0.037 C
HETATM   19  C3  UNL     1      13.418  11.249  -6.015  1.00  0.00     0.037 C
HETATM   20  C4  UNL     1      13.909   9.875  -8.003  1.00  0.00     0.037 C
ENDBRANCH  15  17
ENDBRANCH   1  15
TORSDOF 4
ENDMDL