MODEL 3
REMARK VINA RESULT: -8.423876822      3.127      4.351
REMARK  8 active torsions:
REMARK  status: ('A' for Active; 'I' for Inactive)
REMARK    1  A    between atoms: C2_2  and  C21_26
REMARK    2  A    between atoms: C3_3  and  C4_4
REMARK    3  A    between atoms: C4_4  and  C5_5
REMARK    4  A    between atoms: C5_5  and  C6_6
REMARK    5  A    between atoms: C6_6  and  O2_8
REMARK    6  A    between atoms: O2_8  and  C7_9
REMARK    7  A    between atoms: C7_9  and  C8_10
REMARK    8  A    between atoms: C16_19  and  O4_20
ROOT
HETATM    1  C8  UNL     1       2.065  -7.163 -24.011  1.00  0.00     0.146 C
HETATM    2  C9  UNL     1       2.487  -7.812 -25.282  1.00  0.00     0.042 C
HETATM    3  C10 UNL     1       1.634  -9.032 -25.402  1.00  0.00     0.026 C
HETATM    4  C11 UNL     1       0.981  -9.113 -24.040  1.00  0.00     0.132 C
HETATM    5  O3  UNL     1       0.918  -7.807 -23.563  1.00  0.00    -0.378 OA
HETATM    6  C12 UNL     1      -0.272  -9.533 -24.733  1.00  0.00     0.034 C
HETATM    7  C13 UNL     1      -0.564 -10.970 -24.857  1.00  0.00    -0.015 C
HETATM    8  C14 UNL     1       0.622 -11.890 -24.867  1.00  0.00     0.018 C
HETATM    9  C15 UNL     1      -1.376 -11.365 -23.609  1.00  0.00     0.018 C
HETATM   10  C16 UNL     1      -1.455 -11.236 -26.027  1.00  0.00     0.126 C
HETATM   11  C17 UNL     1      -1.153 -10.490 -27.265  1.00  0.00     0.033 C
HETATM   12  C18 UNL     1       0.023  -9.590 -27.234  1.00  0.00     0.012 C
HETATM   13  C19 UNL     1       0.241  -8.844 -25.968  1.00  0.00    -0.031 C
HETATM   14  C20 UNL     1      -0.249  -7.429 -26.022  1.00  0.00     0.016 C
ENDROOT
BRANCH   1  15
HETATM   15  C7  UNL     1       3.147  -7.157 -22.962  1.00  0.00     0.210 C
BRANCH  15  16
HETATM   16  O2  UNL     1       4.154  -8.109 -23.159  1.00  0.00    -0.319 OA
BRANCH  16  17
HETATM   17  C6  UNL     1       4.370  -9.243 -22.414  1.00  0.00     0.259 C
HETATM   18  O1  UNL     1       5.075  -9.166 -21.383  1.00  0.00    -0.265 OA
BRANCH  17  19
HETATM   19  C5  UNL     1       3.801 -10.574 -22.776  1.00  0.00     0.115 C
BRANCH  19  20
HETATM   20  C4  UNL     1       4.688 -11.137 -23.872  1.00  0.00     0.037 C
BRANCH  20  21
HETATM   21  C3  UNL     1       4.197 -12.471 -24.277  1.00  0.00    -0.013 C
HETATM   22  C2  UNL     1       5.026 -13.441 -24.581  1.00  0.00     0.011 C
HETATM   23  C1  UNL     1       6.493 -13.238 -24.531  1.00  0.00     0.055 C
BRANCH  22  24
HETATM   24  C21 UNL     1       4.501 -14.734 -24.970  1.00  0.00     0.204 C
HETATM   25  O5  UNL     1       3.262 -14.957 -24.982  1.00  0.00    -0.644 OA
HETATM   26  O6  UNL     1       5.362 -15.747 -25.338  1.00  0.00    -0.644 OA
ENDBRANCH  22  24
ENDBRANCH  20  21
ENDBRANCH  19  20
ENDBRANCH  17  19
ENDBRANCH  16  17
ENDBRANCH  15  16
ENDBRANCH   1  15
BRANCH  10  27
HETATM   27  O4  UNL     1      -2.771 -10.930 -25.624  1.00  0.00    -0.395 OA
ATOM     28  H4  UNL     1      -2.827  -9.985 -25.546  1.00  0.00     0.210 HD
ENDBRANCH  10  27
TORSDOF 8
ENDMDL