MODEL 2
REMARK VINA RESULT: -7.171466067      3.889      6.108
REMARK  6 active torsions:
REMARK  status: ('A' for Active; 'I' for Inactive)
REMARK    1  A    between atoms: C2_2  and  C4_4
REMARK    2  A    between atoms: C4_4  and  C5_5
REMARK    3  A    between atoms: C9_9  and  O1_10
REMARK    4  A    between atoms: N3_19  and  S2_20
REMARK    5  A    between atoms: S2_20  and  C13_23
REMARK    6  A    between atoms: C13_23  and  C14_24
ROOT
HETATM    1  C5  UNL     1       3.163 -11.417 -24.142  1.00  0.00     0.079 C
HETATM    2  C6  UNL     1       3.213 -10.419 -25.276  1.00  0.00     0.058 C
HETATM    3  C7  UNL     1       2.040  -9.518 -24.966  1.00  0.00    -0.033 C
HETATM    4  C8  UNL     1       1.679  -8.510 -25.906  1.00  0.00     0.091 A
HETATM    5  C9  UNL     1       0.631  -8.542 -26.851  1.00  0.00     0.170 A
HETATM    6  N1  UNL     1       0.523  -7.345 -27.464  1.00  0.00    -0.312 N
ATOM      7  H1  UNL     1      -0.149  -7.096 -28.189  1.00  0.00     0.170 HD
HETATM    8  C10 UNL     1       1.456  -6.550 -26.948  1.00  0.00     0.180 A
HETATM    9  S1  UNL     1       1.684  -4.985 -27.384  1.00  0.00    -0.040 SA
HETATM   10  N2  UNL     1       2.157  -7.233 -26.015  1.00  0.00    -0.324 N
HETATM   11  C11 UNL     1       3.205  -6.639 -25.203  1.00  0.00     0.159 C
HETATM   12  C12 UNL     1       1.136 -10.278 -24.133  1.00  0.00     0.144 C
HETATM   13  N3  UNL     1       1.990 -11.251 -23.414  1.00  0.00    -0.202 NA
ENDROOT
BRANCH   1  14
HETATM   14  C4  UNL     1       4.474 -11.468 -23.373  1.00  0.00     0.025 C
BRANCH  14  15
HETATM   15  C2  UNL     1       5.564 -12.074 -24.285  1.00  0.00    -0.021 C
HETATM   16  C1  UNL     1       5.245 -13.516 -24.581  1.00  0.00     0.009 C
HETATM   17  C3  UNL     1       6.883 -11.903 -23.583  1.00  0.00     0.009 C
ENDBRANCH  14  15
ENDBRANCH   1  14
BRANCH   5  18
HETATM   18  O1  UNL     1      -0.153  -9.647 -27.112  1.00  0.00    -0.344 OA
ATOM     19  H1  UNL     1      -0.960  -9.854 -26.655  1.00  0.00     0.219 HD
ENDBRANCH   5  18
BRANCH  13  20
HETATM   20  S2  UNL     1       1.124 -12.739 -23.306  1.00  0.00     0.212 S
HETATM   21  O2  UNL     1       0.715 -13.037 -21.861  1.00  0.00    -0.211 OA
HETATM   22  O3  UNL     1       1.953 -13.882 -23.817  1.00  0.00    -0.211 OA
BRANCH  20  23
HETATM   23  C13 UNL     1      -0.361 -12.603 -24.227  1.00  0.00     0.161 C
BRANCH  23  24
HETATM   24  C14 UNL     1      -1.497 -11.910 -23.537  1.00  0.00    -0.007 C
HETATM   25  C15 UNL     1      -2.408 -13.053 -23.035  1.00  0.00     0.010 C
HETATM   26  C16 UNL     1      -2.387 -11.143 -24.519  1.00  0.00     0.010 C
ENDBRANCH  23  24
ENDBRANCH  20  23
ENDBRANCH  13  20
TORSDOF 6
ENDMDL