MODEL 4
REMARK VINA RESULT: -9.058401427      1.230      3.012
REMARK  7 active torsions:
REMARK  status: ('A' for Active; 'I' for Inactive)
REMARK    1  A    between atoms: C2_2  and  C3_3
REMARK    2  A    between atoms: C3_3  and  N1_4
REMARK    3  A    between atoms: N1_4  and  C5_6
REMARK    4  A    between atoms: C9_12  and  N3_13
REMARK    5  A    between atoms: N3_13  and  C10_15
REMARK    6  A    between atoms: C12_17  and  C13_18
REMARK    7  A    between atoms: N4_21  and  C16_22
ROOT
HETATM    1  C10 UNL     1       3.996 -12.210 -23.997  1.00  0.00     0.137 A
HETATM    2  C11 UNL     1       5.285 -12.613 -24.237  1.00  0.00     0.077 A
HETATM    3  C12 UNL     1       5.279 -13.947 -24.649  1.00  0.00     0.033 A
HETATM    4  N5  UNL     1       3.999 -14.304 -24.644  1.00  0.00    -0.303 N
ATOM      5  H5  UNL     1       3.655 -15.230 -24.898  1.00  0.00     0.186 HD
HETATM    6  N6  UNL     1       3.241 -13.307 -24.268  1.00  0.00    -0.285 N
ATOM      7  H6  UNL     1       2.224 -13.347 -24.189  1.00  0.00     0.188 HD
ENDROOT
BRANCH   1   8
HETATM    8  N3  UNL     1       3.487 -11.105 -23.617  1.00  0.00    -0.175 N
ATOM      9  H3  UNL     1       3.715 -10.772 -22.680  1.00  0.00     0.186 HD
BRANCH   8  10
HETATM   10  C9  UNL     1       2.627 -10.312 -24.413  1.00  0.00     0.685 A
HETATM   11  N2  UNL     1       3.003  -9.131 -24.930  1.00  0.00    -0.196 N
HETATM   12  C7  UNL     1       2.225  -8.347 -25.693  1.00  0.00     0.026 A
ATOM     13  H2  UNL     1       3.948  -8.806 -24.727  1.00  0.00     0.184 HD
HETATM   14  C6  UNL     1       0.952  -8.802 -25.957  1.00  0.00     0.074 A
HETATM   15  C8  UNL     1       2.678  -7.042 -26.244  1.00  0.00     0.069 C
HETATM   16  C5  UNL     1       0.513 -10.024 -25.442  1.00  0.00     0.120 A
HETATM   17  N7  UNL     1       1.360 -10.736 -24.691  1.00  0.00    -0.176 N
ATOM     18  H7  UNL     1       1.048 -11.629 -24.311  1.00  0.00     0.186 HD
BRANCH  16  19
HETATM   19  N1  UNL     1      -0.809 -10.462 -25.742  1.00  0.00    -0.371 N
HETATM   20  C4  UNL     1      -1.196 -10.510 -27.136  1.00  0.00     0.151 C
BRANCH  19  21
HETATM   21  C3  UNL     1      -1.714 -10.840 -24.680  1.00  0.00     0.123 C
BRANCH  21  22
HETATM   22  C2  UNL     1      -1.521 -12.288 -24.268  1.00  0.00     0.015 C
HETATM   23  C1  UNL     1      -2.008 -12.466 -22.853  1.00  0.00     0.006 C
ENDBRANCH  21  22
ENDBRANCH  19  21
ENDBRANCH  16  19
ENDBRANCH   8  10
ENDBRANCH   1   8
BRANCH   3  24
HETATM   24  C13 UNL     1       6.509 -14.691 -24.993  1.00  0.00     0.040 C
HETATM   25  C14 UNL     1       6.738 -14.847 -26.463  1.00  0.00     0.030 C
HETATM   26  C15 UNL     1       8.093 -14.480 -26.935  1.00  0.00     0.118 C
HETATM   27  N4  UNL     1       9.176 -14.758 -26.071  1.00  0.00    -0.409 N
HETATM   28  C19 UNL     1       8.874 -14.957 -24.690  1.00  0.00     0.118 C
HETATM   29  C20 UNL     1       7.721 -14.055 -24.302  1.00  0.00     0.030 C
BRANCH  27  30
HETATM   30  C16 UNL     1      10.384 -14.042 -26.321  1.00  0.00     0.070 C
HETATM   31  C17 UNL     1      11.361 -14.183 -25.169  1.00  0.00     0.031 C
HETATM   32  C18 UNL     1      11.094 -14.359 -27.590  1.00  0.00     0.031 C
ENDBRANCH  27  30
ENDBRANCH   3  24
TORSDOF 7
ENDMDL