MODEL 1
REMARK VINA RESULT: -8.771692500      0.000      0.000
REMARK  6 active torsions:
REMARK  status: ('A' for Active; 'I' for Inactive)
REMARK    1  A    between atoms: C2_2  and  C4_4
REMARK    2  A    between atoms: C11_11  and  N1_12
REMARK       I    between atoms: N1_12  and  C12_14
REMARK    3  A    between atoms: C12_14  and  C13_16
REMARK    4  A    between atoms: C13_16  and  S1_17
REMARK    5  A    between atoms: S1_17  and  C14_18
REMARK    6  A    between atoms: N4_24  and  C16_26
ROOT
HETATM    1  N1  UNL     1       7.518 -11.897 -24.636  1.00  0.00    -0.355 N
ATOM      2  H1  UNL     1       7.249 -11.514 -25.543  1.00  0.00     0.162 HD
HETATM    3  C12 UNL     1       7.101 -11.196 -23.490  1.00  0.00     0.227 C
HETATM    4  O1  UNL     1       7.328 -11.539 -22.326  1.00  0.00    -0.273 OA
ENDROOT
BRANCH   3   5
HETATM    5  C13 UNL     1       6.313  -9.927 -23.750  1.00  0.00     0.184 C
BRANCH   5   6
HETATM    6  S1  UNL     1       5.279  -9.511 -22.323  1.00  0.00    -0.094 SA
BRANCH   6   7
HETATM    7  C14 UNL     1       3.586  -9.303 -22.926  1.00  0.00     0.130 A
HETATM    8  N2  UNL     1       2.863  -8.195 -22.976  1.00  0.00    -0.286 N
HETATM    9  N3  UNL     1       1.697  -8.206 -23.473  1.00  0.00    -0.279 N
ATOM     10  H2  UNL     1       3.248  -7.324 -22.610  1.00  0.00     0.188 HD
HETATM   11  C15 UNL     1       1.217  -9.367 -23.946  1.00  0.00     0.162 A
ATOM     12  H3  UNL     1       1.137  -7.354 -23.513  1.00  0.00     0.189 HD
HETATM   13  N4  UNL     1       0.035  -9.556 -24.493  1.00  0.00    -0.365 N
HETATM   14  S2  UNL     1       2.514 -10.430 -23.642  1.00  0.00    -0.027 SA
ATOM     15  H4  UNL     1      -0.631  -8.790 -24.598  1.00  0.00     0.162 HD
BRANCH  13  16
HETATM   16  C16 UNL     1      -0.280 -10.890 -24.937  1.00  0.00     0.083 A
HETATM   17  C17 UNL     1      -1.223 -11.721 -24.150  1.00  0.00     0.027 A
HETATM   18  C18 UNL     1      -1.734 -11.061 -25.375  1.00  0.00     0.027 A
ENDBRANCH  13  16
ENDBRANCH   6   7
ENDBRANCH   5   6
ENDBRANCH   3   5
BRANCH   1  19
HETATM   19  C11 UNL     1       8.308 -13.135 -24.634  1.00  0.00     0.093 C
HETATM   20  C4  UNL     1       7.516 -14.357 -24.702  1.00  0.00     0.034 C
HETATM   21  C5  UNL     1       8.430 -15.522 -24.903  1.00  0.00    -0.023 C
HETATM   22  C6  UNL     1       9.657 -15.429 -25.327  1.00  0.00    -0.021 C
HETATM   23  C7  UNL     1      10.331 -14.157 -25.678  1.00  0.00    -0.028 C
HETATM   24  C8  UNL     1      10.855 -14.342 -27.117  1.00  0.00     0.019 C
HETATM   25  C9  UNL     1      11.591 -14.063 -24.831  1.00  0.00     0.019 C
HETATM   26  C10 UNL     1       9.456 -12.975 -25.610  1.00  0.00     0.038 C
BRANCH  20  27
HETATM   27  C2  UNL     1       6.394 -14.534 -25.640  1.00  0.00    -0.013 C
HETATM   28  C1  UNL     1       6.623 -14.840 -27.053  1.00  0.00     0.010 C
HETATM   29  C3  UNL     1       5.434 -15.634 -25.136  1.00  0.00     0.010 C
ENDBRANCH  20  27
ENDBRANCH   1  19
TORSDOF 6
ENDMDL