MODEL 5
REMARK VINA RESULT: -8.177017357      3.326      3.785
REMARK  7 active torsions:
REMARK  status: ('A' for Active; 'I' for Inactive)
REMARK    1  A    between atoms: C2_2  and  C4_4
REMARK    2  A    between atoms: C4_4  and  C5_5
REMARK    3  A    between atoms: C8_13  and  C9_14
REMARK    4  A    between atoms: N3_15  and  C10_17
REMARK    5  A    between atoms: C13_20  and  C14_21
REMARK    6  A    between atoms: C15_22  and  C16_23
REMARK    7  A    between atoms: C16_23  and  N4_24
ROOT
HETATM    1  C5  UNL     1       0.312 -10.106 -25.571  1.00  0.00     0.044 C
HETATM    2  N1  UNL     1      -0.274 -10.994 -24.919  1.00  0.00    -0.365 N
ATOM      3  H1  UNL     1      -1.088 -11.460 -25.318  1.00  0.00     0.162 HD
HETATM    4  C6  UNL     1       0.174 -11.355 -23.652  1.00  0.00     0.199 C
HETATM    5  N2  UNL     1       0.046 -12.780 -23.503  1.00  0.00    -0.338 N
ATOM      6  H2  UNL     1      -0.760 -13.277 -23.123  1.00  0.00     0.164 HD
HETATM    7  C7  UNL     1       1.244 -13.366 -23.983  1.00  0.00     0.229 C
HETATM    8  O1  UNL     1       1.541 -14.584 -24.071  1.00  0.00    -0.273 OA
HETATM    9  C8  UNL     1       2.180 -12.279 -24.403  1.00  0.00     0.134 C
HETATM   10  C19 UNL     1       1.693 -11.144 -23.569  1.00  0.00     0.114 C
HETATM   11  S1  UNL     1       1.685  -9.575 -24.549  1.00  0.00    -0.107 SA
ENDROOT
BRANCH   9  12
HETATM   12  C9  UNL     1       3.591 -12.621 -24.270  1.00  0.00     0.078 C
HETATM   13  N3  UNL     1       4.064 -13.532 -25.052  1.00  0.00    -0.355 N
ATOM     14  H3  UNL     1       3.411 -13.952 -25.714  1.00  0.00     0.166 HD
BRANCH  13  15
HETATM   15  C10 UNL     1       5.381 -14.003 -25.084  1.00  0.00     0.105 A
HETATM   16  C11 UNL     1       5.745 -15.327 -25.111  1.00  0.00     0.051 A
HETATM   17  C12 UNL     1       7.123 -15.355 -25.133  1.00  0.00     0.033 A
HETATM   18  C13 UNL     1       7.535 -14.037 -25.117  1.00  0.00     0.033 A
HETATM   19  N5  UNL     1       6.471 -13.227 -25.088  1.00  0.00    -0.343 N
ATOM     20  H5  UNL     1       6.488 -12.208 -25.071  1.00  0.00     0.167 HD
BRANCH  18  21
HETATM   21  C14 UNL     1       8.917 -13.566 -25.126  1.00  0.00     0.027 C
HETATM   22  C15 UNL     1       9.884 -14.436 -25.347  1.00  0.00     0.005 C
BRANCH  22  23
HETATM   23  C16 UNL     1      11.314 -14.048 -25.373  1.00  0.00     0.299 C
BRANCH  23  24
HETATM   24  N4  UNL     1      11.967 -14.700 -26.467  1.00  0.00     0.083 N
HETATM   25  C17 UNL     1      13.385 -14.460 -26.385  1.00  0.00     0.309 C
HETATM   26  C18 UNL     1      11.407 -14.338 -27.736  1.00  0.00     0.309 C
ENDBRANCH  23  24
ENDBRANCH  22  23
ENDBRANCH  18  21
ENDBRANCH  13  15
ENDBRANCH   9  12
BRANCH   1  27
HETATM   27  C4  UNL     1      -0.006  -9.593 -26.902  1.00  0.00     0.068 C
BRANCH  27  28
HETATM   28  C2  UNL     1       0.677  -8.268 -27.179  1.00  0.00    -0.017 C
HETATM   29  C1  UNL     1       1.061  -8.149 -28.635  1.00  0.00     0.010 C
HETATM   30  C3  UNL     1      -0.217  -7.096 -26.834  1.00  0.00     0.010 C
ENDBRANCH  27  28
ENDBRANCH   1  27
TORSDOF 7
ENDMDL