MODEL 3
REMARK VINA RESULT: -9.624150891      3.678      7.402
REMARK  9 active torsions:
REMARK  status: ('A' for Active; 'I' for Inactive)
REMARK    1  A    between atoms: C2_2  and  C3_3
REMARK    2  A    between atoms: C8_8  and  C9_9
REMARK    3  A    between atoms: C9_9  and  C10_10
REMARK    4  A    between atoms: C14_14  and  O1_15
REMARK    5  A    between atoms: O1_15  and  C15_16
REMARK    6  A    between atoms: C18_19  and  O2_20
REMARK    7  A    between atoms: O2_20  and  C19_21
REMARK    8  A    between atoms: C21_24  and  O4_25
REMARK    9  A    between atoms: C22_27  and  O5_28
ROOT
HETATM    1  O1  UNL     1       3.774 -11.415 -24.500  1.00  0.00    -0.338 OA
ENDROOT
BRANCH   1   2
HETATM    2  C14 UNL     1       5.016 -11.965 -24.349  1.00  0.00     0.087 A
HETATM    3  C3  UNL     1       5.278 -13.283 -24.775  1.00  0.00     0.003 A
HETATM    4  C4  UNL     1       6.510 -13.881 -24.635  1.00  0.00    -0.049 A
HETATM    5  C5  UNL     1       6.880 -15.239 -25.075  1.00  0.00     0.049 C
HETATM    6  C6  UNL     1       7.553 -13.155 -24.044  1.00  0.00     0.008 A
HETATM    7  C7  UNL     1       7.277 -11.878 -23.639  1.00  0.00     0.011 A
HETATM    8  C8  UNL     1       6.044 -11.270 -23.776  1.00  0.00    -0.020 A
BRANCH   3   9
HETATM    9  C2  UNL     1       4.212 -14.035 -25.391  1.00  0.00     0.004 C
HETATM   10  C1  UNL     1       3.346 -14.844 -24.855  1.00  0.00     0.012 C
ENDBRANCH   3   9
BRANCH   8  11
HETATM   11  C9  UNL     1       5.925  -9.862 -23.299  1.00  0.00     0.068 C
BRANCH  11  12
HETATM   12  C10 UNL     1       7.188  -9.119 -23.406  1.00  0.00    -0.020 C
HETATM   13  C11 UNL     1       7.158  -7.819 -23.680  1.00  0.00    -0.091 C
HETATM   14  C12 UNL     1       8.421  -7.005 -23.801  1.00  0.00     0.042 C
HETATM   15  C13 UNL     1       5.876  -7.081 -23.887  1.00  0.00     0.042 C
ENDBRANCH  11  12
ENDBRANCH   8  11
ENDBRANCH   1   2
BRANCH   1  16
HETATM   16  C15 UNL     1       2.714 -11.288 -23.630  1.00  0.00     0.183 C
HETATM   17  C16 UNL     1       1.417 -11.904 -24.163  1.00  0.00     0.006 C
HETATM   18  C17 UNL     1       0.415 -11.145 -24.571  1.00  0.00     0.006 C
HETATM   19  C18 UNL     1       0.383  -9.661 -24.580  1.00  0.00     0.185 C
HETATM   20  C21 UNL     1       1.732  -9.123 -24.396  1.00  0.00     0.182 C
HETATM   21  C22 UNL     1       2.348  -9.893 -23.210  1.00  0.00     0.182 C
BRANCH  19  22
HETATM   22  O2  UNL     1      -0.391  -9.149 -25.617  1.00  0.00    -0.310 OA
BRANCH  22  23
HETATM   23  C19 UNL     1      -0.352  -9.521 -26.934  1.00  0.00     0.255 C
HETATM   24  C20 UNL     1      -1.324 -10.426 -27.587  1.00  0.00     0.126 C
HETATM   25  O3  UNL     1       0.581  -9.043 -27.591  1.00  0.00    -0.266 OA
ENDBRANCH  22  23
ENDBRANCH  19  22
BRANCH  20  26
HETATM   26  O4  UNL     1       2.603  -9.326 -25.460  1.00  0.00    -0.390 OA
ATOM     27  H4  UNL     1       3.411  -8.828 -25.424  1.00  0.00     0.210 HD
ENDBRANCH  20  26
BRANCH  21  28
HETATM   28  O5  UNL     1       3.299  -9.118 -22.658  1.00  0.00    -0.390 OA
ATOM     29  H5  UNL     1       4.207  -9.286 -22.879  1.00  0.00     0.210 HD
ENDBRANCH  21  28
ENDBRANCH   1  16
TORSDOF 9
ENDMDL