MODEL 5
REMARK VINA RESULT: -8.138371320      2.845      5.473
REMARK  6 active torsions:
REMARK  status: ('A' for Active; 'I' for Inactive)
REMARK    1  A    between atoms: C2_2  and  C4_4
REMARK    2  A    between atoms: C4_4  and  N1_5
REMARK       I    between atoms: N1_5  and  C5_7
REMARK    3  A    between atoms: C5_7  and  C6_9
REMARK    4  A    between atoms: C7_10  and  C8_11
REMARK    5  A    between atoms: C14_19  and  C15_20
REMARK    6  A    between atoms: C18_25  and  N3_26
ROOT
HETATM    1  C6  UNL     1       4.112 -10.312 -24.390  1.00  0.00     0.100 C
HETATM    2  C7  UNL     1       4.179  -9.055 -23.560  1.00  0.00     0.101 C
HETATM    3  C9  UNL     1       5.653  -8.791 -23.312  1.00  0.00     0.025 C
HETATM    4  C10 UNL     1       6.332  -9.858 -22.550  1.00  0.00    -0.046 C
HETATM    5  C11 UNL     1       7.840  -9.681 -22.775  1.00  0.00     0.015 C
HETATM    6  C12 UNL     1       6.128  -9.588 -21.065  1.00  0.00     0.015 C
HETATM    7  C13 UNL     1       5.939 -11.249 -22.897  1.00  0.00     0.019 C
HETATM    8  C14 UNL     1       4.613 -11.438 -23.518  1.00  0.00     0.034 C
ENDROOT
BRANCH   8   9
HETATM    9  C15 UNL     1       4.592 -12.744 -24.278  1.00  0.00    -0.035 A
HETATM   10  C16 UNL     1       3.454 -13.502 -24.437  1.00  0.00     0.095 A
HETATM   11  N2  UNL     1       3.435 -14.661 -25.110  1.00  0.00    -0.372 N
HETATM   12  C17 UNL     1       4.543 -15.138 -25.670  1.00  0.00     0.123 A
ATOM     13  H2  UNL     1       2.562 -15.182 -25.194  1.00  0.00     0.164 HD
HETATM   14  C18 UNL     1       5.721 -14.442 -25.558  1.00  0.00     0.118 A
HETATM   15  C19 UNL     1       5.736 -13.247 -24.862  1.00  0.00     0.046 A
BRANCH  14  16
HETATM   16  N3  UNL     1       6.924 -14.908 -26.134  1.00  0.00    -0.114 N
HETATM   17  O4  UNL     1       6.972 -15.208 -27.328  1.00  0.00    -0.532 OA
HETATM   18  O5  UNL     1       8.036 -15.024 -25.355  1.00  0.00    -0.532 OA
ENDBRANCH  14  16
ENDBRANCH   8   9
BRANCH   1  19
HETATM   19  C5  UNL     1       2.690 -10.551 -24.714  1.00  0.00     0.223 C
HETATM   20  N1  UNL     1       1.744 -10.768 -23.705  1.00  0.00    -0.360 N
ATOM     21  H1  UNL     1       2.021 -10.759 -22.724  1.00  0.00     0.162 HD
HETATM   22  O1  UNL     1       2.333 -10.560 -25.906  1.00  0.00    -0.273 OA
BRANCH  20  23
HETATM   23  C4  UNL     1       0.352 -11.008 -24.082  1.00  0.00     0.126 C
BRANCH  23  24
HETATM   24  C2  UNL     1      -0.091 -12.399 -23.784  1.00  0.00    -0.005 C
HETATM   25  C1  UNL     1      -1.598 -12.462 -23.573  1.00  0.00     0.011 C
HETATM   26  C3  UNL     1       0.571 -12.996 -22.575  1.00  0.00     0.011 C
ENDBRANCH  23  24
ENDBRANCH  20  23
ENDBRANCH   1  19
BRANCH   2  27
HETATM   27  C8  UNL     1       3.594  -7.860 -24.209  1.00  0.00     0.177 C
HETATM   28  O2  UNL     1       4.278  -7.075 -24.911  1.00  0.00    -0.648 OA
HETATM   29  O3  UNL     1       2.236  -7.549 -24.067  1.00  0.00    -0.648 OA
ENDBRANCH   2  27
TORSDOF 6
ENDMDL