MODEL 2
REMARK VINA RESULT: -7.287272187      2.943      5.411
REMARK  8 active torsions:
REMARK  status: ('A' for Active; 'I' for Inactive)
REMARK    1  A    between atoms: C2_2  and  O1_3
REMARK    2  A    between atoms: C2_2  and  C3_5
REMARK    3  A    between atoms: C3_5  and  C4_6
REMARK    4  A    between atoms: C4_6  and  C5_7
REMARK    5  A    between atoms: C5_7  and  C6_8
REMARK    6  A    between atoms: C6_8  and  C8_11
REMARK    7  A    between atoms: C14_17  and  C15_18
REMARK    8  A    between atoms: C15_18  and  O2_19
ROOT
HETATM    1  C6  UNL     1       5.305 -12.090 -24.417  1.00  0.00     0.097 C
HETATM    2  C7  UNL     1       4.362 -13.175 -24.688  1.00  0.00     0.064 C
HETATM    3  N1  UNL     1       3.625 -14.044 -24.892  1.00  0.00    -0.197 NA
ENDROOT
BRANCH   1   4
HETATM    4  C5  UNL     1       6.686 -12.677 -24.051  1.00  0.00     0.020 C
BRANCH   4   5
HETATM    5  C4  UNL     1       6.976 -13.870 -24.862  1.00  0.00     0.004 C
BRANCH   5   6
HETATM    6  C3  UNL     1       8.295 -14.528 -24.827  1.00  0.00     0.031 C
BRANCH   6   7
HETATM    7  C2  UNL     1       9.263 -14.185 -25.887  1.00  0.00     0.114 C
HETATM    8  C1  UNL     1      10.146 -15.316 -26.285  1.00  0.00     0.039 C
BRANCH   7   9
HETATM    9  O1  UNL     1      10.007 -13.080 -25.423  1.00  0.00    -0.396 OA
ATOM     10  H1  UNL     1      10.075 -13.075 -24.476  1.00  0.00     0.210 HD
ENDBRANCH   7   9
ENDBRANCH   6   7
ENDBRANCH   5   6
ENDBRANCH   4   5
ENDBRANCH   1   4
BRANCH   1  11
HETATM   11  C8  UNL     1       4.759 -11.286 -23.260  1.00  0.00     0.011 C
HETATM   12  C9  UNL     1       3.255 -11.108 -23.381  1.00  0.00     0.007 C
HETATM   13  C10 UNL     1       2.979  -9.618 -23.148  1.00  0.00     0.006 C
HETATM   14  C11 UNL     1       4.246  -9.125 -22.591  1.00  0.00     0.000 C
HETATM   15  C12 UNL     1       4.542  -7.707 -22.616  1.00  0.00     0.027 C
HETATM   16  C22 UNL     1       5.282  -9.899 -23.366  1.00  0.00     0.032 C
HETATM   17  C13 UNL     1       3.412  -6.765 -22.301  1.00  0.00     0.042 C
HETATM   18  C16 UNL     1       5.087  -7.122 -23.889  1.00  0.00     0.062 C
HETATM   19  C14 UNL     1       3.919  -5.474 -22.925  1.00  0.00     0.146 C
HETATM   20  O3  UNL     1       5.180  -5.767 -23.465  1.00  0.00    -0.373 OA
HETATM   21  C17 UNL     1       4.082  -7.072 -25.007  1.00  0.00     0.046 C
HETATM   22  C18 UNL     1       6.428  -7.618 -24.284  1.00  0.00     0.041 C
HETATM   23  C19 UNL     1       7.182  -8.343 -23.208  1.00  0.00     0.043 C
HETATM   24  C20 UNL     1       6.657  -9.677 -22.835  1.00  0.00     0.087 A
HETATM   25  C21 UNL     1       7.397 -10.648 -22.106  1.00  0.00     0.207 A
HETATM   26  O4  UNL     1       6.592  -9.784 -21.332  1.00  0.00    -0.374 OA
BRANCH  19  27
HETATM   27  C15 UNL     1       4.188  -4.486 -21.782  1.00  0.00     0.196 C
BRANCH  27  28
HETATM   28  O2  UNL     1       2.976  -4.229 -21.156  1.00  0.00    -0.398 OA
ATOM     29  H2  UNL     1       3.166  -3.933 -20.273  1.00  0.00     0.209 HD
ENDBRANCH  27  28
ENDBRANCH  19  27
ENDBRANCH   1  11
TORSDOF 8
ENDMDL