MODEL 4
REMARK VINA RESULT: -7.943064661      1.263      1.533
REMARK  9 active torsions:
REMARK  status: ('A' for Active; 'I' for Inactive)
REMARK    1  A    between atoms: C5_5  and  C6_6
REMARK    2  A    between atoms: C8_10  and  O1_11
REMARK    3  A    between atoms: O1_11  and  C9_12
REMARK    4  A    between atoms: C9_12  and  C10_13
REMARK    5  A    between atoms: C10_13  and  O3_15
REMARK    6  A    between atoms: O3_15  and  C11_16
REMARK    7  A    between atoms: C11_16  and  O4_17
REMARK    8  A    between atoms: C12_19  and  C13_20
REMARK    9  A    between atoms: C21_28  and  O5_29
ROOT
HETATM    1  C6  UNL     1       1.959  -8.274 -24.748  1.00  0.00     0.017 C
HETATM    2  N1  UNL     1       2.332  -9.323 -25.329  1.00  0.00    -0.386 N
ATOM      3  H1  UNL     1       1.862  -9.703 -26.151  1.00  0.00     0.159 HD
HETATM    4  C7  UNL     1       3.430  -9.910 -24.755  1.00  0.00     0.122 C
HETATM    5  C8  UNL     1       3.374 -11.411 -24.548  1.00  0.00     0.174 C
HETATM    6  C12 UNL     1       4.676 -11.708 -23.877  1.00  0.00    -0.049 C
HETATM    7  C16 UNL     1       5.334 -10.833 -23.154  1.00  0.00    -0.012 C
HETATM    8  C17 UNL     1       4.870  -9.415 -22.903  1.00  0.00    -0.021 C
HETATM    9  C18 UNL     1       5.837  -8.516 -23.597  1.00  0.00     0.019 C
HETATM   10  C19 UNL     1       5.002  -9.136 -21.399  1.00  0.00     0.019 C
HETATM   11  C20 UNL     1       3.467  -9.348 -23.346  1.00  0.00     0.057 C
HETATM   12  C21 UNL     1       2.855  -8.017 -23.591  1.00  0.00     0.170 C
ENDROOT
BRANCH   5  13
HETATM   13  O1  UNL     1       2.324 -11.672 -23.693  1.00  0.00    -0.370 OA
BRANCH  13  14
HETATM   14  C9  UNL     1       1.460 -12.656 -24.111  1.00  0.00     0.279 C
BRANCH  14  15
HETATM   15  C10 UNL     1       0.056 -12.166 -24.012  1.00  0.00     0.284 C
HETATM   16  O2  UNL     1      -0.804 -12.881 -23.439  1.00  0.00    -0.263 OA
BRANCH  15  17
HETATM   17  O3  UNL     1      -0.341 -10.944 -24.530  1.00  0.00    -0.294 OA
BRANCH  17  18
HETATM   18  C11 UNL     1      -1.604 -10.853 -25.146  1.00  0.00     0.344 C
BRANCH  18  19
HETATM   19  O4  UNL     1      -2.632 -10.867 -24.205  1.00  0.00    -0.377 OA
ATOM     20  H4  UNL     1      -3.281 -11.530 -24.411  1.00  0.00     0.212 HD
ENDBRANCH  18  19
ENDBRANCH  17  18
ENDBRANCH  15  17
ENDBRANCH  14  15
ENDBRANCH  13  14
ENDBRANCH   5  13
BRANCH   6  21
HETATM   21  C13 UNL     1       5.255 -13.062 -24.046  1.00  0.00     0.009 C
HETATM   22  C14 UNL     1       6.732 -13.019 -24.383  1.00  0.00     0.014 C
HETATM   23  C15 UNL     1       4.582 -13.791 -25.186  1.00  0.00     0.014 C
ENDBRANCH   6  21
BRANCH   1  24
HETATM   24  C5  UNL     1       0.812  -7.366 -25.079  1.00  0.00     0.041 C
HETATM   25  C4  UNL     1       0.185  -7.707 -26.406  1.00  0.00     0.038 C
HETATM   26  C3  UNL     1      -0.490  -6.402 -26.746  1.00  0.00    -0.024 C
HETATM   27  C2  UNL     1       0.146  -5.409 -26.132  1.00  0.00    -0.087 C
HETATM   28  C1  UNL     1      -0.218  -3.970 -26.218  1.00  0.00     0.043 C
HETATM   29  C22 UNL     1       1.285  -5.951 -25.339  1.00  0.00     0.044 C
ENDBRANCH   1  24
BRANCH  12  30
HETATM   30  O5  UNL     1       3.697  -6.961 -23.745  1.00  0.00    -0.389 OA
ATOM     31  H5  UNL     1       3.591  -6.482 -24.558  1.00  0.00     0.210 HD
ENDBRANCH  12  30
TORSDOF 9
ENDMDL