MODEL 3
REMARK VINA RESULT: -8.704089667      1.688      2.890
REMARK  8 active torsions:
REMARK  status: ('A' for Active; 'I' for Inactive)
REMARK    1  A    between atoms: C2_2  and  N1_3
REMARK    2  A    between atoms: N1_3  and  C3_4
REMARK    3  A    between atoms: N1_3  and  C10_11
REMARK       I    between atoms: N2_14  and  C13_15
REMARK    4  A    between atoms: C13_15  and  C14_17
REMARK    5  A    between atoms: C14_17  and  C15_18
REMARK    6  A    between atoms: C15_18  and  C16_19
REMARK    7  A    between atoms: C17_20  and  O2_21
REMARK    8  A    between atoms: C19_25  and  O4_26
ROOT
HETATM    1  C10 UNL     1       3.131 -11.448 -24.160  1.00  0.00     0.087 C
HETATM    2  C11 UNL     1       3.348 -12.933 -24.338  1.00  0.00     0.045 C
HETATM    3  C12 UNL     1       4.759 -13.299 -24.603  1.00  0.00     0.127 C
HETATM    4  N2  UNL     1       5.726 -12.328 -24.241  1.00  0.00    -0.352 N
HETATM    5  C13 UNL     1       7.130 -12.752 -24.255  1.00  0.00     0.220 C
HETATM    6  O1  UNL     1       7.974 -11.888 -23.917  1.00  0.00    -0.273 OA
HETATM    7  C20 UNL     1       5.474 -10.967 -23.880  1.00  0.00     0.127 C
HETATM    8  C21 UNL     1       4.103 -10.942 -23.159  1.00  0.00     0.045 C
ENDROOT
BRANCH   5   9
HETATM    9  C14 UNL     1       7.475 -14.095 -24.635  1.00  0.00     0.108 C
BRANCH   9  10
HETATM   10  C15 UNL     1       8.788 -14.647 -24.328  1.00  0.00     0.056 C
BRANCH  10  11
HETATM   11  C16 UNL     1       9.785 -14.627 -25.401  1.00  0.00     0.035 A
HETATM   12  C17 UNL     1      11.114 -14.344 -25.422  1.00  0.00     0.099 A
HETATM   13  C18 UNL     1      11.606 -14.554 -26.693  1.00  0.00     0.182 A
HETATM   14  O3  UNL     1      10.590 -14.950 -27.404  1.00  0.00    -0.297 OA
HETATM   15  C19 UNL     1       9.495 -15.017 -26.726  1.00  0.00     0.192 A
BRANCH  12  16
HETATM   16  O2  UNL     1      11.908 -13.901 -24.373  1.00  0.00    -0.358 OA
ATOM     17  H2  UNL     1      12.414 -13.098 -24.323  1.00  0.00     0.217 HD
ENDBRANCH  12  16
BRANCH  15  18
HETATM   18  O4  UNL     1       8.235 -15.388 -27.134  1.00  0.00    -0.340 OA
ATOM     19  H4  UNL     1       8.067 -16.187 -27.620  1.00  0.00     0.220 HD
ENDBRANCH  15  18
ENDBRANCH  10  11
ENDBRANCH   9  10
ENDBRANCH   5   9
BRANCH   1  20
HETATM   20  N1  UNL     1       1.784 -11.074 -24.007  1.00  0.00    -0.384 N
BRANCH  20  21
HETATM   21  C2  UNL     1       0.909 -12.106 -23.620  1.00  0.00     0.054 C
HETATM   22  C1  UNL     1      -0.478 -12.075 -24.184  1.00  0.00     0.054 C
ENDBRANCH  20  21
BRANCH  20  23
HETATM   23  C3  UNL     1       1.358  -9.974 -24.735  1.00  0.00     0.084 C
HETATM   24  C4  UNL     1       1.210  -8.698 -23.912  1.00  0.00     0.025 C
HETATM   25  C5  UNL     1       0.358  -7.754 -24.728  1.00  0.00     0.002 C
HETATM   26  C6  UNL     1       1.231  -6.839 -25.541  1.00  0.00     0.000 C
HETATM   27  C7  UNL     1       1.500  -7.382 -26.923  1.00  0.00     0.000 C
HETATM   28  C8  UNL     1       1.435  -8.874 -26.984  1.00  0.00     0.002 C
HETATM   29  C9  UNL     1       2.267  -9.544 -25.906  1.00  0.00     0.025 C
ENDBRANCH  20  23
ENDBRANCH   1  20
TORSDOF 8
ENDMDL