MODEL 5
REMARK VINA RESULT: -8.165537863      6.958     11.675
REMARK  9 active torsions:
REMARK  status: ('A' for Active; 'I' for Inactive)
REMARK    1  A    between atoms: N1_1  and  S1_4
REMARK    2  A    between atoms: S1_4  and  C1_7
REMARK    3  A    between atoms: C5_11  and  N2_12
REMARK    4  A    between atoms: N2_12  and  C6_14
REMARK    5  A    between atoms: C6_14  and  N3_16
REMARK    6  A    between atoms: N3_16  and  N4_18
REMARK    7  A    between atoms: C7_20  and  C8_21
REMARK    8  A    between atoms: C10_25  and  N6_26
REMARK    9  A    between atoms: C12_30  and  N7_31
ROOT
HETATM    1  N3  UNL     1      21.033 -20.482  12.847  1.00  0.00    -0.276 N
ATOM      2  H3  UNL     1      20.736 -19.786  13.531  1.00  0.00     0.189 HD
ENDROOT
BRANCH   1   3
HETATM    3  C6  UNL     1      21.145 -21.867  13.247  1.00  0.00     0.191 C
HETATM    4  S2  UNL     1      21.607 -22.910  12.109  1.00  0.00    -0.039 SA
BRANCH   3   5
HETATM    5  N2  UNL     1      20.832 -22.244  14.544  1.00  0.00    -0.332 N
ATOM      6  H2  UNL     1      21.620 -22.314  15.188  1.00  0.00     0.168 HD
BRANCH   5   7
HETATM    7  C5  UNL     1      19.572 -22.542  15.087  1.00  0.00     0.035 A
HETATM    8  C4  UNL     1      18.738 -21.603  15.634  1.00  0.00     0.029 A
HETATM    9  C3  UNL     1      17.523 -22.057  16.165  1.00  0.00     0.004 A
HETATM   10  C2  UNL     1      17.174 -23.387  16.140  1.00  0.00     0.025 A
HETATM   11  C1  UNL     1      18.006 -24.336  15.592  1.00  0.00     0.081 A
HETATM   12  C13 UNL     1      19.193 -23.902  15.072  1.00  0.00     0.054 A
BRANCH  11  13
HETATM   13  S1  UNL     1      17.564 -26.039  15.558  1.00  0.00     0.256 S
HETATM   14  O1  UNL     1      16.253 -26.137  16.324  1.00  0.00    -0.201 OA
HETATM   15  O2  UNL     1      18.602 -26.847  16.260  1.00  0.00    -0.201 OA
BRANCH  13  16
HETATM   16  N1  UNL     1      17.358 -26.589  13.952  1.00  0.00    -0.324 N
ATOM     17  H12 UNL     1      17.177 -27.561  13.702  1.00  0.00     0.169 HD
ATOM     18  H11 UNL     1      17.443 -25.812  13.297  1.00  0.00     0.169 HD
ENDBRANCH  13  16
ENDBRANCH  11  13
ENDBRANCH   5   7
ENDBRANCH   3   5
ENDBRANCH   1   3
BRANCH   1  19
HETATM   19  N4  UNL     1      21.321 -20.083  11.549  1.00  0.00    -0.307 N
HETATM   20  C7  UNL     1      21.998 -18.991  11.343  1.00  0.00     0.139 C
ATOM     21  H4  UNL     1      21.004 -20.644  10.760  1.00  0.00     0.186 HD
BRANCH  20  22
HETATM   22  C8  UNL     1      22.294 -18.584   9.981  1.00  0.00     0.082 A
HETATM   23  N5  UNL     1      22.227 -19.549   9.028  1.00  0.00    -0.360 N
HETATM   24  C9  UNL     1      22.434 -19.330   7.730  1.00  0.00     0.124 A
ATOM     25  H5  UNL     1      22.004 -20.500   9.324  1.00  0.00     0.165 HD
HETATM   26  C10 UNL     1      22.735 -18.037   7.356  1.00  0.00     0.120 A
HETATM   27  C11 UNL     1      22.815 -17.031   8.280  1.00  0.00     0.075 A
HETATM   28  C12 UNL     1      22.591 -17.291   9.646  1.00  0.00     0.133 A
BRANCH  26  29
HETATM   29  N6  UNL     1      22.965 -17.760   5.973  1.00  0.00    -0.114 N
HETATM   30  O3  UNL     1      23.384 -18.642   5.216  1.00  0.00    -0.532 OA
HETATM   31  O4  UNL     1      22.718 -16.503   5.477  1.00  0.00    -0.532 OA
ENDBRANCH  26  29
BRANCH  28  32
HETATM   32  N7  UNL     1      22.683 -16.223  10.553  1.00  0.00    -0.113 N
HETATM   33  O5  UNL     1      22.222 -15.106  10.168  1.00  0.00    -0.532 OA
HETATM   34  O6  UNL     1      23.222 -16.331  11.776  1.00  0.00    -0.532 OA
ENDBRANCH  28  32
ENDBRANCH  20  22
ENDBRANCH   1  19
TORSDOF 9
ENDMDL