MODEL 3
REMARK VINA RESULT: -8.267773782      2.066      3.250
REMARK  7 active torsions:
REMARK  status: ('A' for Active; 'I' for Inactive)
REMARK    1  A    between atoms: O1_2  and  C2_3
REMARK    2  A    between atoms: C2_3  and  C3_5
REMARK    3  A    between atoms: C8_10  and  N1_11
REMARK       I    between atoms: N1_11  and  C9_13
REMARK    4  A    between atoms: C9_13  and  C10_15
REMARK       I    between atoms: C10_15  and  N2_17
REMARK    5  A    between atoms: N2_17  and  C11_19
REMARK    6  A    between atoms: C13_21  and  N3_22
REMARK    7  A    between atoms: C15_26  and  S1_27
ROOT
HETATM    1  C10 UNL     1      21.606 -24.586   7.293  1.00  0.00     0.314 C
HETATM    2  O4  UNL     1      22.181 -24.447   6.203  1.00  0.00    -0.262 OA
HETATM    3  N2  UNL     1      21.181 -25.832   7.757  1.00  0.00    -0.319 N
ATOM      4  H2  UNL     1      20.709 -25.871   8.660  1.00  0.00     0.169 HD
ENDROOT
BRANCH   1   5
HETATM    5  C9  UNL     1      21.353 -23.380   8.155  1.00  0.00     0.314 C
HETATM    6  N1  UNL     1      22.485 -22.676   8.587  1.00  0.00    -0.318 N
ATOM      7  H1  UNL     1      23.393 -23.029   8.283  1.00  0.00     0.169 HD
HETATM    8  O3  UNL     1      20.152 -23.159   8.377  1.00  0.00    -0.262 OA
BRANCH   6   9
HETATM    9  C8  UNL     1      22.485 -21.524   9.403  1.00  0.00     0.051 A
HETATM   10  C3  UNL     1      22.171 -20.282   8.846  1.00  0.00     0.066 A
HETATM   11  C4  UNL     1      22.237 -19.178   9.695  1.00  0.00     0.020 A
HETATM   12  C5  UNL     1      22.585 -19.252  11.017  1.00  0.00     0.001 A
HETATM   13  C6  UNL     1      22.893 -20.467  11.566  1.00  0.00     0.002 A
HETATM   14  C7  UNL     1      22.837 -21.574  10.750  1.00  0.00     0.030 A
BRANCH  10  15
HETATM   15  C2  UNL     1      21.754 -20.056   7.478  1.00  0.00     0.295 C
HETATM   16  O2  UNL     1      20.610 -19.883   7.027  1.00  0.00    -0.259 OA
BRANCH  15  17
HETATM   17  O1  UNL     1      22.755 -20.020   6.486  1.00  0.00    -0.322 OA
HETATM   18  C1  UNL     1      23.271 -18.808   5.980  1.00  0.00     0.213 C
ENDBRANCH  15  17
ENDBRANCH  10  15
ENDBRANCH   6   9
ENDBRANCH   1   5
BRANCH   3  19
HETATM   19  C11 UNL     1      21.364 -27.038   7.053  1.00  0.00     0.039 A
HETATM   20  C12 UNL     1      22.530 -27.745   6.937  1.00  0.00     0.065 A
HETATM   21  C13 UNL     1      22.632 -28.917   6.197  1.00  0.00     0.106 A
HETATM   22  C14 UNL     1      21.500 -29.369   5.559  1.00  0.00     0.062 A
HETATM   23  C15 UNL     1      20.335 -28.673   5.668  1.00  0.00     0.085 A
HETATM   24  C16 UNL     1      20.211 -27.518   6.390  1.00  0.00     0.056 A
BRANCH  21  25
HETATM   25  N3  UNL     1      23.855 -29.629   6.095  1.00  0.00    -0.116 N
HETATM   26  O5  UNL     1      24.722 -29.264   5.295  1.00  0.00    -0.532 OA
HETATM   27  O6  UNL     1      24.082 -30.719   6.880  1.00  0.00    -0.532 OA
ENDBRANCH  21  25
BRANCH  23  28
HETATM   28  S1  UNL     1      18.910 -29.286   4.836  1.00  0.00     0.137 S
HETATM   29  O7  UNL     1      19.097 -30.764   4.571  1.00  0.00    -0.591 OA
HETATM   30  O8  UNL     1      18.687 -28.564   3.535  1.00  0.00    -0.591 OA
HETATM   31  O9  UNL     1      17.609 -29.085   5.884  1.00  0.00    -0.591 OA
ENDBRANCH  23  28
ENDBRANCH   3  19
TORSDOF 7
ENDMDL