MODEL 4
REMARK VINA RESULT: -6.933346484      2.676      8.305
REMARK  5 active torsions:
REMARK  status: ('A' for Active; 'I' for Inactive)
REMARK    1  A    between atoms: C1_2  and  C2_3
REMARK       I    between atoms: C1_2  and  N1_14
REMARK    2  A    between atoms: C2_3  and  C3_4
REMARK    3  A    between atoms: N1_14  and  S4_16
REMARK    4  A    between atoms: S4_16  and  N2_19
REMARK    5  A    between atoms: N2_19  and  C9_21
ROOT
HETATM    1  O1  UNL     1      22.498 -23.876   6.470  1.00  0.00    -0.273 OA
HETATM    2  C1  UNL     1      21.825 -24.328   7.452  1.00  0.00     0.233 C
HETATM    3  N1  UNL     1      20.932 -25.394   7.220  1.00  0.00    -0.237 N
ATOM      4  H1  UNL     1      20.380 -25.772   7.990  1.00  0.00     0.183 HD
ENDROOT
BRANCH   3   5
HETATM    5  S4  UNL     1      20.773 -26.059   5.645  1.00  0.00     0.327 S
HETATM    6  O3  UNL     1      20.240 -25.005   4.685  1.00  0.00    -0.182 OA
HETATM    7  O4  UNL     1      19.808 -27.215   5.684  1.00  0.00    -0.182 OA
BRANCH   5   8
HETATM    8  N2  UNL     1      22.310 -26.530   5.056  1.00  0.00    -0.252 N
ATOM      9  H2  UNL     1      22.888 -27.199   5.564  1.00  0.00     0.182 HD
BRANCH   8  10
HETATM   10  C9  UNL     1      22.760 -25.943   3.807  1.00  0.00     0.125 A
HETATM   11  C10 UNL     1      22.517 -26.601   2.628  1.00  0.00     0.104 A
HETATM   12  S5  UNL     1      23.246 -25.559   1.484  1.00  0.00    -0.037 SA
HETATM   13  C11 UNL     1      23.812 -24.360   2.561  1.00  0.00     0.289 A
HETATM   14  O5  UNL     1      24.461 -23.283   2.305  1.00  0.00    -0.260 OA
HETATM   15  N3  UNL     1      23.414 -24.815   3.748  1.00  0.00    -0.303 N
ATOM     16  H3  UNL     1      23.618 -24.290   4.598  1.00  0.00     0.171 HD
ENDBRANCH   8  10
ENDBRANCH   5   8
ENDBRANCH   3   5
BRANCH   2  17
HETATM   17  C2  UNL     1      21.952 -23.765   8.829  1.00  0.00     0.126 C
BRANCH  17  18
HETATM   18  C3  UNL     1      21.886 -22.271   8.746  1.00  0.00     0.128 C
HETATM   19  S1  UNL     1      20.232 -21.740   8.116  1.00  0.00    -0.153 SA
HETATM   20  C4  UNL     1      19.869 -20.447   9.356  1.00  0.00     0.114 C
HETATM   21  C5  UNL     1      21.210 -20.314  10.038  1.00  0.00     0.126 C
HETATM   22  S2  UNL     1      21.091 -19.646  11.714  1.00  0.00    -0.139 SA
HETATM   23  S3  UNL     1      22.292 -19.146   9.219  1.00  0.00    -0.139 SA
HETATM   24  C8  UNL     1      21.780 -21.678  10.120  1.00  0.00     0.170 C
HETATM   25  C6  UNL     1      22.585 -18.625  11.809  1.00  0.00     0.086 C
HETATM   26  C7  UNL     1      22.722 -17.915  10.478  1.00  0.00     0.086 C
HETATM   27  O2  UNL     1      22.127 -22.275  11.120  1.00  0.00    -0.294 OA
ENDBRANCH  17  18
ENDBRANCH   2  17
TORSDOF 5
ENDMDL