MODEL 5
REMARK VINA RESULT: -6.393906142      1.598      6.283
REMARK  11 active torsions:
REMARK  status: ('A' for Active; 'I' for Inactive)
REMARK    1  A    between atoms: C2_2  and  O1_3
REMARK    2  A    between atoms: O1_3  and  C3_4
REMARK    3  A    between atoms: C3_4  and  C4_6
REMARK    4  A    between atoms: C4_6  and  O3_7
REMARK    5  A    between atoms: C4_6  and  C5_9
REMARK    6  A    between atoms: C9_14  and  O5_15
REMARK    7  A    between atoms: O5_15  and  C10_16
REMARK    8  A    between atoms: C13_20  and  O7_22
REMARK    9  A    between atoms: C16_25  and  O8_26
REMARK   10  A    between atoms: O8_26  and  C17_27
REMARK   11  A    between atoms: C20_31  and  O10_32
ROOT
HETATM    1  C5  UNL     1      22.644 -26.223   1.779  1.00  0.00     0.123 C
HETATM    2  C6  UNL     1      23.175 -27.267   0.897  1.00  0.00     0.147 C
HETATM    3  O4  UNL     1      23.040 -28.403   1.320  1.00  0.00    -0.296 OA
HETATM    4  C7  UNL     1      23.854 -27.235  -0.428  1.00  0.00     0.053 C
HETATM    5  C8  UNL     1      22.862 -27.369  -1.547  1.00  0.00     0.027 C
HETATM    6  C9  UNL     1      24.835 -28.390  -0.573  1.00  0.00     0.150 C
HETATM    7  C12 UNL     1      25.878 -28.022   0.452  1.00  0.00     0.071 C
HETATM    8  C13 UNL     1      26.001 -26.521   0.262  1.00  0.00     0.064 C
HETATM    9  C14 UNL     1      27.297 -26.176  -0.472  1.00  0.00     0.046 C
HETATM   10  C15 UNL     1      24.788 -26.076  -0.539  1.00  0.00     0.067 C
HETATM   11  C16 UNL     1      24.315 -24.772  -0.038  1.00  0.00     0.142 C
HETATM   12  C19 UNL     1      22.827 -24.532  -0.096  1.00  0.00     0.065 C
HETATM   13  C20 UNL     1      22.084 -25.023   1.098  1.00  0.00     0.135 C
ENDROOT
BRANCH   1  14
HETATM   14  C4  UNL     1      21.493 -26.841   2.586  1.00  0.00     0.231 C
BRANCH  14  15
HETATM   15  C3  UNL     1      20.965 -25.926   3.596  1.00  0.00     0.288 C
HETATM   16  O2  UNL     1      19.783 -25.516   3.504  1.00  0.00    -0.262 OA
BRANCH  15  17
HETATM   17  O1  UNL     1      21.726 -25.487   4.667  1.00  0.00    -0.320 OA
BRANCH  17  18
HETATM   18  C2  UNL     1      21.125 -25.048   5.880  1.00  0.00     0.174 C
HETATM   19  C1  UNL     1      21.619 -25.891   7.043  1.00  0.00     0.034 C
ENDBRANCH  17  18
ENDBRANCH  15  17
ENDBRANCH  14  15
BRANCH  14  20
HETATM   20  O3  UNL     1      20.506 -27.339   1.753  1.00  0.00    -0.385 OA
ATOM     21  H3  UNL     1      20.798 -28.091   1.252  1.00  0.00     0.210 HD
ENDBRANCH  14  20
ENDBRANCH   1  14
BRANCH  13  22
HETATM   22  O10 UNL     1      20.727 -25.274   0.799  1.00  0.00    -0.395 OA
ATOM     23  H10 UNL     1      20.390 -24.540   0.298  1.00  0.00     0.210 HD
ENDBRANCH  13  22
BRANCH   6  24
HETATM   24  O5  UNL     1      24.259 -29.634  -0.368  1.00  0.00    -0.315 OA
BRANCH  24  25
HETATM   25  C10 UNL     1      24.380 -30.619  -1.330  1.00  0.00     0.255 C
HETATM   26  C11 UNL     1      25.723 -31.064  -1.788  1.00  0.00     0.126 C
HETATM   27  O6  UNL     1      23.317 -31.108  -1.786  1.00  0.00    -0.266 OA
ENDBRANCH  24  25
ENDBRANCH   6  24
BRANCH  11  28
HETATM   28  O8  UNL     1      24.924 -23.763  -0.865  1.00  0.00    -0.316 OA
BRANCH  28  29
HETATM   29  C17 UNL     1      25.955 -22.968  -0.428  1.00  0.00     0.255 C
HETATM   30  C18 UNL     1      26.260 -22.726   1.005  1.00  0.00     0.126 C
HETATM   31  O9  UNL     1      26.691 -22.406  -1.266  1.00  0.00    -0.266 OA
ENDBRANCH  28  29
ENDBRANCH  11  28
BRANCH   8  32
HETATM   32  O7  UNL     1      26.080 -25.972   1.516  1.00  0.00    -0.390 OA
ATOM     33  H7  UNL     1      27.005 -25.876   1.712  1.00  0.00     0.210 HD
ENDBRANCH   8  32
TORSDOF 11
ENDMDL