MODEL 2
REMARK VINA RESULT: -8.186631483      4.530      6.980
REMARK  6 active torsions:
REMARK  status: ('A' for Active; 'I' for Inactive)
REMARK    1  A    between atoms: C1_4  and  N2_5
REMARK    2  A    between atoms: C1_4  and  C11_27
REMARK    3  A    between atoms: N2_5  and  S1_7
REMARK    4  A    between atoms: S1_7  and  C2_10
REMARK    5  A    between atoms: C5_13  and  N3_14
REMARK       I    between atoms: N3_14  and  C6_16
REMARK    6  A    between atoms: C6_16  and  C7_18
ROOT
HETATM    1  C2  UNL     1      22.724 -27.050   1.708  1.00  0.00     0.095 A
HETATM    2  C3  UNL     1      23.231 -27.537   2.893  1.00  0.00     0.030 A
HETATM    3  C4  UNL     1      23.048 -26.760   4.016  1.00  0.00     0.050 A
HETATM    4  C5  UNL     1      22.391 -25.543   3.985  1.00  0.00     0.107 A
HETATM    5  N5  UNL     1      21.912 -25.101   2.820  1.00  0.00    -0.351 N
ATOM      6  H5  UNL     1      21.424 -24.206   2.779  1.00  0.00     0.166 HD
HETATM    7  C10 UNL     1      22.070 -25.836   1.688  1.00  0.00     0.115 A
ENDROOT
BRANCH   1   8
HETATM    8  S1  UNL     1      22.907 -27.973   0.209  1.00  0.00     0.265 S
HETATM    9  O1  UNL     1      21.588 -28.101  -0.478  1.00  0.00    -0.200 OA
HETATM   10  O2  UNL     1      23.323 -29.401   0.556  1.00  0.00    -0.200 OA
BRANCH   8  11
HETATM   11  N2  UNL     1      24.032 -27.259  -0.859  1.00  0.00    -0.269 N
ATOM     12  H2  UNL     1      23.772 -27.102  -1.833  1.00  0.00     0.180 HD
BRANCH  11  13
HETATM   13  C1  UNL     1      25.315 -26.883  -0.413  1.00  0.00     0.093 C
HETATM   14  N1  UNL     1      26.016 -27.680   0.297  1.00  0.00    -0.388 N
ATOM     15  H12 UNL     1      25.604 -28.589   0.512  1.00  0.00     0.157 HD
ATOM     16  H11 UNL     1      26.945 -27.408   0.621  1.00  0.00     0.157 HD
BRANCH  13  17
HETATM   17  C11 UNL     1      25.918 -25.555  -0.725  1.00  0.00     0.091 C
HETATM   18  C12 UNL     1      27.338 -25.562  -0.357  1.00  0.00    -0.002 C
HETATM   19  C13 UNL     1      27.849 -24.416   0.043  1.00  0.00     0.106 C
HETATM   20  S3  UNL     1      26.550 -23.238  -0.020  1.00  0.00     0.166 S
HETATM   21  O4  UNL     1      26.519 -22.488  -1.305  1.00  0.00    -0.223 OA
HETATM   22  O5  UNL     1      26.502 -22.377   1.186  1.00  0.00    -0.223 OA
HETATM   23  C14 UNL     1      25.198 -24.442  -0.004  1.00  0.00     0.161 C
ENDBRANCH  13  17
ENDBRANCH  11  13
ENDBRANCH   8  11
ENDBRANCH   1   8
BRANCH   4  24
HETATM   24  N3  UNL     1      22.259 -24.826   5.202  1.00  0.00    -0.308 N
HETATM   25  C6  UNL     1      21.021 -24.764   5.865  1.00  0.00     0.274 C
HETATM   26  O3  UNL     1      20.041 -25.348   5.373  1.00  0.00    -0.266 OA
ATOM     27  H3  UNL     1      23.070 -24.350   5.599  1.00  0.00     0.170 HD
BRANCH  25  28
HETATM   28  C7  UNL     1      20.850 -24.022   7.138  1.00  0.00     0.107 A
HETATM   29  C8  UNL     1      21.549 -24.292   8.253  1.00  0.00     0.044 A
HETATM   30  C9  UNL     1      21.277 -23.519   9.349  1.00  0.00     0.070 A
HETATM   31  S2  UNL     1      20.071 -22.467   8.771  1.00  0.00    -0.026 SA
HETATM   32  N4  UNL     1      19.957 -23.031   7.198  1.00  0.00    -0.322 N
ATOM     33  H4  UNL     1      19.345 -22.695   6.455  1.00  0.00     0.174 HD
ENDBRANCH  25  28
ENDBRANCH   4  24
TORSDOF 6
ENDMDL