MODEL 4
REMARK VINA RESULT: -7.819606319      1.869      2.540
REMARK  6 active torsions:
REMARK  status: ('A' for Active; 'I' for Inactive)
REMARK    1  A    between atoms: C1_2  and  C2_4
REMARK    2  A    between atoms: C5_9  and  S1_10
REMARK    3  A    between atoms: S1_10  and  N2_13
REMARK    4  A    between atoms: N2_13  and  C6_15
REMARK    5  A    between atoms: C10_21  and  N4_22
REMARK    6  A    between atoms: C13_27  and  N5_28
ROOT
HETATM    1  C2  UNL     1      27.876 -26.826   0.265  1.00  0.00     0.107 A
HETATM    2  C3  UNL     1      27.000 -27.666   0.914  1.00  0.00     0.111 A
HETATM    3  N1  UNL     1      25.740 -27.323   1.158  1.00  0.00    -0.363 N
ATOM      4  H1  UNL     1      25.117 -27.969   1.643  1.00  0.00     0.165 HD
HETATM    5  C4  UNL     1      25.295 -26.119   0.761  1.00  0.00     0.072 A
HETATM    6  C5  UNL     1      23.995 -25.734   1.038  1.00  0.00     0.107 A
HETATM    7  C11 UNL     1      23.512 -24.500   0.675  1.00  0.00     0.030 A
HETATM    8  C12 UNL     1      24.311 -23.620   0.027  1.00  0.00     0.039 A
HETATM    9  C13 UNL     1      25.655 -23.946  -0.292  1.00  0.00     0.119 A
HETATM   10  C14 UNL     1      26.116 -25.191   0.086  1.00  0.00     0.076 A
HETATM   11  C15 UNL     1      27.414 -25.583  -0.145  1.00  0.00     0.205 A
HETATM   12  O9  UNL     1      28.239 -24.864  -0.716  1.00  0.00    -0.286 OA
ENDROOT
BRANCH   6  13
HETATM   13  S1  UNL     1      22.933 -26.836   1.865  1.00  0.00     0.266 S
HETATM   14  O3  UNL     1      23.732 -27.596   2.886  1.00  0.00    -0.200 OA
HETATM   15  O4  UNL     1      22.433 -27.908   0.888  1.00  0.00    -0.200 OA
BRANCH  13  16
HETATM   16  N2  UNL     1      21.607 -26.106   2.630  1.00  0.00    -0.264 N
ATOM     17  H2  UNL     1      20.846 -25.763   2.043  1.00  0.00     0.180 HD
BRANCH  16  18
HETATM   18  C6  UNL     1      21.501 -25.960   3.883  1.00  0.00     0.148 A
HETATM   19  N3  UNL     1      22.026 -24.999   4.651  1.00  0.00    -0.350 N
HETATM   20  C7  UNL     1      21.846 -24.943   5.992  1.00  0.00     0.090 A
ATOM     21  H3  UNL     1      22.590 -24.274   4.206  1.00  0.00     0.166 HD
HETATM   22  C8  UNL     1      21.103 -25.878   6.680  1.00  0.00     0.020 A
HETATM   23  C9  UNL     1      20.539 -26.890   5.929  1.00  0.00     0.041 A
HETATM   24  C10 UNL     1      20.739 -26.921   4.570  1.00  0.00     0.147 A
BRANCH  24  25
HETATM   25  N4  UNL     1      20.158 -27.964   3.807  1.00  0.00    -0.112 N
HETATM   26  O5  UNL     1      20.737 -29.069   3.794  1.00  0.00    -0.532 OA
HETATM   27  O6  UNL     1      19.013 -27.822   3.101  1.00  0.00    -0.532 OA
ENDBRANCH  24  25
ENDBRANCH  16  18
ENDBRANCH  13  16
ENDBRANCH   6  13
BRANCH   9  28
HETATM   28  N5  UNL     1      26.384 -22.961  -0.955  1.00  0.00    -0.115 N
HETATM   29  O7  UNL     1      26.195 -22.910  -2.227  1.00  0.00    -0.532 OA
HETATM   30  O8  UNL     1      27.227 -22.060  -0.460  1.00  0.00    -0.532 OA
ENDBRANCH   9  28
BRANCH   1  31
HETATM   31  C1  UNL     1      29.255 -27.229   0.013  1.00  0.00     0.214 C
HETATM   32  O1  UNL     1      29.552 -27.667  -1.120  1.00  0.00    -0.644 OA
HETATM   33  O2  UNL     1      30.217 -27.125   1.016  1.00  0.00    -0.644 OA
ENDBRANCH   1  31
TORSDOF 6
ENDMDL