MODEL 4
REMARK VINA RESULT: -7.562505019      5.859      8.510
REMARK  6 active torsions:
REMARK  status: ('A' for Active; 'I' for Inactive)
REMARK    1  A    between atoms: C5_6  and  O2_7
REMARK    2  A    between atoms: C6_9  and  N1_10
REMARK    3  A    between atoms: N1_10  and  S1_12
REMARK    4  A    between atoms: S1_12  and  C7_13
REMARK    5  A    between atoms: C9_16  and  C10_17
REMARK    6  A    between atoms: C11_18  and  C12_19
ROOT
HETATM    1  C1  UNL     1      20.609 -29.714   4.968  1.00  0.00     0.078 C
HETATM    2  C2  UNL     1      20.884 -28.241   4.754  1.00  0.00     0.158 C
HETATM    3  C3  UNL     1      20.895 -27.492   6.062  1.00  0.00     0.078 C
HETATM    4  O1  UNL     1      19.869 -27.765   3.904  1.00  0.00    -0.345 OA
HETATM    5  C4  UNL     1      20.419 -27.843   2.657  1.00  0.00     0.187 C
HETATM    6  C5  UNL     1      19.767 -27.094   1.566  1.00  0.00     0.175 C
HETATM    7  C6  UNL     1      20.742 -26.285   0.767  1.00  0.00     0.151 C
HETATM    8  C13 UNL     1      22.053 -26.963   0.548  1.00  0.00     0.182 C
HETATM    9  O6  UNL     1      21.876 -27.997  -0.368  1.00  0.00    -0.346 OA
HETATM   10  C14 UNL     1      22.485 -29.121   0.146  1.00  0.00     0.158 C
HETATM   11  C15 UNL     1      21.645 -30.369  -0.162  1.00  0.00     0.078 C
HETATM   12  C16 UNL     1      23.809 -29.328  -0.556  1.00  0.00     0.078 C
HETATM   13  O7  UNL     1      22.610 -28.965   1.504  1.00  0.00    -0.345 OA
HETATM   14  C17 UNL     1      22.655 -27.599   1.767  1.00  0.00     0.188 C
HETATM   15  C18 UNL     1      21.827 -27.312   2.973  1.00  0.00     0.188 C
HETATM   16  O8  UNL     1      22.093 -28.090   4.074  1.00  0.00    -0.345 OA
ENDROOT
BRANCH   7  17
HETATM   17  N1  UNL     1      20.926 -24.933   1.253  1.00  0.00    -0.353 N
ATOM     18  H1  UNL     1      20.404 -24.559   2.045  1.00  0.00     0.168 HD
BRANCH  17  19
HETATM   19  S1  UNL     1      22.098 -24.004   0.390  1.00  0.00    -0.026 SA
BRANCH  19  20
HETATM   20  C7  UNL     1      23.770 -24.111   1.069  1.00  0.00     0.213 C
HETATM   21  O3  UNL     1      24.341 -22.883   1.385  1.00  0.00    -0.372 OA
HETATM   22  C8  UNL     1      25.186 -23.001   0.308  1.00  0.00     0.181 C
HETATM   23  C9  UNL     1      24.827 -24.460   0.079  1.00  0.00     0.073 C
BRANCH  23  24
HETATM   24  C10 UNL     1      25.906 -25.362   0.498  1.00  0.00    -0.010 C
HETATM   25  C11 UNL     1      26.331 -26.418  -0.156  1.00  0.00     0.081 C
BRANCH  25  26
HETATM   26  C12 UNL     1      27.409 -27.273   0.317  1.00  0.00     0.198 C
HETATM   27  O4  UNL     1      27.161 -28.069   1.255  1.00  0.00    -0.645 OA
HETATM   28  O5  UNL     1      28.676 -27.229  -0.235  1.00  0.00    -0.645 OA
ENDBRANCH  25  26
ENDBRANCH  23  24
ENDBRANCH  19  20
ENDBRANCH  17  19
ENDBRANCH   7  17
BRANCH   6  29
HETATM   29  O2  UNL     1      18.691 -26.316   1.971  1.00  0.00    -0.391 OA
ATOM     30  H2  UNL     1      18.604 -25.494   1.503  1.00  0.00     0.210 HD
ENDBRANCH   6  29
TORSDOF 6
ENDMDL