MODEL 5
REMARK VINA RESULT: -8.106183260      2.406     10.412
REMARK  7 active torsions:
REMARK  status: ('A' for Active; 'I' for Inactive)
REMARK    1  A    between atoms: C2_2  and  O2_4
REMARK    2  A    between atoms: O2_4  and  C3_5
REMARK    3  A    between atoms: C4_6  and  O3_7
REMARK    4  A    between atoms: C6_10  and  N1_11
REMARK       I    between atoms: N1_11  and  C7_13
REMARK    5  A    between atoms: C7_13  and  C8_15
REMARK    6  A    between atoms: C11_20  and  C12_21
REMARK    7  A    between atoms: C15_24  and  O7_25
ROOT
HETATM    1  N1  UNL     1      21.187 -23.830   6.578  1.00  0.00    -0.334 N
ATOM      2  H1  UNL     1      20.925 -23.415   5.684  1.00  0.00     0.165 HD
HETATM    3  C7  UNL     1      21.329 -25.237   6.676  1.00  0.00     0.228 C
HETATM    4  O4  UNL     1      21.650 -25.741   7.769  1.00  0.00    -0.273 OA
ENDROOT
BRANCH   3   5
HETATM    5  C8  UNL     1      21.110 -26.130   5.521  1.00  0.00     0.135 C
HETATM    6  C9  UNL     1      20.505 -27.413   6.002  1.00  0.00     0.188 C
HETATM    7  O5  UNL     1      21.177 -28.464   5.427  1.00  0.00    -0.358 OA
HETATM    8  C10 UNL     1      22.441 -28.048   5.092  1.00  0.00     0.293 C
HETATM    9  O6  UNL     1      22.692 -28.518   3.782  1.00  0.00    -0.325 OA
HETATM   10  C18 UNL     1      22.378 -26.557   4.859  1.00  0.00     0.195 C
HETATM   11  C11 UNL     1      21.868 -27.643   3.050  1.00  0.00     0.298 C
HETATM   12  O8  UNL     1      22.244 -26.389   3.481  1.00  0.00    -0.346 OA
BRANCH  11  13
HETATM   13  C12 UNL     1      22.088 -27.795   1.598  1.00  0.00    -0.004 A
HETATM   14  C13 UNL     1      23.337 -28.043   1.065  1.00  0.00     0.015 A
HETATM   15  C14 UNL     1      23.537 -28.185  -0.305  1.00  0.00     0.037 A
HETATM   16  C15 UNL     1      22.474 -28.081  -1.170  1.00  0.00     0.065 A
HETATM   17  C16 UNL     1      21.223 -27.834  -0.649  1.00  0.00     0.037 A
HETATM   18  C17 UNL     1      21.034 -27.693   0.713  1.00  0.00     0.015 A
BRANCH  16  19
HETATM   19  O7  UNL     1      22.696 -28.227  -2.539  1.00  0.00    -0.361 OA
ATOM     20  H7  UNL     1      22.757 -27.451  -3.083  1.00  0.00     0.217 HD
ENDBRANCH  16  19
ENDBRANCH  11  13
ENDBRANCH   3   5
BRANCH   1  21
HETATM   21  C6  UNL     1      21.407 -22.971   7.724  1.00  0.00     0.226 C
HETATM   22  C5  UNL     1      20.176 -22.352   8.249  1.00  0.00     0.088 C
HETATM   23  C4  UNL     1      20.148 -20.897   8.481  1.00  0.00     0.154 C
HETATM   24  C3  UNL     1      21.508 -20.246   8.346  1.00  0.00     0.189 C
HETATM   25  C19 UNL     1      22.105 -20.853   7.069  1.00  0.00     0.152 C
HETATM   26  O9  UNL     1      22.453 -22.135   7.396  1.00  0.00    -0.359 OA
HETATM   27  C20 UNL     1      23.293 -20.087   6.597  1.00  0.00     0.042 C
BRANCH  23  28
HETATM   28  O3  UNL     1      19.301 -20.212   7.595  1.00  0.00    -0.393 OA
ATOM     29  H3  UNL     1      19.681 -19.349   7.484  1.00  0.00     0.210 HD
ENDBRANCH  23  28
BRANCH  24  30
HETATM   30  O2  UNL     1      22.285 -20.660   9.455  1.00  0.00    -0.311 OA
BRANCH  30  31
HETATM   31  C2  UNL     1      22.609 -19.766  10.486  1.00  0.00     0.255 C
HETATM   32  C1  UNL     1      22.890 -20.184  11.867  1.00  0.00     0.126 C
HETATM   33  O1  UNL     1      22.647 -18.545  10.150  1.00  0.00    -0.266 OA
ENDBRANCH  30  31
ENDBRANCH  24  30
ENDBRANCH   1  21
TORSDOF 7
ENDMDL