MODEL 2
REMARK VINA RESULT: -7.591153986      1.033      1.133
REMARK  10 active torsions:
REMARK  status: ('A' for Active; 'I' for Inactive)
REMARK    1  A    between atoms: O1_2  and  C2_3
REMARK    2  A    between atoms: C2_3  and  C3_5
REMARK    3  A    between atoms: C3_5  and  O3_6
REMARK    4  A    between atoms: C5_9  and  N1_10
REMARK    5  A    between atoms: N1_10  and  C6_11
REMARK    6  A    between atoms: C9_14  and  S1_15
REMARK    7  A    between atoms: S1_15  and  N2_18
REMARK       I    between atoms: N2_18  and  C10_20
REMARK    8  A    between atoms: C13_26  and  N4_27
REMARK    9  A    between atoms: N4_27  and  N5_29
REMARK   10  A    between atoms: N5_29  and  N6_30
ROOT
HETATM    1  C3  UNL     1      20.684 -20.330   8.416  1.00  0.00     0.154 C
HETATM    2  C4  UNL     1      20.937 -21.405   7.488  1.00  0.00     0.129 C
HETATM    3  C5  UNL     1      21.956 -22.451   7.756  1.00  0.00     0.127 C
HETATM    4  S2  UNL     1      22.931 -22.056   9.242  1.00  0.00    -0.074 SA
HETATM    5  C13 UNL     1      21.622 -21.590  10.408  1.00  0.00     0.186 C
HETATM    6  C14 UNL     1      20.753 -20.491   9.868  1.00  0.00     0.087 C
ENDROOT
BRANCH   3   7
HETATM    7  N1  UNL     1      22.136 -23.421   7.093  1.00  0.00    -0.403 NA
BRANCH   7   8
HETATM    8  C6  UNL     1      21.997 -24.593   6.516  1.00  0.00     0.107 A
HETATM    9  C7  UNL     1      22.504 -24.864   5.252  1.00  0.00     0.046 A
HETATM   10  C8  UNL     1      22.392 -26.087   4.656  1.00  0.00     0.028 A
HETATM   11  C9  UNL     1      21.755 -27.111   5.310  1.00  0.00     0.080 A
HETATM   12  C11 UNL     1      21.235 -26.886   6.566  1.00  0.00     0.028 A
HETATM   13  C12 UNL     1      21.352 -25.658   7.158  1.00  0.00     0.046 A
BRANCH  11  14
HETATM   14  S1  UNL     1      21.623 -28.717   4.664  1.00  0.00     0.266 S
HETATM   15  O4  UNL     1      20.197 -29.054   4.313  1.00  0.00    -0.200 OA
HETATM   16  O5  UNL     1      22.488 -28.816   3.413  1.00  0.00    -0.200 OA
BRANCH  14  17
HETATM   17  N2  UNL     1      22.231 -29.881   5.772  1.00  0.00    -0.234 N
HETATM   18  C10 UNL     1      23.557 -29.965   6.131  1.00  0.00     0.342 C
HETATM   19  N3  UNL     1      23.976 -31.005   7.058  1.00  0.00    -0.039 NA
HETATM   20  O6  UNL     1      24.497 -29.203   5.725  1.00  0.00    -0.250 OA
ATOM     21  H2  UNL     1      21.576 -30.544   6.186  1.00  0.00     0.183 HD
ENDBRANCH  14  17
ENDBRANCH  11  14
ENDBRANCH   7   8
ENDBRANCH   3   7
BRANCH   1  22
HETATM   22  C2  UNL     1      21.494 -19.159   7.969  1.00  0.00     0.293 C
HETATM   23  O2  UNL     1      22.011 -18.398   8.800  1.00  0.00    -0.262 OA
BRANCH  22  24
HETATM   24  O1  UNL     1      21.695 -18.876   6.622  1.00  0.00    -0.324 OA
HETATM   25  C1  UNL     1      23.034 -18.599   6.173  1.00  0.00     0.213 C
ENDBRANCH  22  24
ENDBRANCH   1  22
BRANCH   1  26
HETATM   26  O3  UNL     1      19.345 -19.917   8.113  1.00  0.00    -0.379 OA
ATOM     27  H3  UNL     1      19.480 -19.253   7.446  1.00  0.00     0.211 HD
ENDBRANCH   1  26
BRANCH   5  28
HETATM   28  N4  UNL     1      22.290 -21.223  11.637  1.00  0.00    -0.238 N
ATOM     29  H4  UNL     1      23.303 -21.103  11.638  1.00  0.00     0.198 HD
BRANCH  28  30
HETATM   30  N5  UNL     1      21.657 -21.052  12.688  1.00  0.00    -0.247 NA
BRANCH  30  31
HETATM   31  N6  UNL     1      20.913 -21.269  13.643  1.00  0.00    -0.261 N
ATOM     32  H62 UNL     1      21.555 -20.937  14.364  1.00  0.00     0.193 HD
ATOM     33  H61 UNL     1      20.095 -21.557  14.180  1.00  0.00     0.193 HD
ENDBRANCH  30  31
ENDBRANCH  28  30
ENDBRANCH   5  28
TORSDOF 10
ENDMDL