MODEL 3
REMARK VINA RESULT: -8.102700496     11.124     13.328
REMARK  6 active torsions:
REMARK  status: ('A' for Active; 'I' for Inactive)
REMARK    1  A    between atoms: O1_2  and  C2_3
REMARK    2  A    between atoms: C2_3  and  C3_5
REMARK    3  A    between atoms: C7_9  and  N1_10
REMARK    4  A    between atoms: C12_22  and  N3_23
REMARK    5  A    between atoms: N3_23  and  N4_25
REMARK       I    between atoms: N4_25  and  C13_27
REMARK    6  A    between atoms: C13_27  and  C14_29
ROOT
HETATM    1  C3  UNL     1      21.424 -23.853   8.833  1.00  0.00     0.069 A
HETATM    2  C4  UNL     1      22.179 -25.027   8.778  1.00  0.00     0.020 A
HETATM    3  C5  UNL     1      22.533 -25.647   9.948  1.00  0.00     0.003 A
HETATM    4  C6  UNL     1      22.161 -25.141  11.182  1.00  0.00     0.032 A
HETATM    5  C7  UNL     1      21.416 -23.981  11.205  1.00  0.00     0.063 A
HETATM    6  C12 UNL     1      21.033 -23.316  10.035  1.00  0.00     0.091 A
ENDROOT
BRANCH   6   7
HETATM    7  N3  UNL     1      20.273 -22.117  10.087  1.00  0.00    -0.295 N
ATOM      8  H3  UNL     1      19.278 -22.192  10.301  1.00  0.00     0.187 HD
BRANCH   7   9
HETATM    9  N4  UNL     1      20.795 -20.845   9.863  1.00  0.00    -0.265 N
HETATM   10  C13 UNL     1      21.474 -20.099  10.856  1.00  0.00     0.270 C
HETATM   11  O6  UNL     1      21.605 -20.628  12.016  1.00  0.00    -0.266 OA
ATOM     12  H4  UNL     1      20.683 -20.431   8.937  1.00  0.00     0.190 HD
BRANCH  10  13
HETATM   13  C14 UNL     1      22.039 -18.783  10.688  1.00  0.00     0.036 A
HETATM   14  C15 UNL     1      22.287 -18.185   9.461  1.00  0.00     0.034 A
HETATM   15  C16 UNL     1      22.822 -16.922   9.369  1.00  0.00     0.088 A
HETATM   16  N5  UNL     1      23.126 -16.214  10.458  1.00  0.00    -0.375 N
HETATM   17  C17 UNL     1      22.891 -16.782  11.670  1.00  0.00     0.088 A
ATOM     18  H5  UNL     1      23.522 -15.277  10.383  1.00  0.00     0.164 HD
HETATM   19  C18 UNL     1      22.357 -18.044  11.803  1.00  0.00     0.034 A
ENDBRANCH  10  13
ENDBRANCH   7   9
ENDBRANCH   6   7
BRANCH   1  20
HETATM   20  C2  UNL     1      21.027 -23.163   7.601  1.00  0.00     0.295 C
HETATM   21  O2  UNL     1      20.207 -23.670   6.797  1.00  0.00    -0.259 OA
BRANCH  20  22
HETATM   22  O1  UNL     1      21.536 -21.910   7.259  1.00  0.00    -0.322 OA
HETATM   23  C1  UNL     1      22.941 -21.677   7.189  1.00  0.00     0.213 C
ENDBRANCH  20  22
ENDBRANCH   1  20
BRANCH   5  24
HETATM   24  N1  UNL     1      21.016 -23.429  12.446  1.00  0.00    -0.337 N
HETATM   25  C8  UNL     1      20.128 -23.908  13.232  1.00  0.00     0.166 A
HETATM   26  N2  UNL     1      19.418 -25.088  12.937  1.00  0.00    -0.263 N
HETATM   27  C11 UNL     1      19.877 -23.175  14.457  1.00  0.00     0.216 A
HETATM   28  S1  UNL     1      18.232 -25.714  14.012  1.00  0.00     0.254 S
ATOM     29  H2  UNL     1      19.613 -25.583  12.066  1.00  0.00     0.180 HD
HETATM   30  O3  UNL     1      18.733 -27.054  14.521  1.00  0.00    -0.201 OA
HETATM   31  O4  UNL     1      16.927 -25.853  13.300  1.00  0.00    -0.201 OA
HETATM   32  C9  UNL     1      18.140 -24.649  15.377  1.00  0.00     0.135 A
HETATM   33  C10 UNL     1      18.904 -23.581  15.460  1.00  0.00     0.072 A
HETATM   34  O5  UNL     1      20.526 -22.109  14.713  1.00  0.00    -0.284 OA
ATOM     35  H1  UNL     1      21.480 -22.570  12.741  1.00  0.00     0.167 HD
ENDBRANCH   5  24
TORSDOF 6
ENDMDL