MODEL 3
REMARK VINA RESULT: -6.734742970      0.895      1.155
REMARK  14 active torsions:
REMARK  status: ('A' for Active; 'I' for Inactive)
REMARK    1  A    between atoms: C2_2  and  C3_3
REMARK    2  A    between atoms: C3_3  and  C4_4
REMARK    3  A    between atoms: C4_4  and  C5_5
REMARK    4  A    between atoms: C7_10  and  C8_11
REMARK    5  A    between atoms: C8_11  and  C9_12
REMARK    6  A    between atoms: C13_19  and  C14_20
REMARK    7  A    between atoms: C14_20  and  C15_21
REMARK    8  A    between atoms: C19_28  and  C20_29
REMARK    9  A    between atoms: C20_29  and  C21_30
REMARK   10  A    between atoms: C24_35  and  O4_36
REMARK   11  A    between atoms: C25_38  and  C26_39
REMARK   12  A    between atoms: C26_39  and  C27_40
REMARK   13  A    between atoms: C31_45  and  O5_46
REMARK   14  A    between atoms: C32_48  and  C33_49
ROOT
HETATM    1  C5  UNL     1      12.059  17.666  19.385  1.00  0.00     0.176 C
HETATM    2  N1  UNL     1      12.021  19.110  19.232  1.00  0.00    -0.346 N
ATOM      3  H1  UNL     1      11.246  19.561  19.719  1.00  0.00     0.163 HD
HETATM    4  C6  UNL     1      12.840  19.980  18.549  1.00  0.00     0.241 C
HETATM    5  O1  UNL     1      12.286  20.673  17.602  1.00  0.00    -0.271 OA
HETATM    6  C7  UNL     1      14.278  20.281  18.705  1.00  0.00     0.177 C
HETATM    7  N2  UNL     1      14.987  19.957  17.490  1.00  0.00    -0.346 N
ATOM      8  H2  UNL     1      14.930  18.972  17.233  1.00  0.00     0.163 HD
HETATM    9  C12 UNL     1      15.721  20.712  16.614  1.00  0.00     0.241 C
HETATM   10  O2  UNL     1      16.985  20.482  16.507  1.00  0.00    -0.271 OA
HETATM   11  C13 UNL     1      15.269  21.830  15.699  1.00  0.00     0.177 C
HETATM   12  N3  UNL     1      15.371  21.308  14.359  1.00  0.00    -0.346 N
ATOM     13  H3  UNL     1      16.302  21.390  13.950  1.00  0.00     0.163 HD
HETATM   14  C18 UNL     1      14.447  20.722  13.533  1.00  0.00     0.244 C
HETATM   15  O3  UNL     1      14.721  20.631  12.277  1.00  0.00    -0.271 OA
HETATM   16  C19 UNL     1      13.088  20.123  13.832  1.00  0.00     0.199 C
HETATM   17  N4  UNL     1      12.905  18.924  13.058  1.00  0.00    -0.353 N
ATOM     18  H4  UNL     1      13.298  19.044  12.124  1.00  0.00     0.162 HD
HETATM   19  C24 UNL     1      12.362  17.661  13.187  1.00  0.00     0.160 C
HETATM   20  C25 UNL     1      10.983  17.106  13.160  1.00  0.00     0.064 C
HETATM   21  N5  UNL     1      10.851  15.862  13.895  1.00  0.00    -0.333 N
HETATM   22  C30 UNL     1      10.109  14.784  13.175  1.00  0.00     0.158 C
HETATM   23  C31 UNL     1      11.322  15.475  15.150  1.00  0.00     0.150 C
HETATM   24  C32 UNL     1      11.121  15.997  16.538  1.00  0.00     0.249 C
HETATM   25  N7  UNL     1      12.246  16.743  16.989  1.00  0.00    -0.340 N
ATOM     26  H7  UNL     1      12.789  17.170  16.239  1.00  0.00     0.163 HD
HETATM   27  C34 UNL     1      12.744  16.998  18.268  1.00  0.00     0.241 C
HETATM   28  O7  UNL     1      13.952  16.615  18.530  1.00  0.00    -0.271 OA
ENDROOT
BRANCH   1  29
HETATM   29  C4  UNL     1      12.640  17.384  20.724  1.00  0.00     0.035 C
BRANCH  29  30
HETATM   30  C3  UNL     1      12.648  18.525  21.681  1.00  0.00     0.002 C
BRANCH  30  31
HETATM   31  C2  UNL     1      14.081  18.833  22.091  1.00  0.00    -0.004 C
HETATM   32  C1  UNL     1      14.938  17.695  21.643  1.00  0.00     0.005 C
ENDBRANCH  30  31
ENDBRANCH  29  30
ENDBRANCH   1  29
BRANCH   6  33
HETATM   33  C8  UNL     1      14.586  21.670  19.167  1.00  0.00     0.038 C
BRANCH  33  34
HETATM   34  C9  UNL     1      15.735  21.881  20.062  1.00  0.00    -0.020 C
HETATM   35  C10 UNL     1      16.476  20.518  20.107  1.00  0.00     0.009 C
HETATM   36  C11 UNL     1      16.771  22.871  19.666  1.00  0.00     0.009 C
ENDBRANCH  33  34
ENDBRANCH   6  33
BRANCH  24  37
HETATM   37  C33 UNL     1       9.799  16.635  16.752  1.00  0.00     0.262 C
HETATM   38  N6  UNL     1       8.632  15.824  16.843  1.00  0.00    -0.060 NA
HETATM   39  O6  UNL     1       9.594  17.868  16.872  1.00  0.00    -0.274 OA
ENDBRANCH  24  37
BRANCH  23  40
HETATM   40  O5  UNL     1      12.115  14.433  15.174  1.00  0.00    -0.347 OA
ATOM     41  H5  UNL     1      11.984  13.792  14.485  1.00  0.00     0.219 HD
ENDBRANCH  23  40
BRANCH  11  42
HETATM   42  C14 UNL     1      16.235  22.949  15.981  1.00  0.00     0.038 C
BRANCH  42  43
HETATM   43  C15 UNL     1      16.174  24.148  15.118  1.00  0.00    -0.020 C
HETATM   44  C16 UNL     1      17.166  25.193  15.722  1.00  0.00     0.009 C
HETATM   45  C17 UNL     1      16.778  23.915  13.721  1.00  0.00     0.009 C
ENDBRANCH  42  43
ENDBRANCH  11  42
BRANCH  20  46
HETATM   46  C26 UNL     1       9.877  18.068  13.316  1.00  0.00     0.065 C
BRANCH  46  47
HETATM   47  C27 UNL     1       8.510  17.695  12.896  1.00  0.00    -0.017 C
HETATM   48  C28 UNL     1       7.540  18.412  13.865  1.00  0.00     0.010 C
HETATM   49  C29 UNL     1       8.143  18.320  11.537  1.00  0.00     0.010 C
ENDBRANCH  46  47
ENDBRANCH  20  46
BRANCH  19  50
HETATM   50  O4  UNL     1      13.236  16.685  13.377  1.00  0.00    -0.345 OA
ATOM     51  H4  UNL     1      13.438  16.491  14.284  1.00  0.00     0.219 HD
ENDBRANCH  19  50
BRANCH  16  52
HETATM   52  C20 UNL     1      12.045  21.163  13.774  1.00  0.00     0.009 C
BRANCH  52  53
HETATM   53  C21 UNL     1      10.671  20.957  14.204  1.00  0.00    -0.089 C
HETATM   54  C22 UNL     1       9.595  21.878  13.772  1.00  0.00     0.042 C
HETATM   55  C23 UNL     1      10.462  20.590  15.666  1.00  0.00     0.042 C
ENDBRANCH  52  53
ENDBRANCH  16  52
TORSDOF 14
ENDMDL