MODEL 4
REMARK VINA RESULT: -7.235259788      2.831      7.537
REMARK  12 active torsions:
REMARK  status: ('A' for Active; 'I' for Inactive)
REMARK    1  A    between atoms: C2_2  and  C3_3
REMARK    2  A    between atoms: C3_3  and  C4_4
REMARK    3  A    between atoms: C4_4  and  C5_5
REMARK    4  A    between atoms: C7_10  and  C8_11
REMARK    5  A    between atoms: C8_11  and  C9_12
REMARK    6  A    between atoms: C13_19  and  C14_20
REMARK    7  A    between atoms: C14_20  and  C15_21
REMARK    8  A    between atoms: C23_37  and  O5_38
REMARK    9  A    between atoms: C24_40  and  C25_41
REMARK   10  A    between atoms: C25_41  and  C26_42
REMARK   11  A    between atoms: C30_49  and  C31_50
REMARK   12  A    between atoms: C31_50  and  C32_51
ROOT
HETATM    1  C5  UNL     1      12.795  20.183  14.390  1.00  0.00     0.155 C
HETATM    2  N1  UNL     1      12.368  18.829  14.107  1.00  0.00    -0.348 N
ATOM      3  H1  UNL     1      12.674  18.145  14.800  1.00  0.00     0.163 HD
HETATM    4  C6  UNL     1      11.620  18.284  13.071  1.00  0.00     0.241 C
HETATM    5  O1  UNL     1      12.237  17.413  12.335  1.00  0.00    -0.271 OA
HETATM    6  C7  UNL     1      10.216  18.510  12.640  1.00  0.00     0.177 C
HETATM    7  N2  UNL     1       9.892  17.639  11.504  1.00  0.00    -0.346 N
ATOM      8  H2  UNL     1      10.117  17.989  10.573  1.00  0.00     0.163 HD
HETATM    9  C12 UNL     1       9.298  16.362  11.584  1.00  0.00     0.241 C
HETATM   10  O2  UNL     1       8.432  15.992  10.737  1.00  0.00    -0.271 OA
HETATM   11  C13 UNL     1       9.573  15.315  12.603  1.00  0.00     0.177 C
HETATM   12  N3  UNL     1       8.368  14.883  13.286  1.00  0.00    -0.346 N
ATOM     13  H3  UNL     1       7.766  14.253  12.757  1.00  0.00     0.163 HD
HETATM   14  C18 UNL     1       7.920  15.210  14.564  1.00  0.00     0.236 C
HETATM   15  O3  UNL     1       6.737  15.679  14.649  1.00  0.00    -0.272 OA
HETATM   16  C19 UNL     1       8.612  15.095  15.862  1.00  0.00     0.225 C
HETATM   17  N4  UNL     1       9.743  15.972  16.011  1.00  0.00    -0.351 N
ATOM     18  H4  UNL     1       9.794  16.759  15.364  1.00  0.00     0.163 HD
HETATM   19  C20 UNL     1      10.781  15.869  16.941  1.00  0.00     0.240 C
HETATM   20  O4  UNL     1      11.976  15.914  16.547  1.00  0.00    -0.271 OA
HETATM   21  C21 UNL     1      10.605  15.702  18.411  1.00  0.00     0.171 C
HETATM   22  C22 UNL     1      10.017  14.328  18.720  1.00  0.00     0.042 C
HETATM   23  N5  UNL     1      11.848  15.818  19.098  1.00  0.00    -0.360 N
ATOM     24  H5  UNL     1      12.033  15.067  19.764  1.00  0.00     0.162 HD
HETATM   25  C23 UNL     1      12.863  16.784  19.017  1.00  0.00     0.135 C
HETATM   26  C24 UNL     1      12.772  18.249  19.214  1.00  0.00     0.159 C
HETATM   27  N6  UNL     1      11.841  18.934  18.384  1.00  0.00    -0.348 N
ATOM     28  H6  UNL     1      10.880  18.594  18.433  1.00  0.00     0.163 HD
HETATM   29  C29 UNL     1      12.054  20.011  17.509  1.00  0.00     0.229 C
HETATM   30  O6  UNL     1      10.994  20.637  17.110  1.00  0.00    -0.273 OA
HETATM   31  C30 UNL     1      13.304  20.543  16.975  1.00  0.00     0.150 C
HETATM   32  C35 UNL     1      13.675  20.219  15.613  1.00  0.00     0.162 C
HETATM   33  O7  UNL     1      14.854  19.923  15.333  1.00  0.00    -0.295 OA
ENDROOT
BRANCH   1  34
HETATM   34  C4  UNL     1      13.498  20.828  13.222  1.00  0.00     0.033 C
BRANCH  34  35
HETATM   35  C3  UNL     1      13.790  22.271  13.544  1.00  0.00     0.002 C
BRANCH  35  36
HETATM   36  C2  UNL     1      15.238  22.545  13.082  1.00  0.00    -0.004 C
HETATM   37  C1  UNL     1      16.013  23.113  14.272  1.00  0.00     0.005 C
ENDBRANCH  35  36
ENDBRANCH  34  35
ENDBRANCH   1  34
BRANCH  31  38
HETATM   38  C31 UNL     1      13.407  22.039  17.279  1.00  0.00     0.025 C
BRANCH  38  39
HETATM   39  C32 UNL     1      14.310  22.375  18.417  1.00  0.00    -0.021 C
HETATM   40  C33 UNL     1      15.119  21.225  18.936  1.00  0.00     0.009 C
HETATM   41  C34 UNL     1      15.236  23.478  17.947  1.00  0.00     0.009 C
ENDBRANCH  38  39
ENDBRANCH  31  38
BRANCH   6  42
HETATM   42  C8  UNL     1       9.876  19.930  12.410  1.00  0.00     0.038 C
BRANCH  42  43
HETATM   43  C9  UNL     1       9.268  20.687  13.542  1.00  0.00    -0.020 C
HETATM   44  C10 UNL     1      10.023  21.830  14.105  1.00  0.00     0.009 C
HETATM   45  C11 UNL     1       8.751  19.744  14.627  1.00  0.00     0.009 C
ENDBRANCH  42  43
ENDBRANCH   6  42
BRANCH  26  46
HETATM   46  C25 UNL     1      12.649  18.541  20.689  1.00  0.00     0.037 C
BRANCH  46  47
HETATM   47  C26 UNL     1      13.809  18.197  21.548  1.00  0.00    -0.020 C
HETATM   48  C27 UNL     1      14.205  19.531  22.243  1.00  0.00     0.009 C
HETATM   49  C28 UNL     1      13.391  17.316  22.736  1.00  0.00     0.009 C
ENDBRANCH  46  47
ENDBRANCH  26  46
BRANCH  11  50
HETATM   50  C14 UNL     1      10.243  14.166  11.873  1.00  0.00     0.038 C
BRANCH  50  51
HETATM   51  C15 UNL     1      11.174  13.376  12.745  1.00  0.00    -0.020 C
HETATM   52  C16 UNL     1      11.902  14.355  13.663  1.00  0.00     0.009 C
HETATM   53  C17 UNL     1      10.456  12.399  13.652  1.00  0.00     0.009 C
ENDBRANCH  50  51
ENDBRANCH  11  50
BRANCH  25  54
HETATM   54  O5  UNL     1      14.062  16.369  18.734  1.00  0.00    -0.348 OA
ATOM     55  H5  UNL     1      14.765  17.008  18.768  1.00  0.00     0.219 HD
ENDBRANCH  25  54
TORSDOF 12
ENDMDL