MODEL 1
REMARK VINA RESULT: -5.101625328      0.000      0.000
REMARK  14 active torsions:
REMARK  status: ('A' for Active; 'I' for Inactive)
REMARK    1  A    between atoms: C2_2  and  C3_3
REMARK    2  A    between atoms: C3_3  and  C4_4
REMARK    3  A    between atoms: C4_4  and  C5_5
REMARK    4  A    between atoms: C6_8  and  O1_9
REMARK    5  A    between atoms: C7_11  and  C8_12
REMARK    6  A    between atoms: C8_12  and  C9_13
REMARK    7  A    between atoms: C13_20  and  C14_21
REMARK    8  A    between atoms: C14_21  and  C16_23
REMARK    9  A    between atoms: C24_37  and  C25_38
REMARK   10  A    between atoms: C25_38  and  C26_39
REMARK   11  A    between atoms: C26_39  and  C27_40
REMARK   12  A    between atoms: C27_40  and  C28_41
REMARK   13  A    between atoms: C28_41  and  N5_42
REMARK   14  A    between atoms: C31_50  and  C32_51
ROOT
HETATM    1  C5  UNL     1      24.979  26.693  16.988  1.00  0.00     0.175 C
HETATM    2  N1  UNL     1      26.187  26.666  16.226  1.00  0.00    -0.359 N
ATOM      3  H1  UNL     1      26.115  26.012  15.447  1.00  0.00     0.162 HD
HETATM    4  C6  UNL     1      27.412  27.272  16.251  1.00  0.00     0.135 C
HETATM    5  C7  UNL     1      27.891  28.647  15.894  1.00  0.00     0.159 C
HETATM    6  N2  UNL     1      26.988  29.696  16.153  1.00  0.00    -0.347 N
ATOM      7  H2  UNL     1      26.133  29.725  15.597  1.00  0.00     0.163 HD
HETATM    8  C12 UNL     1      27.171  30.736  17.141  1.00  0.00     0.241 C
HETATM    9  O2  UNL     1      26.439  31.787  17.070  1.00  0.00    -0.271 OA
HETATM   10  C13 UNL     1      28.145  30.683  18.241  1.00  0.00     0.181 C
HETATM   11  N3  UNL     1      27.475  30.764  19.542  1.00  0.00    -0.337 N
ATOM     12  H3  UNL     1      26.553  31.196  19.606  1.00  0.00     0.164 HD
HETATM   13  C18 UNL     1      28.086  30.255  20.706  1.00  0.00     0.297 C
HETATM   14  O3  UNL     1      27.837  30.757  21.860  1.00  0.00    -0.258 OA
HETATM   15  C19 UNL     1      28.982  29.189  20.657  1.00  0.00    -0.006 C
HETATM   16  C20 UNL     1      29.702  28.332  20.639  1.00  0.00    -0.095 C
HETATM   17  C21 UNL     1      30.619  27.248  20.646  1.00  0.00     0.114 C
HETATM   18  C22 UNL     1      29.871  26.022  21.189  1.00  0.00     0.135 C
HETATM   19  N4  UNL     1      28.907  26.472  22.171  1.00  0.00    -0.358 N
ATOM     20  H4  UNL     1      29.223  27.175  22.838  1.00  0.00     0.162 HD
HETATM   21  C23 UNL     1      27.573  26.032  22.293  1.00  0.00     0.240 C
HETATM   22  O4  UNL     1      26.701  26.962  22.419  1.00  0.00    -0.271 OA
HETATM   23  C24 UNL     1      27.089  24.650  22.295  1.00  0.00     0.178 C
HETATM   24  N6  UNL     1      27.168  23.933  21.053  1.00  0.00    -0.341 N
HETATM   25  C29 UNL     1      27.974  22.678  21.078  1.00  0.00     0.153 C
HETATM   26  C30 UNL     1      26.597  24.238  19.822  1.00  0.00     0.243 C
HETATM   27  O5  UNL     1      27.419  24.145  18.823  1.00  0.00    -0.271 OA
HETATM   28  C31 UNL     1      25.245  24.642  19.439  1.00  0.00     0.180 C
HETATM   29  N7  UNL     1      24.971  26.050  19.488  1.00  0.00    -0.346 N
ATOM     30  H7  UNL     1      24.682  26.426  20.391  1.00  0.00     0.163 HD
HETATM   31  C35 UNL     1      25.059  26.977  18.416  1.00  0.00     0.241 C
HETATM   32  O6  UNL     1      25.223  28.166  18.781  1.00  0.00    -0.271 OA
ENDROOT
BRANCH  23  33
HETATM   33  C25 UNL     1      27.835  23.902  23.412  1.00  0.00     0.035 C
BRANCH  33  34
HETATM   34  C26 UNL     1      26.786  23.589  24.469  1.00  0.00     0.004 C
BRANCH  34  35
HETATM   35  C27 UNL     1      27.077  24.277  25.774  1.00  0.00     0.027 C
BRANCH  35  36
HETATM   36  C28 UNL     1      25.851  25.054  26.218  1.00  0.00     0.229 C
BRANCH  36  37
HETATM   37  N5  UNL     1      25.609  26.180  25.304  1.00  0.00    -0.079 N
ATOM     38  H53 UNL     1      26.324  26.902  25.390  1.00  0.00     0.274 HD
ATOM     39  H52 UNL     1      25.771  25.924  24.330  1.00  0.00     0.274 HD
ATOM     40  H51 UNL     1      24.671  26.553  25.449  1.00  0.00     0.274 HD
ENDBRANCH  36  37
ENDBRANCH  35  36
ENDBRANCH  34  35
ENDBRANCH  33  34
ENDBRANCH  23  33
BRANCH  28  41
HETATM   41  C32 UNL     1      24.133  23.930  20.190  1.00  0.00     0.009 C
HETATM   42  C33 UNL     1      22.773  24.491  19.776  1.00  0.00     0.012 C
HETATM   43  C34 UNL     1      24.089  22.448  19.882  1.00  0.00     0.012 C
ENDBRANCH  28  41
BRANCH   1  44
HETATM   44  C4  UNL     1      23.873  27.527  16.317  1.00  0.00     0.035 C
BRANCH  44  45
HETATM   45  C3  UNL     1      22.528  27.194  16.935  1.00  0.00     0.002 C
BRANCH  45  46
HETATM   46  C2  UNL     1      21.429  27.556  15.964  1.00  0.00    -0.004 C
HETATM   47  C1  UNL     1      21.615  26.733  14.719  1.00  0.00     0.005 C
ENDBRANCH  45  46
ENDBRANCH  44  45
ENDBRANCH   1  44
BRANCH   4  48
HETATM   48  O1  UNL     1      28.403  26.534  16.660  1.00  0.00    -0.348 OA
ATOM     49  H1  UNL     1      29.103  26.396  16.034  1.00  0.00     0.219 HD
ENDBRANCH   4  48
BRANCH  10  50
HETATM   50  C14 UNL     1      29.170  31.777  18.254  1.00  0.00     0.013 C
HETATM   51  C15 UNL     1      29.745  32.034  16.896  1.00  0.00     0.012 C
BRANCH  50  52
HETATM   52  C16 UNL     1      28.719  33.077  18.831  1.00  0.00     0.002 C
HETATM   53  C17 UNL     1      29.821  33.494  19.828  1.00  0.00     0.005 C
ENDBRANCH  50  52
ENDBRANCH  10  50
BRANCH   5  54
HETATM   54  C8  UNL     1      28.277  28.607  14.432  1.00  0.00     0.037 C
BRANCH  54  55
HETATM   55  C9  UNL     1      29.546  29.192  14.004  1.00  0.00    -0.020 C
HETATM   56  C10 UNL     1      30.207  28.653  12.768  1.00  0.00     0.009 C
HETATM   57  C11 UNL     1      30.571  28.944  15.135  1.00  0.00     0.009 C
ENDBRANCH  54  55
ENDBRANCH   5  54
TORSDOF 14
ENDMDL