MODEL 4
REMARK VINA RESULT: -5.926793194      1.042      1.522
REMARK  14 active torsions:
REMARK  status: ('A' for Active; 'I' for Inactive)
REMARK    1  A    between atoms: C2_2  and  C3_3
REMARK    2  A    between atoms: C3_3  and  C4_4
REMARK    3  A    between atoms: C4_4  and  N1_5
REMARK       I    between atoms: N1_5  and  C5_7
REMARK    4  A    between atoms: C5_7  and  C6_9
REMARK    5  A    between atoms: C9_12  and  O2_13
REMARK    6  A    between atoms: C16_26  and  C17_27
REMARK    7  A    between atoms: C17_27  and  C18_28
REMARK    8  A    between atoms: C22_35  and  C23_36
REMARK    9  A    between atoms: C23_36  and  C24_37
REMARK   10  A    between atoms: C27_40  and  O5_41
REMARK   11  A    between atoms: C28_45  and  C29_46
REMARK   12  A    between atoms: C29_46  and  C31_48
REMARK   13  A    between atoms: C33_50  and  O6_51
REMARK   14  A    between atoms: N6_53  and  C34_54
ROOT
HETATM    1  C6  UNL     1      15.908  22.374  17.620  1.00  0.00     0.189 C
HETATM    2  C7  UNL     1      16.107  21.012  18.168  1.00  0.00     0.088 C
HETATM    3  C8  UNL     1      16.524  19.931  17.266  1.00  0.00     0.021 C
HETATM    4  C9  UNL     1      14.960  20.584  19.006  1.00  0.00     0.117 C
HETATM    5  N2  UNL     1      14.581  19.365  19.515  1.00  0.00    -0.369 N
ATOM      6  H2  UNL     1      14.561  19.340  20.535  1.00  0.00     0.161 HD
HETATM    7  C10 UNL     1      14.208  18.114  18.905  1.00  0.00     0.096 C
HETATM    8  C11 UNL     1      15.231  17.041  19.317  1.00  0.00     0.033 C
HETATM    9  C12 UNL     1      12.815  17.655  19.389  1.00  0.00     0.053 C
HETATM   10  C13 UNL     1      12.654  16.206  19.073  1.00  0.00     0.027 C
HETATM   11  C14 UNL     1      12.927  17.725  20.923  1.00  0.00     0.027 C
HETATM   12  C15 UNL     1      11.778  18.536  18.886  1.00  0.00     0.228 C
HETATM   13  O3  UNL     1      11.521  19.541  19.651  1.00  0.00    -0.273 OA
HETATM   14  N3  UNL     1      11.014  18.473  17.713  1.00  0.00    -0.347 N
ATOM     15  H3  UNL     1      10.100  18.920  17.777  1.00  0.00     0.163 HD
HETATM   16  C16 UNL     1      11.302  17.892  16.456  1.00  0.00     0.177 C
HETATM   17  C21 UNL     1      12.114  18.728  15.537  1.00  0.00     0.244 C
HETATM   18  O4  UNL     1      12.368  18.154  14.416  1.00  0.00    -0.271 OA
HETATM   19  N4  UNL     1      12.637  20.006  15.694  1.00  0.00    -0.325 N
ATOM     20  H4  UNL     1      13.656  20.047  15.681  1.00  0.00     0.169 HD
HETATM   21  C22 UNL     1      11.997  21.278  15.873  1.00  0.00     0.063 C
HETATM   22  C27 UNL     1      12.724  22.459  15.419  1.00  0.00     0.159 C
HETATM   23  N5  UNL     1      13.757  22.695  14.528  1.00  0.00    -0.357 N
ATOM     24  H5  UNL     1      13.582  23.524  13.960  1.00  0.00     0.162 HD
HETATM   25  C28 UNL     1      14.980  22.090  14.204  1.00  0.00     0.162 C
HETATM   26  C33 UNL     1      16.167  22.310  15.059  1.00  0.00     0.138 C
HETATM   27  N6  UNL     1      16.445  22.739  16.338  1.00  0.00    -0.350 N
ENDROOT
BRANCH   1  28
HETATM   28  C5  UNL     1      16.271  23.331  18.714  1.00  0.00     0.241 C
HETATM   29  N1  UNL     1      17.211  23.083  19.718  1.00  0.00    -0.359 N
ATOM     30  H1  UNL     1      17.699  22.187  19.724  1.00  0.00     0.162 HD
HETATM   31  O1  UNL     1      15.673  24.436  18.710  1.00  0.00    -0.271 OA
BRANCH  29  32
HETATM   32  C4  UNL     1      17.516  24.044  20.742  1.00  0.00     0.122 C
BRANCH  32  33
HETATM   33  C3  UNL     1      18.966  23.978  21.151  1.00  0.00     0.019 C
BRANCH  33  34
HETATM   34  C2  UNL     1      19.587  22.776  20.449  1.00  0.00    -0.003 C
HETATM   35  C1  UNL     1      20.560  22.155  21.448  1.00  0.00     0.005 C
ENDBRANCH  33  34
ENDBRANCH  32  33
ENDBRANCH  29  32
ENDBRANCH   1  28
BRANCH  27  36
HETATM   36  C34 UNL     1      17.525  23.762  16.443  1.00  0.00     0.121 C
HETATM   37  C35 UNL     1      17.093  25.044  15.716  1.00  0.00     0.026 C
ENDBRANCH  27  36
BRANCH   4  38
HETATM   38  O2  UNL     1      14.165  21.582  19.308  1.00  0.00    -0.349 OA
ATOM     39  H2  UNL     1      14.624  22.285  19.752  1.00  0.00     0.219 HD
ENDBRANCH   4  38
BRANCH  26  40
HETATM   40  O6  UNL     1      17.279  22.010  14.413  1.00  0.00    -0.348 OA
ATOM     41  H6  UNL     1      17.597  22.754  13.917  1.00  0.00     0.219 HD
ENDBRANCH  26  40
BRANCH  25  42
HETATM   42  C29 UNL     1      15.403  22.580  12.777  1.00  0.00     0.012 C
HETATM   43  C30 UNL     1      16.419  23.655  12.817  1.00  0.00     0.012 C
BRANCH  42  44
HETATM   44  C31 UNL     1      15.762  21.424  11.893  1.00  0.00     0.002 C
HETATM   45  C32 UNL     1      14.930  20.212  12.348  1.00  0.00     0.005 C
ENDBRANCH  42  44
ENDBRANCH  25  42
BRANCH  22  46
HETATM   46  O5  UNL     1      12.287  23.545  16.001  1.00  0.00    -0.345 OA
ATOM     47  H5  UNL     1      12.694  24.323  15.638  1.00  0.00     0.219 HD
ENDBRANCH  22  46
BRANCH  21  48
HETATM   48  C23 UNL     1      10.560  21.393  15.556  1.00  0.00     0.065 C
BRANCH  48  49
HETATM   49  C24 UNL     1      10.127  21.403  14.147  1.00  0.00    -0.017 C
HETATM   50  C25 UNL     1       9.315  22.604  13.725  1.00  0.00     0.010 C
HETATM   51  C26 UNL     1       9.275  20.177  13.794  1.00  0.00     0.010 C
ENDBRANCH  48  49
ENDBRANCH  21  48
BRANCH  16  52
HETATM   52  C17 UNL     1      10.086  17.458  15.688  1.00  0.00     0.038 C
BRANCH  52  53
HETATM   53  C18 UNL     1       9.731  16.025  15.716  1.00  0.00    -0.020 C
HETATM   54  C19 UNL     1       9.166  15.478  16.977  1.00  0.00     0.009 C
HETATM   55  C20 UNL     1      10.843  15.140  15.190  1.00  0.00     0.009 C
ENDBRANCH  52  53
ENDBRANCH  16  52
TORSDOF 14
ENDMDL