MODEL 5
REMARK VINA RESULT: -6.088990924      1.312      1.588
REMARK  13 active torsions:
REMARK  status: ('A' for Active; 'I' for Inactive)
REMARK    1  A    between atoms: C2_2  and  C3_3
REMARK    2  A    between atoms: C3_3  and  C4_4
REMARK    3  A    between atoms: C4_4  and  N1_5
REMARK       I    between atoms: N1_5  and  C5_7
REMARK       I    between atoms: C5_7  and  N2_9
REMARK    4  A    between atoms: N2_9  and  C6_11
REMARK    5  A    between atoms: C6_11  and  C8_13
REMARK    6  A    between atoms: C9_14  and  O2_15
REMARK    7  A    between atoms: C10_19  and  C11_20
REMARK    8  A    between atoms: C15_27  and  C16_28
REMARK    9  A    between atoms: C16_28  and  C17_29
REMARK   10  A    between atoms: C21_36  and  C22_37
REMARK   11  A    between atoms: C22_37  and  C23_38
REMARK   12  A    between atoms: C27_45  and  C28_46
REMARK   13  A    between atoms: C28_46  and  C29_47
ROOT
HETATM    1  C8  UNL     1      24.017  25.174  20.107  1.00  0.00     0.175 C
HETATM    2  C9  UNL     1      24.576  25.326  21.450  1.00  0.00     0.131 C
HETATM    3  N3  UNL     1      25.231  24.467  22.306  1.00  0.00    -0.338 N
ATOM      4  H3  UNL     1      24.672  24.252  23.132  1.00  0.00     0.167 HD
HETATM    5  C10 UNL     1      26.490  23.803  22.327  1.00  0.00     0.082 C
HETATM    6  C14 UNL     1      27.471  24.377  23.295  1.00  0.00     0.265 C
HETATM    7  O3  UNL     1      27.322  24.010  24.527  1.00  0.00    -0.266 OA
HETATM    8  N4  UNL     1      28.522  25.246  23.066  1.00  0.00    -0.343 N
ATOM      9  H4  UNL     1      29.447  24.893  23.313  1.00  0.00     0.163 HD
HETATM   10  C15 UNL     1      28.490  26.611  22.516  1.00  0.00     0.177 C
HETATM   11  C20 UNL     1      29.662  26.822  21.650  1.00  0.00     0.241 C
HETATM   12  O4  UNL     1      30.631  25.986  21.842  1.00  0.00    -0.271 OA
HETATM   13  N5  UNL     1      29.878  27.778  20.666  1.00  0.00    -0.346 N
ATOM     14  H5  UNL     1      30.759  28.286  20.753  1.00  0.00     0.163 HD
HETATM   15  C21 UNL     1      29.063  28.173  19.540  1.00  0.00     0.177 C
HETATM   16  C26 UNL     1      28.450  27.042  18.882  1.00  0.00     0.241 C
HETATM   17  O5  UNL     1      29.280  26.091  18.571  1.00  0.00    -0.271 OA
HETATM   18  N6  UNL     1      27.137  26.746  18.501  1.00  0.00    -0.346 N
ATOM     19  H6  UNL     1      26.865  25.766  18.574  1.00  0.00     0.163 HD
HETATM   20  C27 UNL     1      26.113  27.647  18.017  1.00  0.00     0.177 C
HETATM   21  C32 UNL     1      24.880  26.968  17.544  1.00  0.00     0.248 C
HETATM   22  O6  UNL     1      24.920  26.361  16.407  1.00  0.00    -0.271 OA
HETATM   23  N7  UNL     1      23.624  26.902  18.203  1.00  0.00    -0.290 N
HETATM   24  C33 UNL     1      22.398  27.331  17.472  1.00  0.00     0.162 C
HETATM   25  C34 UNL     1      23.459  26.454  19.535  1.00  0.00     0.240 C
HETATM   26  O7  UNL     1      22.778  27.197  20.329  1.00  0.00    -0.272 OA
ENDROOT
BRANCH   1  27
HETATM   27  C6  UNL     1      22.882  24.175  20.033  1.00  0.00     0.103 C
HETATM   28  C7  UNL     1      23.421  22.773  20.026  1.00  0.00     0.033 C
BRANCH  27  29
HETATM   29  N2  UNL     1      21.928  24.421  19.000  1.00  0.00    -0.338 N
HETATM   30  C5  UNL     1      20.547  24.243  19.241  1.00  0.00     0.316 C
HETATM   31  N1  UNL     1      19.615  24.494  18.198  1.00  0.00    -0.343 N
HETATM   32  O1  UNL     1      20.173  23.867  20.373  1.00  0.00    -0.247 OA
ATOM     33  H1  UNL     1      19.923  24.801  17.275  1.00  0.00     0.164 HD
ATOM     34  H2  UNL     1      22.246  24.727  18.081  1.00  0.00     0.164 HD
BRANCH  31  35
HETATM   35  C4  UNL     1      18.208  24.297  18.492  1.00  0.00     0.124 C
BRANCH  35  36
HETATM   36  C3  UNL     1      17.388  24.934  17.408  1.00  0.00     0.019 C
BRANCH  36  37
HETATM   37  C2  UNL     1      18.232  24.854  16.135  1.00  0.00    -0.003 C
HETATM   38  C1  UNL     1      17.329  25.225  14.978  1.00  0.00     0.005 C
ENDBRANCH  36  37
ENDBRANCH  35  36
ENDBRANCH  31  35
ENDBRANCH  27  29
ENDBRANCH   1  27
BRANCH   2  39
HETATM   39  O2  UNL     1      24.413  26.530  21.920  1.00  0.00    -0.349 OA
ATOM     40  H2  UNL     1      24.569  26.576  22.856  1.00  0.00     0.219 HD
ENDBRANCH   2  39
BRANCH   5  41
HETATM   41  C11 UNL     1      27.125  23.449  21.007  1.00  0.00     0.033 C
HETATM   42  C12 UNL     1      28.597  23.035  21.248  1.00  0.00     0.016 C
HETATM   43  C13 UNL     1      26.492  22.201  20.421  1.00  0.00     0.016 C
ENDBRANCH   5  41
BRANCH  20  44
HETATM   44  C28 UNL     1      26.708  28.235  16.718  1.00  0.00     0.038 C
BRANCH  44  45
HETATM   45  C29 UNL     1      26.938  29.705  16.811  1.00  0.00    -0.020 C
HETATM   46  C30 UNL     1      28.216  30.078  16.093  1.00  0.00     0.009 C
HETATM   47  C31 UNL     1      25.781  30.378  16.078  1.00  0.00     0.009 C
ENDBRANCH  44  45
ENDBRANCH  20  44
BRANCH  10  48
HETATM   48  C16 UNL     1      28.242  27.617  23.572  1.00  0.00     0.038 C
BRANCH  48  49
HETATM   49  C17 UNL     1      29.165  27.749  24.701  1.00  0.00    -0.020 C
HETATM   50  C18 UNL     1      29.778  29.114  24.849  1.00  0.00     0.009 C
HETATM   51  C19 UNL     1      28.426  27.461  26.022  1.00  0.00     0.009 C
ENDBRANCH  48  49
ENDBRANCH  10  48
BRANCH  15  52
HETATM   52  C22 UNL     1      28.187  29.282  20.025  1.00  0.00     0.038 C
BRANCH  52  53
HETATM   53  C23 UNL     1      29.158  30.372  20.551  1.00  0.00    -0.020 C
HETATM   54  C24 UNL     1      28.615  31.005  21.802  1.00  0.00     0.009 C
HETATM   55  C25 UNL     1      29.305  31.473  19.521  1.00  0.00     0.009 C
ENDBRANCH  52  53
ENDBRANCH  15  52
TORSDOF 13
ENDMDL