MODEL 5
REMARK VINA RESULT: -6.128411163      3.879      6.631
REMARK  14 active torsions:
REMARK  status: ('A' for Active; 'I' for Inactive)
REMARK    1  A    between atoms: C2_2  and  C3_3
REMARK    2  A    between atoms: C3_3  and  C4_4
REMARK    3  A    between atoms: C4_4  and  C5_5
REMARK    4  A    between atoms: C5_5  and  C6_6
REMARK    5  A    between atoms: C6_6  and  C7_7
REMARK    6  A    between atoms: C14_19  and  C15_20
REMARK    7  A    between atoms: C15_20  and  C16_21
REMARK    8  A    between atoms: C20_28  and  C21_29
REMARK    9  A    between atoms: C21_29  and  N4_30
REMARK   10  A    between atoms: C23_36  and  O4_37
REMARK   11  A    between atoms: C24_39  and  C25_40
REMARK   12  A    between atoms: C25_40  and  C26_41
REMARK   13  A    between atoms: C30_48  and  C31_49
REMARK   14  A    between atoms: C31_49  and  C32_50
ROOT
HETATM    1  C7  UNL     1      11.826  19.005  12.909  1.00  0.00     0.176 C
HETATM    2  N1  UNL     1      10.658  18.606  13.599  1.00  0.00    -0.346 N
ATOM      3  H1  UNL     1      10.805  18.427  14.592  1.00  0.00     0.163 HD
HETATM    4  C8  UNL     1       9.332  18.411  13.175  1.00  0.00     0.241 C
HETATM    5  O1  UNL     1       8.388  19.170  13.641  1.00  0.00    -0.271 OA
HETATM    6  C9  UNL     1       8.823  17.400  12.214  1.00  0.00     0.179 C
HETATM    7  C10 UNL     1       8.234  18.209  11.072  1.00  0.00     0.037 C
HETATM    8  C11 UNL     1       6.753  18.136  11.349  1.00  0.00     0.022 C
HETATM    9  C12 UNL     1       6.646  16.662  11.703  1.00  0.00     0.127 C
HETATM   10  N2  UNL     1       7.725  16.598  12.730  1.00  0.00    -0.337 N
HETATM   11  C13 UNL     1       7.689  15.902  13.952  1.00  0.00     0.243 C
HETATM   12  O2  UNL     1       6.692  16.191  14.725  1.00  0.00    -0.271 OA
HETATM   13  C14 UNL     1       8.616  14.894  14.473  1.00  0.00     0.177 C
HETATM   14  N3  UNL     1       9.925  15.319  14.815  1.00  0.00    -0.346 N
ATOM     15  H3  UNL     1      10.537  15.585  14.043  1.00  0.00     0.163 HD
HETATM   16  C19 UNL     1      10.476  15.411  16.139  1.00  0.00     0.242 C
HETATM   17  O3  UNL     1      11.726  15.126  16.183  1.00  0.00    -0.271 OA
HETATM   18  C20 UNL     1       9.673  15.788  17.283  1.00  0.00     0.201 C
HETATM   19  N5  UNL     1      10.031  16.987  18.004  1.00  0.00    -0.358 N
ATOM     20  H5  UNL     1       9.514  17.089  18.877  1.00  0.00     0.162 HD
HETATM   21  C23 UNL     1      10.906  18.023  17.785  1.00  0.00     0.135 C
HETATM   22  C24 UNL     1      12.389  18.104  17.739  1.00  0.00     0.159 C
HETATM   23  N6  UNL     1      12.815  19.505  17.896  1.00  0.00    -0.347 N
ATOM     24  H6  UNL     1      12.733  19.900  18.832  1.00  0.00     0.163 HD
HETATM   25  C29 UNL     1      13.315  20.350  16.917  1.00  0.00     0.241 C
HETATM   26  O5  UNL     1      14.312  21.092  17.244  1.00  0.00    -0.271 OA
HETATM   27  C30 UNL     1      12.867  20.530  15.525  1.00  0.00     0.177 C
HETATM   28  N7  UNL     1      13.615  19.642  14.654  1.00  0.00    -0.346 N
ATOM     29  H7  UNL     1      14.633  19.693  14.694  1.00  0.00     0.163 HD
HETATM   30  C35 UNL     1      13.045  18.713  13.757  1.00  0.00     0.241 C
HETATM   31  O6  UNL     1      13.618  17.570  13.685  1.00  0.00    -0.271 OA
ENDROOT
BRANCH   1  32
HETATM   32  C6  UNL     1      12.089  18.355  11.583  1.00  0.00     0.035 C
BRANCH  32  33
HETATM   33  C5  UNL     1      12.000  16.836  11.730  1.00  0.00     0.002 C
BRANCH  33  34
HETATM   34  C4  UNL     1      11.927  16.132  10.419  1.00  0.00     0.000 C
BRANCH  34  35
HETATM   35  C3  UNL     1      12.987  15.086  10.313  1.00  0.00    -0.000 C
BRANCH  35  36
HETATM   36  C2  UNL     1      13.891  15.047  11.528  1.00  0.00    -0.005 C
HETATM   37  C1  UNL     1      15.336  15.247  11.194  1.00  0.00     0.005 C
ENDBRANCH  35  36
ENDBRANCH  34  35
ENDBRANCH  33  34
ENDBRANCH  32  33
ENDBRANCH   1  32
BRANCH  27  38
HETATM   38  C31 UNL     1      13.159  21.957  15.028  1.00  0.00     0.038 C
BRANCH  38  39
HETATM   39  C32 UNL     1      14.299  21.903  14.025  1.00  0.00    -0.020 C
HETATM   40  C33 UNL     1      15.345  22.939  14.419  1.00  0.00     0.009 C
HETATM   41  C34 UNL     1      13.811  22.245  12.647  1.00  0.00     0.009 C
ENDBRANCH  38  39
ENDBRANCH  27  38
BRANCH  13  42
HETATM   42  C15 UNL     1       8.788  13.720  13.494  1.00  0.00     0.038 C
BRANCH  42  43
HETATM   43  C16 UNL     1      10.104  13.040  13.650  1.00  0.00    -0.020 C
HETATM   44  C17 UNL     1       9.901  11.745  14.381  1.00  0.00     0.009 C
HETATM   45  C18 UNL     1      10.692  12.691  12.281  1.00  0.00     0.009 C
ENDBRANCH  42  43
ENDBRANCH  13  42
BRANCH  22  46
HETATM   46  C25 UNL     1      13.018  17.266  18.801  1.00  0.00     0.037 C
BRANCH  46  47
HETATM   47  C26 UNL     1      13.497  17.918  20.027  1.00  0.00    -0.020 C
HETATM   48  C27 UNL     1      12.682  17.602  21.260  1.00  0.00     0.009 C
HETATM   49  C28 UNL     1      14.984  17.922  20.262  1.00  0.00     0.009 C
ENDBRANCH  46  47
ENDBRANCH  22  46
BRANCH  21  50
HETATM   50  O4  UNL     1      10.349  19.181  17.573  1.00  0.00    -0.348 OA
ATOM     51  H4  UNL     1      10.285  19.742  18.336  1.00  0.00     0.219 HD
ENDBRANCH  21  50
BRANCH  18  52
HETATM   52  C21 UNL     1       9.415  14.642  18.248  1.00  0.00     0.266 C
BRANCH  52  53
HETATM   53  N4  UNL     1       8.114  14.600  18.809  1.00  0.00    -0.077 N
HETATM   54  C22 UNL     1       7.290  13.779  17.934  1.00  0.00     0.267 C
ATOM     55  H42 UNL     1       8.108  14.280  19.778  1.00  0.00     0.276 HD
ATOM     56  H41 UNL     1       7.721  15.527  18.973  1.00  0.00     0.276 HD
ENDBRANCH  52  53
ENDBRANCH  18  52
TORSDOF 14
ENDMDL