MODEL 5
REMARK VINA RESULT: -5.864786856      1.256      1.515
REMARK  15 active torsions:
REMARK  status: ('A' for Active; 'I' for Inactive)
REMARK    1  A    between atoms: C2_2  and  C3_3
REMARK    2  A    between atoms: C3_3  and  C4_4
REMARK    3  A    between atoms: C7_7  and  C8_8
REMARK    4  A    between atoms: C8_8  and  C9_9
REMARK    5  A    between atoms: C10_12  and  O1_13
REMARK    6  A    between atoms: C11_15  and  C12_16
REMARK    7  A    between atoms: C12_16  and  C14_18
REMARK    8  A    between atoms: C17_24  and  C18_25
REMARK    9  A    between atoms: C18_25  and  C19_26
REMARK   10  A    between atoms: C21_30  and  O3_31
REMARK   11  A    between atoms: C22_33  and  C23_34
REMARK   12  A    between atoms: C23_34  and  C24_35
REMARK   13  A    between atoms: C27_40  and  O4_41
REMARK   14  A    between atoms: C28_43  and  C29_44
REMARK   15  A    between atoms: C32_49  and  O5_50
ROOT
HETATM    1  C9  UNL     1      22.587  25.494  19.008  1.00  0.00     0.181 C
HETATM    2  N1  UNL     1      23.397  24.333  19.097  1.00  0.00    -0.359 N
ATOM      3  H1  UNL     1      23.748  24.087  18.172  1.00  0.00     0.162 HD
HETATM    4  C10 UNL     1      23.866  23.425  20.030  1.00  0.00     0.135 C
HETATM    5  C11 UNL     1      25.094  23.370  20.897  1.00  0.00     0.162 C
HETATM    6  N2  UNL     1      25.794  24.645  20.975  1.00  0.00    -0.347 N
ATOM      7  H2  UNL     1      26.067  25.012  20.064  1.00  0.00     0.163 HD
HETATM    8  C16 UNL     1      26.164  25.456  22.025  1.00  0.00     0.241 C
HETATM    9  O2  UNL     1      25.455  26.535  22.146  1.00  0.00    -0.271 OA
HETATM   10  C17 UNL     1      27.210  25.375  23.071  1.00  0.00     0.175 C
HETATM   11  N3  UNL     1      28.568  25.519  22.650  1.00  0.00    -0.359 N
ATOM     12  H3  UNL     1      28.956  24.603  22.426  1.00  0.00     0.162 HD
HETATM   13  C21 UNL     1      29.508  26.473  22.452  1.00  0.00     0.135 C
HETATM   14  C22 UNL     1      29.647  27.729  21.615  1.00  0.00     0.158 C
HETATM   15  N4  UNL     1      28.407  28.075  20.991  1.00  0.00    -0.361 N
ATOM     16  H4  UNL     1      27.691  28.217  21.702  1.00  0.00     0.162 HD
HETATM   17  C27 UNL     1      27.873  28.275  19.751  1.00  0.00     0.135 C
HETATM   18  C28 UNL     1      27.594  29.423  18.855  1.00  0.00     0.161 C
HETATM   19  N5  UNL     1      26.203  29.552  18.476  1.00  0.00    -0.357 N
ATOM     20  H5  UNL     1      25.662  30.158  19.093  1.00  0.00     0.162 HD
HETATM   21  C32 UNL     1      25.456  29.001  17.423  1.00  0.00     0.159 C
HETATM   22  C33 UNL     1      24.986  27.630  17.211  1.00  0.00     0.059 C
HETATM   23  C34 UNL     1      25.501  26.974  15.937  1.00  0.00     0.072 C
HETATM   24  N6  UNL     1      24.223  26.933  17.903  1.00  0.00    -0.325 N
ATOM     25  H6  UNL     1      24.159  26.047  17.402  1.00  0.00     0.168 HD
HETATM   26  C35 UNL     1      23.443  26.768  18.983  1.00  0.00     0.245 C
HETATM   27  O6  UNL     1      23.239  27.455  20.036  1.00  0.00    -0.271 OA
ENDROOT
BRANCH   1  28
HETATM   28  C8  UNL     1      21.486  25.639  19.987  1.00  0.00     0.091 C
BRANCH  28  29
HETATM   29  C7  UNL     1      20.256  24.897  19.650  1.00  0.00     0.011 A
HETATM   30  C6  UNL     1      19.843  24.465  18.416  1.00  0.00     0.027 A
HETATM   31  C5  UNL     1      18.639  23.820  18.569  1.00  0.00     0.027 A
HETATM   32  C4  UNL     1      18.325  23.862  19.908  1.00  0.00     0.012 A
HETATM   33  N7  UNL     1      19.306  24.511  20.532  1.00  0.00    -0.363 N
ATOM     34  H7  UNL     1      19.337  24.692  21.535  1.00  0.00     0.165 HD
BRANCH  32  35
HETATM   35  C3  UNL     1      17.083  23.258  20.475  1.00  0.00     0.083 C
BRANCH  35  36
HETATM   36  C2  UNL     1      16.814  21.985  19.726  1.00  0.00    -0.031 C
HETATM   37  C1  UNL     1      15.700  21.293  19.901  1.00  0.00     0.007 C
ENDBRANCH  35  36
ENDBRANCH  32  35
ENDBRANCH  28  29
ENDBRANCH   1  28
BRANCH   4  38
HETATM   38  O1  UNL     1      23.159  22.339  20.279  1.00  0.00    -0.348 OA
ATOM     39  H1  UNL     1      23.409  21.782  21.007  1.00  0.00     0.219 HD
ENDBRANCH   4  38
BRANCH   5  40
HETATM   40  C12 UNL     1      26.091  22.391  20.302  1.00  0.00     0.012 C
HETATM   41  C13 UNL     1      26.637  22.870  18.991  1.00  0.00     0.012 C
BRANCH  40  42
HETATM   42  C14 UNL     1      27.211  21.961  21.173  1.00  0.00     0.002 C
HETATM   43  C15 UNL     1      28.497  22.285  20.430  1.00  0.00     0.005 C
ENDBRANCH  40  42
ENDBRANCH   5  40
BRANCH  21  44
HETATM   44  O5  UNL     1      25.098  29.801  16.461  1.00  0.00    -0.345 OA
ATOM     45  H5  UNL     1      24.177  29.823  16.231  1.00  0.00     0.219 HD
ENDBRANCH  21  44
BRANCH  10  46
HETATM   46  C18 UNL     1      26.792  26.251  24.237  1.00  0.00     0.034 C
BRANCH  46  47
HETATM   47  C19 UNL     1      26.235  25.498  25.403  1.00  0.00    -0.002 C
HETATM   48  C20 UNL     1      25.090  26.294  26.021  1.00  0.00     0.005 C
ENDBRANCH  46  47
ENDBRANCH  10  46
BRANCH  18  49
HETATM   49  C29 UNL     1      28.075  30.765  19.347  1.00  0.00     0.008 C
HETATM   50  C30 UNL     1      27.441  31.945  18.686  1.00  0.00     0.012 C
HETATM   51  C31 UNL     1      29.566  30.834  18.953  1.00  0.00     0.012 C
ENDBRANCH  18  49
BRANCH  17  52
HETATM   52  O4  UNL     1      27.466  27.205  19.109  1.00  0.00    -0.348 OA
ATOM     53  H4  UNL     1      26.691  27.304  18.568  1.00  0.00     0.219 HD
ENDBRANCH  17  52
BRANCH  13  54
HETATM   54  O3  UNL     1      30.623  26.350  23.119  1.00  0.00    -0.348 OA
ATOM     55  H3  UNL     1      31.271  27.035  23.003  1.00  0.00     0.219 HD
ENDBRANCH  13  54
BRANCH  14  56
HETATM   56  C23 UNL     1      30.860  27.581  20.767  1.00  0.00     0.037 C
BRANCH  56  57
HETATM   57  C24 UNL     1      30.886  26.607  19.673  1.00  0.00    -0.020 C
HETATM   58  C25 UNL     1      32.145  25.727  19.915  1.00  0.00     0.009 C
HETATM   59  C26 UNL     1      31.124  27.237  18.308  1.00  0.00     0.009 C
ENDBRANCH  56  57
ENDBRANCH  14  56
TORSDOF 15
ENDMDL