MODEL 2
REMARK VINA RESULT: -6.089765303      0.880      1.527
REMARK  16 active torsions:
REMARK  status: ('A' for Active; 'I' for Inactive)
REMARK    1  A    between atoms: C2_2  and  C3_3
REMARK    2  A    between atoms: C3_3  and  C4_4
REMARK    3  A    between atoms: C4_4  and  C5_5
REMARK    4  A    between atoms: C6_8  and  O1_9
REMARK    5  A    between atoms: N2_11  and  C7_12
REMARK    6  A    between atoms: C7_12  and  C8_13
REMARK       I    between atoms: C8_13  and  N3_15
REMARK    7  A    between atoms: C11_20  and  C12_21
REMARK    8  A    between atoms: C12_21  and  C13_22
REMARK    9  A    between atoms: C17_29  and  C18_30
REMARK   10  A    between atoms: C18_30  and  C19_31
REMARK   11  A    between atoms: C23_38  and  C24_39
REMARK   12  A    between atoms: C24_39  and  C25_40
REMARK   13  A    between atoms: C28_45  and  O6_46
REMARK   14  A    between atoms: C29_48  and  C30_49
REMARK   15  A    between atoms: C30_49  and  C31_50
REMARK   16  A    between atoms: C34_55  and  O7_56
ROOT
HETATM    1  C5  UNL     1      29.089  26.644  19.416  1.00  0.00     0.063 C
HETATM    2  N1  UNL     1      28.044  26.567  18.416  1.00  0.00    -0.322 N
ATOM      3  H1  UNL     1      27.133  26.338  18.814  1.00  0.00     0.169 HD
HETATM    4  C6  UNL     1      28.006  26.732  17.053  1.00  0.00     0.230 C
HETATM    5  N2  UNL     1      28.065  27.844  16.183  1.00  0.00    -0.251 N
HETATM    6  C10 UNL     1      27.541  29.136  16.512  1.00  0.00     0.254 C
HETATM    7  O3  UNL     1      28.141  30.150  16.131  1.00  0.00    -0.270 OA
HETATM    8  C11 UNL     1      26.269  29.264  17.313  1.00  0.00     0.178 C
HETATM    9  N4  UNL     1      25.153  28.872  16.445  1.00  0.00    -0.346 N
ATOM     10  H4  UNL     1      24.836  29.579  15.781  1.00  0.00     0.163 HD
HETATM   11  C16 UNL     1      24.466  27.650  16.412  1.00  0.00     0.241 C
HETATM   12  O4  UNL     1      24.676  26.930  15.353  1.00  0.00    -0.271 OA
HETATM   13  C17 UNL     1      23.548  27.063  17.391  1.00  0.00     0.177 C
HETATM   14  N5  UNL     1      23.910  27.343  18.780  1.00  0.00    -0.346 N
ATOM     15  H5  UNL     1      24.147  28.312  18.990  1.00  0.00     0.163 HD
HETATM   16  C22 UNL     1      23.970  26.468  19.837  1.00  0.00     0.241 C
HETATM   17  O5  UNL     1      23.819  26.968  21.009  1.00  0.00    -0.271 OA
HETATM   18  C23 UNL     1      24.192  24.983  19.825  1.00  0.00     0.175 C
HETATM   19  N6  UNL     1      24.925  24.632  21.008  1.00  0.00    -0.359 N
ATOM     20  H6  UNL     1      24.346  24.398  21.814  1.00  0.00     0.162 HD
HETATM   21  C28 UNL     1      26.299  24.559  21.235  1.00  0.00     0.135 C
HETATM   22  C29 UNL     1      27.341  23.714  20.655  1.00  0.00     0.158 C
HETATM   23  N7  UNL     1      28.656  24.367  20.635  1.00  0.00    -0.357 N
ATOM     24  H7  UNL     1      29.436  23.717  20.727  1.00  0.00     0.162 HD
HETATM   25  C34 UNL     1      29.045  25.688  20.516  1.00  0.00     0.159 C
ENDROOT
BRANCH   5  26
HETATM   26  C7  UNL     1      28.639  27.697  14.865  1.00  0.00     0.177 C
BRANCH  26  27
HETATM   27  C8  UNL     1      30.055  27.442  14.756  1.00  0.00     0.257 C
HETATM   28  O2  UNL     1      30.948  28.288  14.811  1.00  0.00    -0.267 OA
HETATM   29  N3  UNL     1      30.482  26.075  14.564  1.00  0.00    -0.361 N
HETATM   30  C9  UNL     1      31.886  25.744  14.446  1.00  0.00     0.149 C
ATOM     31  H3  UNL     1      29.784  25.334  14.511  1.00  0.00     0.162 HD
ENDBRANCH  26  27
ENDBRANCH   5  26
BRANCH   4  32
HETATM   32  O1  UNL     1      27.881  25.611  16.381  1.00  0.00    -0.332 OA
ATOM     33  H1  UNL     1      28.116  25.681  15.463  1.00  0.00     0.221 HD
ENDBRANCH   4  32
BRANCH   8  34
HETATM   34  C12 UNL     1      26.029  30.674  17.736  1.00  0.00     0.038 C
BRANCH  34  35
HETATM   35  C13 UNL     1      27.014  31.139  18.762  1.00  0.00    -0.020 C
HETATM   36  C14 UNL     1      26.375  32.262  19.622  1.00  0.00     0.009 C
HETATM   37  C15 UNL     1      27.421  30.023  19.706  1.00  0.00     0.009 C
ENDBRANCH  34  35
ENDBRANCH   8  34
BRANCH   1  38
HETATM   38  C4  UNL     1      30.391  27.082  18.864  1.00  0.00     0.062 C
BRANCH  38  39
HETATM   39  C3  UNL     1      30.945  28.419  19.141  1.00  0.00     0.006 C
BRANCH  39  40
HETATM   40  C2  UNL     1      30.943  29.453  18.091  1.00  0.00    -0.004 C
HETATM   41  C1  UNL     1      30.924  30.861  18.699  1.00  0.00     0.005 C
ENDBRANCH  39  40
ENDBRANCH  38  39
ENDBRANCH   1  38
BRANCH  25  42
HETATM   42  O7  UNL     1      29.480  26.240  21.636  1.00  0.00    -0.345 OA
ATOM     43  H7  UNL     1      29.087  25.822  22.393  1.00  0.00     0.219 HD
ENDBRANCH  25  42
BRANCH  13  44
HETATM   44  C18 UNL     1      22.105  27.439  17.292  1.00  0.00     0.038 C
BRANCH  44  45
HETATM   45  C19 UNL     1      21.194  26.646  16.446  1.00  0.00    -0.020 C
HETATM   46  C20 UNL     1      20.028  26.086  17.332  1.00  0.00     0.009 C
HETATM   47  C21 UNL     1      20.465  27.537  15.464  1.00  0.00     0.009 C
ENDBRANCH  44  45
ENDBRANCH  13  44
BRANCH  22  48
HETATM   48  C30 UNL     1      27.001  23.046  19.352  1.00  0.00     0.037 C
BRANCH  48  49
HETATM   49  C31 UNL     1      26.656  21.592  19.456  1.00  0.00    -0.020 C
HETATM   50  C32 UNL     1      25.153  21.356  19.421  1.00  0.00     0.009 C
HETATM   51  C33 UNL     1      27.324  20.794  20.505  1.00  0.00     0.009 C
ENDBRANCH  48  49
ENDBRANCH  22  48
BRANCH  21  52
HETATM   52  O6  UNL     1      26.786  25.386  22.130  1.00  0.00    -0.348 OA
ATOM     53  H6  UNL     1      27.430  26.012  21.820  1.00  0.00     0.219 HD
ENDBRANCH  21  52
BRANCH  18  54
HETATM   54  C24 UNL     1      22.865  24.338  19.725  1.00  0.00     0.038 C
BRANCH  54  55
HETATM   55  C25 UNL     1      22.159  23.902  20.942  1.00  0.00    -0.020 C
HETATM   56  C26 UNL     1      21.031  24.811  21.343  1.00  0.00     0.009 C
HETATM   57  C27 UNL     1      21.487  22.527  20.724  1.00  0.00     0.009 C
ENDBRANCH  54  55
ENDBRANCH  18  54
TORSDOF 16
ENDMDL