MODEL 2
REMARK VINA RESULT: -5.551620178     12.356     17.104
REMARK  13 active torsions:
REMARK  status: ('A' for Active; 'I' for Inactive)
REMARK    1  A    between atoms: C2_2  and  C3_3
REMARK    2  A    between atoms: C3_3  and  C4_4
REMARK    3  A    between atoms: C11_15  and  C12_16
REMARK    4  A    between atoms: C12_16  and  C13_17
REMARK    5  A    between atoms: C17_24  and  C18_25
REMARK    6  A    between atoms: C18_25  and  C19_26
REMARK    7  A    between atoms: C23_33  and  C24_34
REMARK    8  A    between atoms: C24_34  and  C25_35
REMARK    9  A    between atoms: C25_35  and  C26_36
REMARK   10  A    between atoms: C26_36  and  C27_37
REMARK   11  A    between atoms: C27_37  and  N5_38
REMARK   12  A    between atoms: C29_46  and  C30_47
REMARK   13  A    between atoms: C30_47  and  C31_48
ROOT
HETATM    1  C4  UNL     1      28.390  27.840  23.367  1.00  0.00     0.126 C
HETATM    2  C5  UNL     1      28.431  29.043  22.501  1.00  0.00     0.092 C
HETATM    3  N1  UNL     1      29.519  29.323  21.660  1.00  0.00    -0.329 N
HETATM    4  C6  UNL     1      29.851  30.800  21.537  1.00  0.00     0.131 C
HETATM    5  C7  UNL     1      29.924  31.131  20.070  1.00  0.00     0.022 C
HETATM    6  C8  UNL     1      30.573  30.133  19.190  1.00  0.00     0.025 C
HETATM    7  C9  UNL     1      29.954  28.775  19.379  1.00  0.00     0.170 C
HETATM    8  C10 UNL     1      30.435  27.725  18.497  1.00  0.00     0.231 C
HETATM    9  O1  UNL     1      31.696  27.517  18.469  1.00  0.00    -0.273 OA
HETATM   10  N2  UNL     1      29.578  26.953  17.694  1.00  0.00    -0.347 N
ATOM     11  H2  UNL     1      30.001  26.262  17.074  1.00  0.00     0.163 HD
HETATM   12  C11 UNL     1      28.113  27.076  17.686  1.00  0.00     0.177 C
HETATM   13  C16 UNL     1      27.543  25.859  17.075  1.00  0.00     0.245 C
HETATM   14  O2  UNL     1      27.299  25.911  15.819  1.00  0.00    -0.271 OA
HETATM   15  N3  UNL     1      27.234  24.637  17.715  1.00  0.00    -0.321 N
ATOM     16  H3  UNL     1      27.519  23.782  17.238  1.00  0.00     0.169 HD
HETATM   17  C17 UNL     1      26.563  24.485  18.960  1.00  0.00     0.099 C
HETATM   18  C22 UNL     1      25.086  24.747  18.840  1.00  0.00     0.268 C
HETATM   19  O3  UNL     1      24.785  25.448  17.803  1.00  0.00    -0.266 OA
HETATM   20  N4  UNL     1      24.064  24.345  19.662  1.00  0.00    -0.342 N
ATOM     21  H4  UNL     1      23.374  23.754  19.199  1.00  0.00     0.163 HD
HETATM   22  C23 UNL     1      23.773  24.597  21.058  1.00  0.00     0.177 C
HETATM   23  C28 UNL     1      24.092  25.963  21.513  1.00  0.00     0.241 C
HETATM   24  O4  UNL     1      23.234  26.865  21.170  1.00  0.00    -0.271 OA
HETATM   25  N6  UNL     1      25.218  26.332  22.259  1.00  0.00    -0.346 N
ATOM     26  H6  UNL     1      25.605  27.260  22.083  1.00  0.00     0.163 HD
HETATM   27  C29 UNL     1      25.882  25.524  23.252  1.00  0.00     0.177 C
HETATM   28  C34 UNL     1      27.374  25.513  23.044  1.00  0.00     0.241 C
HETATM   29  O5  UNL     1      27.967  24.379  23.211  1.00  0.00    -0.271 OA
HETATM   30  N7  UNL     1      28.183  26.584  22.693  1.00  0.00    -0.350 N
ATOM     31  H7  UNL     1      28.709  26.464  21.828  1.00  0.00     0.163 HD
HETATM   32  C35 UNL     1      30.282  28.479  20.864  1.00  0.00     0.236 C
HETATM   33  O6  UNL     1      31.134  27.582  20.983  1.00  0.00    -0.272 OA
ENDROOT
BRANCH  22  34
HETATM   34  C24 UNL     1      22.230  24.510  21.152  1.00  0.00     0.035 C
BRANCH  34  35
HETATM   35  C25 UNL     1      21.597  24.018  19.897  1.00  0.00     0.004 C
BRANCH  35  36
HETATM   36  C26 UNL     1      20.400  24.867  19.495  1.00  0.00     0.027 C
BRANCH  36  37
HETATM   37  C27 UNL     1      20.931  26.030  18.648  1.00  0.00     0.229 C
BRANCH  37  38
HETATM   38  N5  UNL     1      20.735  27.245  19.379  1.00  0.00    -0.079 N
ATOM     39  H53 UNL     1      19.766  27.561  19.363  1.00  0.00     0.274 HD
ATOM     40  H52 UNL     1      20.823  27.115  20.386  1.00  0.00     0.274 HD
ATOM     41  H51 UNL     1      21.383  27.946  19.016  1.00  0.00     0.274 HD
ENDBRANCH  37  38
ENDBRANCH  36  37
ENDBRANCH  35  36
ENDBRANCH  34  35
ENDBRANCH  22  34
BRANCH  17  42
HETATM   42  C18 UNL     1      26.911  23.376  19.829  1.00  0.00     0.012 C
BRANCH  42  43
HETATM   43  C19 UNL     1      27.046  21.985  19.451  1.00  0.00     0.002 C
HETATM   44  C20 UNL     1      25.769  21.217  19.242  1.00  0.00     0.013 C
HETATM   45  C21 UNL     1      28.060  21.170  20.229  1.00  0.00     0.013 C
ENDBRANCH  42  43
ENDBRANCH  17  42
BRANCH  27  46
HETATM   46  C30 UNL     1      25.482  25.846  24.647  1.00  0.00     0.038 C
BRANCH  46  47
HETATM   47  C31 UNL     1      26.581  25.483  25.606  1.00  0.00    -0.020 C
HETATM   48  C32 UNL     1      26.365  24.197  26.350  1.00  0.00     0.009 C
HETATM   49  C33 UNL     1      26.890  26.623  26.565  1.00  0.00     0.009 C
ENDBRANCH  46  47
ENDBRANCH  27  46
BRANCH  12  50
HETATM   50  C12 UNL     1      27.841  28.263  16.776  1.00  0.00     0.038 C
BRANCH  50  51
HETATM   51  C13 UNL     1      26.840  29.229  17.300  1.00  0.00    -0.020 C
HETATM   52  C14 UNL     1      27.309  30.661  17.177  1.00  0.00     0.009 C
HETATM   53  C15 UNL     1      25.588  29.132  16.416  1.00  0.00     0.009 C
ENDBRANCH  50  51
ENDBRANCH  12  50
BRANCH   1  54
HETATM   54  C3  UNL     1      29.581  27.764  24.265  1.00  0.00     0.056 C
BRANCH  54  55
HETATM   55  C2  UNL     1      29.604  28.879  25.280  1.00  0.00    -0.035 C
HETATM   56  C1  UNL     1      30.680  29.621  25.420  1.00  0.00     0.007 C
ENDBRANCH  54  55
ENDBRANCH   1  54
TORSDOF 13
ENDMDL