MODEL 5
REMARK VINA RESULT: -6.556243332      2.535      9.189
REMARK  13 active torsions:
REMARK  status: ('A' for Active; 'I' for Inactive)
REMARK    1  A    between atoms: C2_2  and  C3_3
REMARK    2  A    between atoms: C3_3  and  C4_4
REMARK    3  A    between atoms: C3_3  and  N1_6
REMARK    4  A    between atoms: C7_9  and  C8_10
REMARK    5  A    between atoms: C8_10  and  C9_11
REMARK    6  A    between atoms: C15_21  and  O2_22
REMARK    7  A    between atoms: C16_24  and  C17_25
REMARK    8  A    between atoms: C17_25  and  C18_26
REMARK    9  A    between atoms: C20_33  and  C21_34
REMARK   10  A    between atoms: C21_34  and  C22_35
REMARK   11  A    between atoms: C26_42  and  C27_43
REMARK   12  A    between atoms: C27_43  and  C28_44
REMARK   13  A    between atoms: C32_51  and  C33_52
ROOT
HETATM    1  N1  UNL     1      19.181  24.250  19.043  1.00  0.00    -0.329 N
HETATM    2  C6  UNL     1      18.617  25.019  18.007  1.00  0.00     0.244 C
HETATM    3  O1  UNL     1      19.212  26.167  17.916  1.00  0.00    -0.271 OA
HETATM    4  C7  UNL     1      17.539  24.793  17.054  1.00  0.00     0.181 C
HETATM    5  N3  UNL     1      17.468  23.454  16.555  1.00  0.00    -0.359 N
ATOM      6  H3  UNL     1      18.036  22.805  17.100  1.00  0.00     0.162 HD
HETATM    7  C15 UNL     1      16.812  22.829  15.509  1.00  0.00     0.136 C
HETATM    8  C16 UNL     1      15.467  22.940  14.982  1.00  0.00     0.167 C
HETATM    9  N5  UNL     1      14.383  23.253  15.850  1.00  0.00    -0.347 N
ATOM     10  H5  UNL     1      13.638  23.763  15.375  1.00  0.00     0.163 HD
HETATM   11  C19 UNL     1      14.103  23.032  17.177  1.00  0.00     0.241 C
HETATM   12  O4  UNL     1      13.930  24.085  17.896  1.00  0.00    -0.271 OA
HETATM   13  C20 UNL     1      13.962  21.741  17.932  1.00  0.00     0.177 C
HETATM   14  N6  UNL     1      15.096  20.906  17.862  1.00  0.00    -0.346 N
ATOM     15  H6  UNL     1      15.118  20.296  17.044  1.00  0.00     0.163 HD
HETATM   16  C25 UNL     1      16.195  20.766  18.714  1.00  0.00     0.241 C
HETATM   17  O5  UNL     1      17.235  20.225  18.163  1.00  0.00    -0.271 OA
HETATM   18  C26 UNL     1      16.348  21.139  20.134  1.00  0.00     0.177 C
HETATM   19  N7  UNL     1      16.224  22.528  20.396  1.00  0.00    -0.346 N
ATOM     20  H7  UNL     1      15.292  22.812  20.697  1.00  0.00     0.163 HD
HETATM   21  C31 UNL     1      17.145  23.581  20.319  1.00  0.00     0.241 C
HETATM   22  O6  UNL     1      16.654  24.778  20.416  1.00  0.00    -0.271 OA
HETATM   23  C32 UNL     1      18.588  23.566  20.152  1.00  0.00     0.183 C
ENDROOT
BRANCH   4  24
HETATM   24  C8  UNL     1      17.435  25.787  15.927  1.00  0.00     0.092 C
BRANCH  24  25
HETATM   25  C9  UNL     1      18.625  25.939  15.080  1.00  0.00     0.017 A
HETATM   26  N2  UNL     1      19.853  26.381  15.473  1.00  0.00    -0.363 N
HETATM   27  C10 UNL     1      20.713  26.258  14.475  1.00  0.00     0.006 A
ATOM     28  H2  UNL     1      20.076  26.750  16.397  1.00  0.00     0.165 HD
HETATM   29  C11 UNL     1      22.155  26.615  14.511  1.00  0.00     0.068 C
HETATM   30  C12 UNL     1      20.066  25.725  13.375  1.00  0.00     0.033 A
HETATM   31  C13 UNL     1      18.759  25.538  13.782  1.00  0.00    -0.037 A
HETATM   32  C14 UNL     1      17.715  25.048  12.808  1.00  0.00     0.050 C
ENDBRANCH  24  25
ENDBRANCH   4  24
BRANCH   1  33
HETATM   33  C3  UNL     1      20.663  24.126  19.011  1.00  0.00     0.110 C
BRANCH  33  34
HETATM   34  C2  UNL     1      21.202  22.958  19.667  1.00  0.00    -0.012 C
HETATM   35  C1  UNL     1      22.364  22.750  20.227  1.00  0.00     0.009 C
ENDBRANCH  33  34
BRANCH  33  36
HETATM   36  C4  UNL     1      21.260  25.356  19.765  1.00  0.00     0.025 C
HETATM   37  C5  UNL     1      22.299  25.997  18.860  1.00  0.00     0.007 C
ENDBRANCH  33  36
ENDBRANCH   1  33
BRANCH   7  38
HETATM   38  O2  UNL     1      17.558  21.965  14.874  1.00  0.00    -0.348 OA
ATOM     39  H2  UNL     1      17.441  21.988  13.932  1.00  0.00     0.219 HD
ENDBRANCH   7  38
BRANCH  23  40
HETATM   40  C33 UNL     1      19.115  24.162  21.488  1.00  0.00     0.009 C
HETATM   41  C34 UNL     1      18.011  24.673  22.359  1.00  0.00     0.012 C
HETATM   42  C35 UNL     1      19.755  23.042  22.288  1.00  0.00     0.012 C
ENDBRANCH  23  40
BRANCH   8  43
HETATM   43  C17 UNL     1      15.004  21.819  14.078  1.00  0.00     0.133 C
BRANCH  43  44
HETATM   44  C18 UNL     1      14.066  22.245  13.020  1.00  0.00     0.233 C
HETATM   45  N4  UNL     1      14.525  22.515  11.688  1.00  0.00    -0.062 NA
HETATM   46  O3  UNL     1      12.838  22.389  13.228  1.00  0.00    -0.277 OA
ENDBRANCH  43  44
ENDBRANCH   8  43
BRANCH  18  47
HETATM   47  C27 UNL     1      15.358  20.357  20.964  1.00  0.00     0.038 C
BRANCH  47  48
HETATM   48  C28 UNL     1      14.951  19.030  20.408  1.00  0.00    -0.020 C
HETATM   49  C29 UNL     1      15.486  17.909  21.325  1.00  0.00     0.009 C
HETATM   50  C30 UNL     1      13.419  18.873  20.501  1.00  0.00     0.009 C
ENDBRANCH  47  48
ENDBRANCH  18  47
BRANCH  13  51
HETATM   51  C21 UNL     1      12.644  21.093  17.595  1.00  0.00     0.038 C
BRANCH  51  52
HETATM   52  C22 UNL     1      12.715  19.791  16.934  1.00  0.00    -0.020 C
HETATM   53  C23 UNL     1      12.580  19.739  15.442  1.00  0.00     0.009 C
HETATM   54  C24 UNL     1      11.612  18.872  17.506  1.00  0.00     0.009 C
ENDBRANCH  51  52
ENDBRANCH  13  51
TORSDOF 13
ENDMDL