MODEL 2
REMARK VINA RESULT: -5.067810207      1.766      2.135
REMARK  13 active torsions:
REMARK  status: ('A' for Active; 'I' for Inactive)
REMARK    1  A    between atoms: C2_2  and  C3_3
REMARK    2  A    between atoms: C3_3  and  C4_4
REMARK    3  A    between atoms: C4_4  and  C5_5
REMARK    4  A    between atoms: C7_10  and  C8_11
REMARK    5  A    between atoms: C8_11  and  C9_12
REMARK    6  A    between atoms: C13_19  and  C14_20
REMARK    7  A    between atoms: C17_25  and  O3_26
REMARK    8  A    between atoms: C18_28  and  C19_29
REMARK    9  A    between atoms: C19_29  and  C20_30
REMARK   10  A    between atoms: C24_37  and  C25_38
REMARK   11  A    between atoms: C25_38  and  C26_39
REMARK   12  A    between atoms: N6_46  and  C30_47
REMARK   13  A    between atoms: C30_47  and  C32_49
REMARK       I    between atoms: C32_49  and  N7_51
ROOT
HETATM    1  C5  UNL     1      26.424  27.137  19.105  1.00  0.00     0.177 C
HETATM    2  N1  UNL     1      26.156  26.318  17.949  1.00  0.00    -0.346 N
ATOM      3  H1  UNL     1      26.246  25.318  18.127  1.00  0.00     0.163 HD
HETATM    4  C6  UNL     1      25.802  26.618  16.656  1.00  0.00     0.241 C
HETATM    5  O1  UNL     1      26.341  25.856  15.755  1.00  0.00    -0.271 OA
HETATM    6  C7  UNL     1      24.908  27.653  16.059  1.00  0.00     0.177 C
HETATM    7  N2  UNL     1      24.832  28.882  16.784  1.00  0.00    -0.346 N
ATOM      8  H2  UNL     1      24.142  28.935  17.532  1.00  0.00     0.163 HD
HETATM    9  C12 UNL     1      25.640  30.056  16.554  1.00  0.00     0.241 C
HETATM   10  O2  UNL     1      25.092  31.193  16.401  1.00  0.00    -0.271 OA
HETATM   11  C13 UNL     1      27.123  30.041  16.482  1.00  0.00     0.179 C
HETATM   12  N3  UNL     1      27.603  29.715  15.156  1.00  0.00    -0.359 N
ATOM     13  H3  UNL     1      27.176  30.230  14.385  1.00  0.00     0.162 HD
HETATM   14  C17 UNL     1      28.587  28.774  14.800  1.00  0.00     0.135 C
HETATM   15  C18 UNL     1      29.955  28.641  15.287  1.00  0.00     0.159 C
HETATM   16  N4  UNL     1      30.063  28.389  16.726  1.00  0.00    -0.347 N
ATOM     17  H4  UNL     1      29.789  29.153  17.343  1.00  0.00     0.163 HD
HETATM   18  C23 UNL     1      30.500  27.216  17.342  1.00  0.00     0.241 C
HETATM   19  O4  UNL     1      31.113  27.309  18.433  1.00  0.00    -0.271 OA
HETATM   20  C24 UNL     1      30.306  25.815  16.810  1.00  0.00     0.178 C
HETATM   21  N5  UNL     1      29.290  25.068  17.452  1.00  0.00    -0.329 N
ATOM     22  H5  UNL     1      28.740  24.524  16.787  1.00  0.00     0.165 HD
HETATM   23  C29 UNL     1      28.853  24.888  18.756  1.00  0.00     0.326 C
HETATM   24  O5  UNL     1      28.659  23.654  19.107  1.00  0.00    -0.247 OA
HETATM   25  N6  UNL     1      28.569  25.803  19.805  1.00  0.00    -0.255 N
HETATM   26  C34 UNL     1      27.772  26.980  19.690  1.00  0.00     0.251 C
HETATM   27  O7  UNL     1      28.300  28.053  20.160  1.00  0.00    -0.271 OA
ENDROOT
BRANCH  25  28
HETATM   28  C30 UNL     1      29.097  25.492  21.127  1.00  0.00     0.185 C
HETATM   29  C31 UNL     1      28.425  26.055  22.299  1.00  0.00     0.043 C
BRANCH  28  30
HETATM   30  C32 UNL     1      30.558  25.910  21.261  1.00  0.00     0.240 C
HETATM   31  O6  UNL     1      31.485  25.146  21.091  1.00  0.00    -0.271 OA
HETATM   32  N7  UNL     1      30.796  27.256  21.600  1.00  0.00    -0.364 N
HETATM   33  C33 UNL     1      32.148  27.778  21.759  1.00  0.00     0.149 C
ATOM     34  H7  UNL     1      30.002  27.882  21.738  1.00  0.00     0.161 HD
ENDBRANCH  28  30
ENDBRANCH  25  28
BRANCH   1  35
HETATM   35  C4  UNL     1      25.317  26.793  20.092  1.00  0.00     0.035 C
BRANCH  35  36
HETATM   36  C3  UNL     1      25.008  25.345  20.199  1.00  0.00     0.002 C
BRANCH  36  37
HETATM   37  C2  UNL     1      24.111  25.197  21.440  1.00  0.00    -0.004 C
HETATM   38  C1  UNL     1      22.855  24.444  21.111  1.00  0.00     0.005 C
ENDBRANCH  36  37
ENDBRANCH  35  36
ENDBRANCH   1  35
BRANCH  20  39
HETATM   39  C25 UNL     1      31.662  25.172  16.670  1.00  0.00     0.038 C
BRANCH  39  40
HETATM   40  C26 UNL     1      31.939  24.358  15.474  1.00  0.00    -0.020 C
HETATM   41  C27 UNL     1      31.139  24.573  14.250  1.00  0.00     0.009 C
HETATM   42  C28 UNL     1      31.986  22.866  15.838  1.00  0.00     0.009 C
ENDBRANCH  39  40
ENDBRANCH  20  39
BRANCH   6  43
HETATM   43  C8  UNL     1      23.545  27.058  15.790  1.00  0.00     0.038 C
BRANCH  43  44
HETATM   44  C9  UNL     1      22.383  27.581  16.508  1.00  0.00    -0.020 C
HETATM   45  C10 UNL     1      21.073  27.658  15.811  1.00  0.00     0.009 C
HETATM   46  C11 UNL     1      22.263  26.795  17.823  1.00  0.00     0.009 C
ENDBRANCH  43  44
ENDBRANCH   6  43
BRANCH  15  47
HETATM   47  C19 UNL     1      30.899  29.768  14.999  1.00  0.00     0.037 C
BRANCH  47  48
HETATM   48  C20 UNL     1      31.937  29.589  13.968  1.00  0.00    -0.020 C
HETATM   49  C21 UNL     1      31.258  29.965  12.607  1.00  0.00     0.009 C
HETATM   50  C22 UNL     1      32.219  28.092  13.772  1.00  0.00     0.009 C
ENDBRANCH  47  48
ENDBRANCH  15  47
BRANCH  14  51
HETATM   51  O3  UNL     1      28.205  27.906  13.907  1.00  0.00    -0.348 OA
ATOM     52  H3  UNL     1      28.896  27.335  13.593  1.00  0.00     0.219 HD
ENDBRANCH  14  51
BRANCH  11  53
HETATM   53  C14 UNL     1      27.626  31.405  16.928  1.00  0.00     0.009 C
HETATM   54  C15 UNL     1      28.576  31.392  18.067  1.00  0.00     0.012 C
HETATM   55  C16 UNL     1      28.162  32.086  15.684  1.00  0.00     0.012 C
ENDBRANCH  11  53
TORSDOF 13
ENDMDL