MODEL 5
REMARK VINA RESULT: -5.459813961      2.990      5.378
REMARK  12 active torsions:
REMARK  status: ('A' for Active; 'I' for Inactive)
REMARK    1  A    between atoms: C2_2  and  C3_3
REMARK    2  A    between atoms: C3_3  and  C4_4
REMARK    3  A    between atoms: C4_4  and  C5_5
REMARK    4  A    between atoms: C5_5  and  N1_6
REMARK       I    between atoms: N1_6  and  C6_8
REMARK    5  A    between atoms: C6_8  and  C7_10
REMARK    6  A    between atoms: C7_10  and  C8_11
REMARK    7  A    between atoms: C10_16  and  C11_17
REMARK    8  A    between atoms: C11_17  and  C12_18
REMARK    9  A    between atoms: C16_25  and  C17_26
REMARK   10  A    between atoms: C17_26  and  C18_27
REMARK   11  A    between atoms: C26_41  and  C27_42
REMARK   12  A    between atoms: C29_44  and  C30_45
ROOT
HETATM    1  C8  UNL     1      27.816  26.682  20.546  1.00  0.00     0.185 C
HETATM    2  N2  UNL     1      28.778  25.915  21.354  1.00  0.00    -0.346 N
ATOM      3  H2  UNL     1      28.490  25.614  22.285  1.00  0.00     0.163 HD
HETATM    4  C9  UNL     1      30.077  25.571  20.916  1.00  0.00     0.241 C
HETATM    5  O2  UNL     1      31.068  25.834  21.692  1.00  0.00    -0.271 OA
HETATM    6  C10 UNL     1      30.423  24.926  19.629  1.00  0.00     0.177 C
HETATM    7  N3  UNL     1      31.625  24.145  19.827  1.00  0.00    -0.346 N
ATOM      8  H3  UNL     1      32.503  24.542  19.494  1.00  0.00     0.163 HD
HETATM    9  C15 UNL     1      31.679  22.877  20.445  1.00  0.00     0.241 C
HETATM   10  O3  UNL     1      32.692  22.584  21.122  1.00  0.00    -0.271 OA
HETATM   11  C16 UNL     1      30.611  21.864  20.349  1.00  0.00     0.177 C
HETATM   12  N4  UNL     1      29.830  21.889  21.582  1.00  0.00    -0.346 N
ATOM     13  H4  UNL     1      30.028  22.669  22.208  1.00  0.00     0.163 HD
HETATM   14  C21 UNL     1      28.858  21.008  22.023  1.00  0.00     0.240 C
HETATM   15  O4  UNL     1      29.022  20.485  23.192  1.00  0.00    -0.271 OA
HETATM   16  C22 UNL     1      27.619  20.535  21.378  1.00  0.00     0.172 C
HETATM   17  C23 UNL     1      27.623  19.005  21.500  1.00  0.00     0.042 C
HETATM   18  N5  UNL     1      27.418  20.861  20.019  1.00  0.00    -0.348 N
ATOM     19  H5  UNL     1      28.142  20.589  19.353  1.00  0.00     0.163 HD
HETATM   20  C24 UNL     1      26.260  21.553  19.506  1.00  0.00     0.218 C
HETATM   21  O5  UNL     1      25.828  21.259  18.333  1.00  0.00    -0.274 OA
HETATM   22  C25 UNL     1      25.562  22.571  20.268  1.00  0.00     0.109 C
HETATM   23  C26 UNL     1      25.586  23.972  19.744  1.00  0.00     0.017 C
HETATM   24  C29 UNL     1      24.700  24.896  20.497  1.00  0.00     0.093 C
HETATM   25  N6  UNL     1      25.260  26.185  20.835  1.00  0.00    -0.354 N
ATOM     26  H6  UNL     1      24.583  26.945  20.759  1.00  0.00     0.162 HD
HETATM   27  C36 UNL     1      26.497  26.612  21.235  1.00  0.00     0.241 C
HETATM   28  O6  UNL     1      26.643  27.068  22.442  1.00  0.00    -0.271 OA
ENDROOT
BRANCH   1  29
HETATM   29  C7  UNL     1      28.273  28.158  20.609  1.00  0.00     0.137 C
BRANCH  29  30
HETATM   30  C6  UNL     1      27.792  28.967  19.506  1.00  0.00     0.220 C
HETATM   31  N1  UNL     1      27.655  28.371  18.227  1.00  0.00    -0.361 N
ATOM     32  H1  UNL     1      27.899  27.389  18.101  1.00  0.00     0.162 HD
HETATM   33  O1  UNL     1      27.498  30.169  19.650  1.00  0.00    -0.274 OA
BRANCH  31  34
HETATM   34  C5  UNL     1      27.175  29.139  17.096  1.00  0.00     0.122 C
BRANCH  34  35
HETATM   35  C4  UNL     1      25.742  28.806  16.768  1.00  0.00     0.020 C
BRANCH  35  36
HETATM   36  C3  UNL     1      25.653  27.853  15.599  1.00  0.00     0.001 C
BRANCH  36  37
HETATM   37  C2  UNL     1      24.376  27.040  15.688  1.00  0.00    -0.004 C
HETATM   38  C1  UNL     1      23.672  27.250  17.005  1.00  0.00     0.005 C
ENDBRANCH  36  37
ENDBRANCH  35  36
ENDBRANCH  34  35
ENDBRANCH  31  34
ENDBRANCH  29  30
ENDBRANCH   1  29
BRANCH   6  39
HETATM   39  C11 UNL     1      30.721  25.973  18.584  1.00  0.00     0.038 C
BRANCH  39  40
HETATM   40  C12 UNL     1      30.929  25.343  17.219  1.00  0.00    -0.020 C
HETATM   41  C13 UNL     1      29.818  25.804  16.286  1.00  0.00     0.009 C
HETATM   42  C14 UNL     1      32.223  25.826  16.601  1.00  0.00     0.009 C
ENDBRANCH  39  40
ENDBRANCH   6  39
BRANCH  24  43
HETATM   43  C30 UNL     1      23.301  25.015  19.957  1.00  0.00     0.012 C
HETATM   44  C31 UNL     1      22.341  23.967  20.491  1.00  0.00     0.007 C
HETATM   45  C32 UNL     1      20.956  24.526  20.223  1.00  0.00     0.001 C
HETATM   46  C33 UNL     1      21.157  25.954  19.878  1.00  0.00     0.005 C
HETATM   47  C34 UNL     1      22.562  26.256  20.391  1.00  0.00    -0.013 C
HETATM   48  C35 UNL     1      22.446  26.401  21.882  1.00  0.00     0.010 C
ENDBRANCH  24  43
BRANCH  23  49
HETATM   49  C27 UNL     1      25.490  24.010  18.250  1.00  0.00     0.002 C
HETATM   50  C28 UNL     1      26.534  24.796  17.544  1.00  0.00     0.005 C
ENDBRANCH  23  49
BRANCH  11  51
HETATM   51  C17 UNL     1      31.157  20.529  20.041  1.00  0.00     0.038 C
BRANCH  51  52
HETATM   52  C18 UNL     1      30.800  19.819  18.822  1.00  0.00    -0.020 C
HETATM   53  C19 UNL     1      30.344  18.391  18.913  1.00  0.00     0.009 C
HETATM   54  C20 UNL     1      31.832  19.961  17.701  1.00  0.00     0.009 C
ENDBRANCH  51  52
ENDBRANCH  11  51
TORSDOF 12
ENDMDL