MODEL 2
REMARK VINA RESULT: -8.690127470      1.144      1.934
REMARK  14 active torsions:
REMARK  status: ('A' for Active; 'I' for Inactive)
REMARK    1  A    between atoms: N2_5  and  C4_7
REMARK    2  A    between atoms: C4_7  and  C5_8
REMARK    3  A    between atoms: C5_8  and  C6_9
REMARK    4  A    between atoms: C6_9  and  C7_10
REMARK    5  A    between atoms: C9_15  and  C10_16
REMARK    6  A    between atoms: C10_16  and  C11_17
REMARK    7  A    between atoms: C16_24  and  C17_25
REMARK    8  A    between atoms: C17_25  and  C18_26
REMARK    9  A    between atoms: C21_31  and  O3_32
REMARK   10  A    between atoms: C22_34  and  C23_35
REMARK   11  A    between atoms: C23_35  and  C24_36
REMARK   12  A    between atoms: C32_48  and  O4_49
REMARK   13  A    between atoms: C33_51  and  C34_52
REMARK   14  A    between atoms: C34_52  and  C35_53
ROOT
HETATM    1  C1  UNL     1      14.686  15.902  11.842  1.00  0.00     0.105 C
HETATM    2  C2  UNL     1      13.705  15.782  11.127  1.00  0.00    -0.116 C
HETATM    3  C3  UNL     1      12.540  15.660  10.297  1.00  0.00     0.154 C
HETATM    4  N1  UNL     1      12.712  15.097   9.003  1.00  0.00    -0.074 NA
HETATM    5  N2  UNL     1      11.359  16.046  10.698  1.00  0.00    -0.372 N
ATOM      6  H2  UNL     1      10.538  15.954  10.100  1.00  0.00     0.161 HD
ENDROOT
BRANCH   5   7
HETATM    7  C4  UNL     1      11.264  16.601  12.011  1.00  0.00     0.121 C
BRANCH   7   8
HETATM    8  C5  UNL     1      10.833  18.072  12.014  1.00  0.00     0.023 C
BRANCH   8   9
HETATM    9  C6  UNL     1      12.077  18.845  12.389  1.00  0.00     0.048 C
BRANCH   9  10
HETATM   10  C7  UNL     1      12.223  19.067  13.879  1.00  0.00     0.180 C
HETATM   11  N3  UNL     1      11.730  17.879  14.582  1.00  0.00    -0.335 N
HETATM   12  C8  UNL     1      10.823  17.908  15.676  1.00  0.00     0.269 C
ATOM     13  H3  UNL     1      12.061  16.968  14.264  1.00  0.00     0.164 HD
HETATM   14  O1  UNL     1       9.967  16.951  15.595  1.00  0.00    -0.266 OA
HETATM   15  C9  UNL     1      10.817  18.873  16.777  1.00  0.00     0.102 C
HETATM   16  N4  UNL     1      11.118  18.292  18.092  1.00  0.00    -0.313 N
HETATM   17  C14 UNL     1      10.685  16.932  18.417  1.00  0.00     0.160 C
HETATM   18  C15 UNL     1      11.829  18.988  19.112  1.00  0.00     0.270 C
HETATM   19  O2  UNL     1      11.216  18.928  20.252  1.00  0.00    -0.266 OA
HETATM   20  C16 UNL     1      13.107  19.725  19.022  1.00  0.00     0.080 C
HETATM   21  N5  UNL     1      12.945  21.153  18.930  1.00  0.00    -0.334 N
HETATM   22  C21 UNL     1      13.689  22.181  18.395  1.00  0.00     0.164 C
ATOM     23  H5  UNL     1      12.079  21.478  19.360  1.00  0.00     0.168 HD
HETATM   24  C22 UNL     1      14.074  22.516  17.000  1.00  0.00     0.066 C
HETATM   25  N7  UNL     1      13.173  22.002  16.027  1.00  0.00    -0.339 N
HETATM   26  C32 UNL     1      13.342  21.548  14.724  1.00  0.00     0.139 C
ATOM     27  H7  UNL     1      12.207  21.956  16.351  1.00  0.00     0.167 HD
HETATM   28  C33 UNL     1      14.210  20.449  14.230  1.00  0.00     0.153 C
HETATM   29  N8  UNL     1      13.604  19.175  14.179  1.00  0.00    -0.390 N
ATOM     30  H8  UNL     1      14.157  18.337  14.356  1.00  0.00     0.156 HD
BRANCH  15  31
HETATM   31  C10 UNL     1       9.814  19.930  16.753  1.00  0.00     0.012 C
BRANCH  31  32
HETATM   32  C11 UNL     1       9.723  20.996  15.767  1.00  0.00     0.002 C
HETATM   33  C12 UNL     1       8.933  22.228  16.156  1.00  0.00     0.013 C
HETATM   34  C13 UNL     1       9.383  20.570  14.360  1.00  0.00     0.013 C
ENDBRANCH  31  32
ENDBRANCH  15  31
BRANCH  20  35
HETATM   35  C17 UNL     1      14.187  19.108  18.225  1.00  0.00     0.067 C
BRANCH  35  36
HETATM   36  C18 UNL     1      15.314  18.654  19.146  1.00  0.00    -0.017 C
HETATM   37  C19 UNL     1      15.178  19.300  20.520  1.00  0.00     0.010 C
HETATM   38  C20 UNL     1      15.101  17.152  19.394  1.00  0.00     0.010 C
ENDBRANCH  35  36
ENDBRANCH  20  35
BRANCH  22  39
HETATM   39  O3  UNL     1      14.171  23.063  19.229  1.00  0.00    -0.345 OA
ATOM     40  H3  UNL     1      14.123  23.976  18.969  1.00  0.00     0.219 HD
ENDBRANCH  22  39
BRANCH  24  41
HETATM   41  C23 UNL     1      15.533  22.365  16.697  1.00  0.00     0.102 C
BRANCH  41  42
HETATM   42  C24 UNL     1      16.354  23.315  17.463  1.00  0.00    -0.025 A
HETATM   43  C25 UNL     1      16.325  24.691  17.368  1.00  0.00     0.096 A
HETATM   44  N6  UNL     1      17.212  25.212  18.243  1.00  0.00    -0.365 N
HETATM   45  C26 UNL     1      17.824  24.217  18.912  1.00  0.00     0.042 A
ATOM     46  H6  UNL     1      17.390  26.207  18.377  1.00  0.00     0.165 HD
HETATM   47  C27 UNL     1      18.790  24.231  19.893  1.00  0.00     0.030 A
HETATM   48  C31 UNL     1      17.292  23.028  18.429  1.00  0.00    -0.002 A
HETATM   49  C28 UNL     1      19.240  23.037  20.408  1.00  0.00     0.002 A
HETATM   50  C29 UNL     1      18.713  21.859  19.929  1.00  0.00     0.001 A
HETATM   51  C30 UNL     1      17.756  21.822  18.960  1.00  0.00     0.014 A
ENDBRANCH  41  42
ENDBRANCH  24  41
BRANCH  26  52
HETATM   52  O4  UNL     1      12.687  22.109  13.747  1.00  0.00    -0.348 OA
ATOM     53  H4  UNL     1      12.765  23.043  13.596  1.00  0.00     0.219 HD
ENDBRANCH  26  52
BRANCH  28  54
HETATM   54  C34 UNL     1      14.830  20.899  12.897  1.00  0.00     0.037 C
BRANCH  54  55
HETATM   55  C35 UNL     1      14.947  22.375  12.777  1.00  0.00    -0.020 C
HETATM   56  C36 UNL     1      15.375  22.766  11.384  1.00  0.00     0.009 C
HETATM   57  C37 UNL     1      16.100  22.788  13.706  1.00  0.00     0.009 C
ENDBRANCH  54  55
ENDBRANCH  28  54
ENDBRANCH   9  10
ENDBRANCH   8   9
ENDBRANCH   7   8
ENDBRANCH   5   7
TORSDOF 14
ENDMDL