MODEL 2
REMARK VINA RESULT: -6.406937981      1.085      1.756
REMARK  15 active torsions:
REMARK  status: ('A' for Active; 'I' for Inactive)
REMARK    1  A    between atoms: N1_7  and  C7_8
REMARK    2  A    between atoms: C7_8  and  C8_9
REMARK    3  A    between atoms: C8_9  and  C9_10
REMARK    4  A    between atoms: C9_10  and  C10_11
REMARK    5  A    between atoms: C10_11  and  C11_12
REMARK    6  A    between atoms: C11_12  and  C12_13
REMARK    7  A    between atoms: C12_13  and  C13_14
REMARK    8  A    between atoms: C15_19  and  C16_20
REMARK    9  A    between atoms: C16_20  and  C17_21
REMARK   10  A    between atoms: C17_21  and  C18_22
REMARK   11  A    between atoms: C18_22  and  C19_23
REMARK   12  A    between atoms: C20_27  and  O2_28
REMARK   13  A    between atoms: C21_32  and  O3_33
REMARK   14  A    between atoms: C22_35  and  C23_36
REMARK   15  A    between atoms: C30_49  and  C31_50
ROOT
HETATM    1  C13 UNL     1      13.964  22.335  15.440  1.00  0.00     0.176 C
HETATM    2  N2  UNL     1      14.851  21.408  14.793  1.00  0.00    -0.346 N
ATOM      3  H2  UNL     1      15.829  21.450  15.077  1.00  0.00     0.163 HD
HETATM    4  C14 UNL     1      14.530  20.448  13.814  1.00  0.00     0.241 C
HETATM    5  O1  UNL     1      15.220  20.467  12.719  1.00  0.00    -0.271 OA
HETATM    6  C15 UNL     1      13.476  19.405  13.904  1.00  0.00     0.177 C
HETATM    7  N3  UNL     1      12.213  19.816  13.308  1.00  0.00    -0.343 N
ATOM      8  H3  UNL     1      12.246  19.964  12.298  1.00  0.00     0.164 HD
HETATM    9  C20 UNL     1      10.976  20.040  13.883  1.00  0.00     0.219 C
HETATM   10  N4  UNL     1      10.095  19.233  14.632  1.00  0.00    -0.305 N
ATOM     11  H4  UNL     1       9.310  19.765  15.006  1.00  0.00     0.171 HD
HETATM   12  C21 UNL     1      10.036  17.901  14.983  1.00  0.00     0.142 C
HETATM   13  C22 UNL     1      10.920  16.961  15.668  1.00  0.00     0.162 C
HETATM   14  N5  UNL     1      11.074  17.052  17.068  1.00  0.00    -0.347 N
ATOM     15  H5  UNL     1      11.300  16.162  17.512  1.00  0.00     0.163 HD
HETATM   16  C26 UNL     1      10.978  18.125  17.975  1.00  0.00     0.240 C
HETATM   17  O4  UNL     1      10.210  18.081  18.984  1.00  0.00    -0.271 OA
HETATM   18  C27 UNL     1      11.706  19.427  17.935  1.00  0.00     0.172 C
HETATM   19  C28 UNL     1      10.629  20.505  18.142  1.00  0.00     0.042 C
HETATM   20  N6  UNL     1      12.707  19.515  18.974  1.00  0.00    -0.346 N
ATOM     21  H6  UNL     1      12.350  19.642  19.921  1.00  0.00     0.163 HD
HETATM   22  C29 UNL     1      14.112  19.449  18.854  1.00  0.00     0.241 C
HETATM   23  O5  UNL     1      14.779  18.700  19.626  1.00  0.00    -0.271 OA
HETATM   24  C30 UNL     1      14.944  20.188  17.882  1.00  0.00     0.180 C
HETATM   25  N7  UNL     1      14.697  21.600  17.820  1.00  0.00    -0.346 N
ATOM     26  H7  UNL     1      15.110  22.135  18.584  1.00  0.00     0.163 HD
HETATM   27  C34 UNL     1      13.994  22.363  16.903  1.00  0.00     0.241 C
HETATM   28  O6  UNL     1      13.222  23.266  17.405  1.00  0.00    -0.271 OA
ENDROOT
BRANCH   1  29
HETATM   29  C12 UNL     1      14.195  23.757  14.885  1.00  0.00     0.035 C
BRANCH  29  30
HETATM   30  C11 UNL     1      15.638  23.907  14.459  1.00  0.00     0.002 C
BRANCH  30  31
HETATM   31  C10 UNL     1      16.422  24.343  15.691  1.00  0.00     0.000 C
BRANCH  31  32
HETATM   32  C9  UNL     1      17.818  23.769  15.530  1.00  0.00     0.002 C
BRANCH  32  33
HETATM   33  C8  UNL     1      18.703  24.134  16.688  1.00  0.00     0.020 C
BRANCH  33  34
HETATM   34  C7  UNL     1      18.524  25.618  16.955  1.00  0.00     0.128 C
BRANCH  34  35
HETATM   35  N1  UNL     1      19.826  26.223  17.080  1.00  0.00    -0.360 N
HETATM   36  C2  UNL     1      20.389  26.893  16.062  1.00  0.00     0.007 A
HETATM   37  C1  UNL     1      19.635  27.018  14.771  1.00  0.00     0.068 C
HETATM   38  C3  UNL     1      21.655  27.481  16.174  1.00  0.00     0.025 A
HETATM   39  C4  UNL     1      22.351  27.380  17.340  1.00  0.00     0.003 A
HETATM   40  C5  UNL     1      21.771  26.691  18.383  1.00  0.00     0.017 A
HETATM   41  C6  UNL     1      20.524  26.123  18.243  1.00  0.00     0.091 A
ENDBRANCH  34  35
ENDBRANCH  33  34
ENDBRANCH  32  33
ENDBRANCH  31  32
ENDBRANCH  30  31
ENDBRANCH  29  30
ENDBRANCH   1  29
BRANCH   6  42
HETATM   42  C16 UNL     1      13.916  18.217  13.033  1.00  0.00     0.035 C
BRANCH  42  43
HETATM   43  C17 UNL     1      12.772  17.500  12.398  1.00  0.00     0.003 C
BRANCH  43  44
HETATM   44  C18 UNL     1      13.369  16.328  11.609  1.00  0.00     0.011 C
BRANCH  44  45
HETATM   45  C19 UNL     1      12.402  15.717  10.652  1.00  0.00     0.086 C
HETATM   46  S1  UNL     1      10.842  16.661  10.729  1.00  0.00    -0.098 SA
ENDBRANCH  44  45
ENDBRANCH  43  44
ENDBRANCH  42  43
ENDBRANCH   6  42
BRANCH  24  47
HETATM   47  C31 UNL     1      16.434  19.975  18.118  1.00  0.00     0.009 C
HETATM   48  C32 UNL     1      17.226  20.632  16.975  1.00  0.00     0.012 C
HETATM   49  C33 UNL     1      16.949  20.542  19.385  1.00  0.00     0.012 C
ENDBRANCH  24  47
BRANCH   9  50
HETATM   50  O2  UNL     1      10.567  21.270  13.668  1.00  0.00    -0.332 OA
ATOM     51  H2  UNL     1       9.945  21.304  12.951  1.00  0.00     0.220 HD
ENDBRANCH   9  50
BRANCH  12  52
HETATM   52  O3  UNL     1       8.944  17.271  14.647  1.00  0.00    -0.348 OA
ATOM     53  H3  UNL     1       9.000  16.323  14.630  1.00  0.00     0.219 HD
ENDBRANCH  12  52
BRANCH  13  54
HETATM   54  C23 UNL     1      10.645  15.496  15.256  1.00  0.00     0.008 C
HETATM   55  C24 UNL     1      10.753  14.610  16.474  1.00  0.00     0.012 C
HETATM   56  C25 UNL     1      11.637  15.002  14.244  1.00  0.00     0.012 C
ENDBRANCH  13  54
TORSDOF 15
ENDMDL