MODEL 3
REMARK VINA RESULT: -5.041162363      1.857      2.544
REMARK  12 active torsions:
REMARK  status: ('A' for Active; 'I' for Inactive)
REMARK    1  A    between atoms: C2_2  and  C3_3
REMARK    2  A    between atoms: C3_3  and  N1_4
REMARK    3  A    between atoms: C4_5  and  C5_6
REMARK    4  A    between atoms: C5_6  and  C6_7
REMARK    5  A    between atoms: C8_9  and  O1_10
REMARK    6  A    between atoms: C12_18  and  O2_19
REMARK    7  A    between atoms: C13_21  and  C14_22
REMARK    8  A    between atoms: C14_22  and  C15_23
REMARK    9  A    between atoms: C19_30  and  C20_31
REMARK   10  A    between atoms: C20_31  and  C21_32
REMARK   11  A    between atoms: C31_51  and  C32_52
REMARK   12  A    between atoms: C32_52  and  C33_53
ROOT
HETATM    1  N1  UNL     1      27.790  26.805  17.811  1.00  0.00    -0.337 N
HETATM    2  C4  UNL     1      26.434  26.665  18.270  1.00  0.00     0.195 C
HETATM    3  N3  UNL     1      26.155  25.232  18.457  1.00  0.00    -0.351 N
ATOM      4  H3  UNL     1      25.869  24.760  17.600  1.00  0.00     0.163 HD
HETATM    5  C12 UNL     1      26.199  24.402  19.546  1.00  0.00     0.136 C
HETATM    6  C13 UNL     1      27.245  24.047  20.529  1.00  0.00     0.159 C
HETATM    7  N4  UNL     1      26.990  24.684  21.816  1.00  0.00    -0.347 N
ATOM      8  H4  UNL     1      26.436  25.539  21.775  1.00  0.00     0.163 HD
HETATM    9  C18 UNL     1      27.387  24.303  23.080  1.00  0.00     0.241 C
HETATM   10  O3  UNL     1      26.525  24.278  24.007  1.00  0.00    -0.271 OA
HETATM   11  C19 UNL     1      28.779  23.892  23.521  1.00  0.00     0.177 C
HETATM   12  N5  UNL     1      29.363  25.020  24.254  1.00  0.00    -0.346 N
ATOM     13  H5  UNL     1      28.941  25.296  25.141  1.00  0.00     0.163 HD
HETATM   14  C24 UNL     1      30.478  25.738  23.788  1.00  0.00     0.240 C
HETATM   15  O4  UNL     1      31.235  26.296  24.618  1.00  0.00    -0.271 OA
HETATM   16  C25 UNL     1      30.829  25.884  22.352  1.00  0.00     0.172 C
HETATM   17  C26 UNL     1      32.154  25.163  22.149  1.00  0.00     0.042 C
HETATM   18  N6  UNL     1      31.073  27.285  22.132  1.00  0.00    -0.346 N
ATOM     19  H6  UNL     1      31.940  27.658  22.518  1.00  0.00     0.163 HD
HETATM   20  C27 UNL     1      30.258  28.194  21.449  1.00  0.00     0.240 C
HETATM   21  O5  UNL     1      30.782  29.272  21.020  1.00  0.00    -0.271 OA
HETATM   22  C28 UNL     1      28.803  28.020  21.172  1.00  0.00     0.172 C
HETATM   23  C29 UNL     1      28.092  28.277  22.509  1.00  0.00     0.042 C
HETATM   24  N7  UNL     1      28.357  29.024  20.241  1.00  0.00    -0.343 N
ATOM     25  H7  UNL     1      28.518  29.985  20.542  1.00  0.00     0.163 HD
HETATM   26  C30 UNL     1      27.738  28.899  18.996  1.00  0.00     0.265 C
HETATM   27  O6  UNL     1      26.620  29.537  18.878  1.00  0.00    -0.266 OA
HETATM   28  C31 UNL     1      28.235  28.120  17.811  1.00  0.00     0.081 C
ENDROOT
BRANCH   2  29
HETATM   29  C5  UNL     1      25.427  27.155  17.272  1.00  0.00     0.104 C
BRANCH  29  30
HETATM   30  C6  UNL     1      24.046  27.139  17.815  1.00  0.00     0.015 A
HETATM   31  C7  UNL     1      22.824  27.136  17.231  1.00  0.00     0.064 A
HETATM   32  C8  UNL     1      21.861  27.136  18.188  1.00  0.00     0.092 A
HETATM   33  C10 UNL     1      22.480  27.140  19.395  1.00  0.00     0.039 A
HETATM   34  C11 UNL     1      21.814  27.141  20.736  1.00  0.00     0.071 C
HETATM   35  N2  UNL     1      23.792  27.141  19.166  1.00  0.00    -0.361 N
ATOM     36  H2  UNL     1      24.509  27.143  19.892  1.00  0.00     0.165 HD
BRANCH  32  37
HETATM   37  O1  UNL     1      20.472  27.134  17.995  1.00  0.00    -0.354 OA
HETATM   38  C9  UNL     1      19.791  26.059  17.418  1.00  0.00     0.210 C
ENDBRANCH  32  37
ENDBRANCH  29  30
ENDBRANCH   2  29
BRANCH   1  39
HETATM   39  C3  UNL     1      28.366  25.775  17.092  1.00  0.00     0.066 C
BRANCH  39  40
HETATM   40  C2  UNL     1      29.604  25.091  17.540  1.00  0.00     0.040 C
HETATM   41  C1  UNL     1      30.591  25.175  16.339  1.00  0.00     0.010 C
ENDBRANCH  39  40
ENDBRANCH   1  39
BRANCH  28  42
HETATM   42  C32 UNL     1      29.613  28.532  17.507  1.00  0.00     0.067 C
BRANCH  42  43
HETATM   43  C33 UNL     1      29.938  29.284  16.267  1.00  0.00    -0.017 C
HETATM   44  C34 UNL     1      28.903  28.969  15.165  1.00  0.00     0.010 C
HETATM   45  C35 UNL     1      31.275  28.829  15.662  1.00  0.00     0.010 C
ENDBRANCH  42  43
ENDBRANCH  28  42
BRANCH   5  46
HETATM   46  O2  UNL     1      25.082  23.759  19.811  1.00  0.00    -0.348 OA
ATOM     47  H2  UNL     1      24.396  23.847  19.160  1.00  0.00     0.219 HD
ENDBRANCH   5  46
BRANCH   6  48
HETATM   48  C14 UNL     1      27.388  22.574  20.654  1.00  0.00     0.037 C
BRANCH  48  49
HETATM   49  C15 UNL     1      28.602  21.921  20.119  1.00  0.00    -0.020 C
HETATM   50  C16 UNL     1      28.706  20.462  20.458  1.00  0.00     0.009 C
HETATM   51  C17 UNL     1      29.903  22.638  20.290  1.00  0.00     0.009 C
ENDBRANCH  48  49
ENDBRANCH   6  48
BRANCH  11  52
HETATM   52  C20 UNL     1      28.561  22.768  24.488  1.00  0.00     0.038 C
BRANCH  52  53
HETATM   53  C21 UNL     1      28.954  21.405  24.099  1.00  0.00    -0.020 C
HETATM   54  C22 UNL     1      30.393  21.214  23.752  1.00  0.00     0.009 C
HETATM   55  C23 UNL     1      28.667  20.490  25.310  1.00  0.00     0.009 C
ENDBRANCH  52  53
ENDBRANCH  11  52
TORSDOF 12
ENDMDL