MODEL 5
REMARK VINA RESULT: -5.878577963      2.296      7.780
REMARK  12 active torsions:
REMARK  status: ('A' for Active; 'I' for Inactive)
REMARK    1  A    between atoms: C2_2  and  C4_4
REMARK    2  A    between atoms: C4_4  and  C5_5
REMARK    3  A    between atoms: C7_10  and  C8_11
REMARK    4  A    between atoms: C12_18  and  C13_19
REMARK    5  A    between atoms: C13_19  and  C14_20
REMARK    6  A    between atoms: C23_34  and  C24_35
REMARK    7  A    between atoms: C24_35  and  C25_36
REMARK    8  A    between atoms: C30_43  and  C31_44
REMARK    9  A    between atoms: C31_44  and  C32_45
REMARK   10  A    between atoms: C32_45  and  C33_46
REMARK   11  A    between atoms: C33_46  and  C34_47
REMARK   12  A    between atoms: C34_47  and  N6_48
ROOT
HETATM    1  C5  UNL     1      26.220  24.117  20.194  1.00  0.00     0.177 C
HETATM    2  N1  UNL     1      25.746  24.584  21.480  1.00  0.00    -0.346 N
ATOM      3  H1  UNL     1      25.241  23.893  22.035  1.00  0.00     0.163 HD
HETATM    4  C6  UNL     1      25.878  25.834  22.065  1.00  0.00     0.241 C
HETATM    5  O1  UNL     1      24.801  26.348  22.551  1.00  0.00    -0.271 OA
HETATM    6  C7  UNL     1      27.090  26.666  22.215  1.00  0.00     0.180 C
HETATM    7  N2  UNL     1      28.197  26.303  21.397  1.00  0.00    -0.346 N
ATOM      8  H2  UNL     1      28.509  25.336  21.481  1.00  0.00     0.163 HD
HETATM    9  C11 UNL     1      28.914  27.096  20.496  1.00  0.00     0.241 C
HETATM   10  O2  UNL     1      30.017  26.691  20.039  1.00  0.00    -0.271 OA
HETATM   11  C12 UNL     1      28.490  28.444  19.987  1.00  0.00     0.181 C
HETATM   12  N4  UNL     1      29.051  28.745  18.693  1.00  0.00    -0.346 N
ATOM     13  H4  UNL     1      30.021  29.064  18.686  1.00  0.00     0.163 HD
HETATM   14  C22 UNL     1      28.420  28.649  17.436  1.00  0.00     0.241 C
HETATM   15  O3  UNL     1      28.417  29.677  16.667  1.00  0.00    -0.271 OA
HETATM   16  C23 UNL     1      27.738  27.463  16.877  1.00  0.00     0.179 C
HETATM   17  N5  UNL     1      26.365  27.758  16.522  1.00  0.00    -0.341 N
HETATM   18  C28 UNL     1      26.044  28.986  15.788  1.00  0.00     0.153 C
HETATM   19  C29 UNL     1      25.286  26.868  16.849  1.00  0.00     0.243 C
HETATM   20  O4  UNL     1      24.492  26.567  15.894  1.00  0.00    -0.271 OA
HETATM   21  C30 UNL     1      25.031  26.285  18.182  1.00  0.00     0.176 C
HETATM   22  N7  UNL     1      24.895  24.832  18.105  1.00  0.00    -0.346 N
ATOM     23  H7  UNL     1      24.632  24.421  17.210  1.00  0.00     0.163 HD
HETATM   24  C35 UNL     1      25.105  23.961  19.200  1.00  0.00     0.241 C
HETATM   25  O5  UNL     1      24.333  22.971  19.402  1.00  0.00    -0.271 OA
ENDROOT
BRANCH  11  26
HETATM   26  C13 UNL     1      29.122  29.413  20.999  1.00  0.00     0.075 C
BRANCH  26  27
HETATM   27  C14 UNL     1      28.299  30.576  21.286  1.00  0.00    -0.028 A
HETATM   28  C15 UNL     1      27.724  31.430  20.372  1.00  0.00     0.096 A
HETATM   29  N3  UNL     1      27.029  32.394  21.027  1.00  0.00    -0.365 N
HETATM   30  C16 UNL     1      27.139  32.189  22.357  1.00  0.00     0.042 A
ATOM     31  H3  UNL     1      26.508  33.152  20.585  1.00  0.00     0.165 HD
HETATM   32  C17 UNL     1      26.616  32.897  23.411  1.00  0.00     0.030 A
HETATM   33  C21 UNL     1      27.935  31.048  22.523  1.00  0.00    -0.002 A
HETATM   34  C18 UNL     1      26.887  32.465  24.690  1.00  0.00     0.002 A
HETATM   35  C19 UNL     1      27.663  31.350  24.922  1.00  0.00     0.001 A
HETATM   36  C20 UNL     1      28.168  30.670  23.832  1.00  0.00     0.014 A
ENDBRANCH  26  27
ENDBRANCH  11  26
BRANCH   6  37
HETATM   37  C8  UNL     1      27.495  26.768  23.697  1.00  0.00     0.009 C
HETATM   38  C9  UNL     1      27.413  25.407  24.313  1.00  0.00     0.012 C
HETATM   39  C10 UNL     1      28.886  27.326  23.840  1.00  0.00     0.012 C
ENDBRANCH   6  37
BRANCH  16  40
HETATM   40  C24 UNL     1      28.436  27.181  15.540  1.00  0.00     0.039 C
BRANCH  40  41
HETATM   41  C25 UNL     1      29.449  26.083  15.628  1.00  0.00    -0.020 C
HETATM   42  C26 UNL     1      30.860  26.532  15.476  1.00  0.00     0.009 C
HETATM   43  C27 UNL     1      29.334  25.348  16.950  1.00  0.00     0.009 C
ENDBRANCH  40  41
ENDBRANCH  16  40
BRANCH   1  44
HETATM   44  C4  UNL     1      26.747  22.697  20.449  1.00  0.00     0.038 C
BRANCH  44  45
HETATM   45  C2  UNL     1      28.103  22.673  21.064  1.00  0.00    -0.020 C
HETATM   46  C1  UNL     1      28.472  21.261  21.445  1.00  0.00     0.009 C
HETATM   47  C3  UNL     1      29.087  23.070  19.956  1.00  0.00     0.009 C
ENDBRANCH  44  45
ENDBRANCH   1  44
BRANCH  21  48
HETATM   48  C31 UNL     1      23.807  26.842  18.854  1.00  0.00     0.035 C
BRANCH  48  49
HETATM   49  C32 UNL     1      22.525  26.131  18.477  1.00  0.00     0.004 C
BRANCH  49  50
HETATM   50  C33 UNL     1      21.451  27.187  18.181  1.00  0.00     0.027 C
BRANCH  50  51
HETATM   51  C34 UNL     1      21.019  27.093  16.728  1.00  0.00     0.229 C
BRANCH  51  52
HETATM   52  N6  UNL     1      21.825  28.029  15.969  1.00  0.00    -0.079 N
ATOM     53  H63 UNL     1      22.823  27.931  16.150  1.00  0.00     0.274 HD
ATOM     54  H62 UNL     1      21.847  27.815  14.971  1.00  0.00     0.274 HD
ATOM     55  H61 UNL     1      21.477  28.968  16.165  1.00  0.00     0.274 HD
ENDBRANCH  51  52
ENDBRANCH  50  51
ENDBRANCH  49  50
ENDBRANCH  48  49
ENDBRANCH  21  48
TORSDOF 12
ENDMDL