MODEL 4
REMARK VINA RESULT: -8.230270745      2.119     10.226
REMARK  14 active torsions:
REMARK  status: ('A' for Active; 'I' for Inactive)
REMARK    1  A    between atoms: C2_2  and  C3_3
REMARK    2  A    between atoms: C3_3  and  C4_4
REMARK    3  A    between atoms: C4_4  and  C5_5
REMARK    4  A    between atoms: C6_6  and  O1_7
REMARK    5  A    between atoms: C11_18  and  C12_19
REMARK    6  A    between atoms: C12_19  and  C13_20
REMARK    7  A    between atoms: C16_23  and  O3_24
REMARK    8  A    between atoms: C17_28  and  C18_29
REMARK    9  A    between atoms: C18_29  and  C19_30
REMARK   10  A    between atoms: C21_37  and  C22_38
REMARK   11  A    between atoms: C22_38  and  C23_39
REMARK   12  A    between atoms: C27_46  and  C28_47
REMARK   13  A    between atoms: C28_47  and  C29_48
REMARK   14  A    between atoms: C29_48  and  N6_49
ROOT
HETATM    1  C5  UNL     1      11.443  19.091  13.985  1.00  0.00    -0.007 C
HETATM    2  C6  UNL     1      12.757  19.602  13.518  1.00  0.00     0.141 C
HETATM    3  N1  UNL     1      13.239  20.787  13.053  1.00  0.00    -0.353 N
ATOM      4  H1  UNL     1      13.360  20.783  12.040  1.00  0.00     0.163 HD
HETATM    5  C7  UNL     1      13.622  22.052  13.648  1.00  0.00     0.105 C
HETATM    6  C8  UNL     1      12.966  22.423  14.917  1.00  0.00     0.048 C
HETATM    7  C9  UNL     1      13.226  23.142  12.632  1.00  0.00     0.048 C
HETATM    8  C10 UNL     1      15.108  22.127  13.694  1.00  0.00     0.245 C
HETATM    9  O2  UNL     1      15.652  21.780  12.577  1.00  0.00    -0.271 OA
HETATM   10  N2  UNL     1      15.959  22.500  14.730  1.00  0.00    -0.347 N
ATOM     11  H2  UNL     1      16.567  21.757  15.076  1.00  0.00     0.163 HD
HETATM   12  C11 UNL     1      16.116  23.779  15.395  1.00  0.00     0.159 C
HETATM   13  C16 UNL     1      16.070  23.726  16.870  1.00  0.00     0.135 C
HETATM   14  N3  UNL     1      16.383  22.714  17.757  1.00  0.00    -0.359 N
ATOM     15  H3  UNL     1      17.169  22.922  18.372  1.00  0.00     0.162 HD
HETATM   16  C17 UNL     1      15.790  21.414  17.966  1.00  0.00     0.185 C
HETATM   17  C20 UNL     1      14.375  21.495  18.436  1.00  0.00     0.241 C
HETATM   18  O6  UNL     1      13.898  22.688  18.431  1.00  0.00    -0.271 OA
HETATM   19  N4  UNL     1      13.541  20.492  18.860  1.00  0.00    -0.346 N
ATOM     20  H4  UNL     1      13.086  20.652  19.759  1.00  0.00     0.163 HD
HETATM   21  C21 UNL     1      13.211  19.220  18.204  1.00  0.00     0.177 C
HETATM   22  C26 UNL     1      11.775  19.234  17.768  1.00  0.00     0.241 C
HETATM   23  O7  UNL     1      10.915  19.136  18.719  1.00  0.00    -0.271 OA
HETATM   24  N5  UNL     1      11.313  19.343  16.456  1.00  0.00    -0.351 N
ATOM     25  H5  UNL     1      10.699  20.135  16.263  1.00  0.00     0.163 HD
HETATM   26  C27 UNL     1      11.595  18.473  15.337  1.00  0.00     0.119 C
ENDROOT
BRANCH  26  27
HETATM   27  C28 UNL     1      10.980  17.098  15.471  1.00  0.00     0.050 C
BRANCH  27  28
HETATM   28  C29 UNL     1       9.635  17.074  16.121  1.00  0.00     0.130 C
BRANCH  28  29
HETATM   29  N6  UNL     1       9.366  15.763  16.732  1.00  0.00    -0.366 N
HETATM   30  C30 UNL     1      10.037  15.316  17.803  1.00  0.00     0.090 A
HETATM   31  C31 UNL     1       9.781  14.077  18.370  1.00  0.00     0.018 A
HETATM   32  C32 UNL     1       8.807  13.272  17.821  1.00  0.00     0.009 A
HETATM   33  C33 UNL     1       8.115  13.729  16.723  1.00  0.00    -0.046 A
HETATM   34  C34 UNL     1       7.074  12.871  16.141  1.00  0.00     0.049 C
HETATM   35  C35 UNL     1       8.421  14.967  16.212  1.00  0.00     0.097 A
ENDBRANCH  28  29
ENDBRANCH  27  28
ENDBRANCH  26  27
BRANCH   1  36
HETATM   36  C4  UNL     1      10.283  19.961  13.734  1.00  0.00     0.041 C
BRANCH  36  37
HETATM   37  C3  UNL     1       9.168  19.318  12.949  1.00  0.00     0.004 C
BRANCH  37  38
HETATM   38  C2  UNL     1       9.811  18.164  12.150  1.00  0.00    -0.004 C
HETATM   39  C1  UNL     1       8.967  17.792  10.965  1.00  0.00     0.005 C
ENDBRANCH  37  38
ENDBRANCH  36  37
ENDBRANCH   1  36
BRANCH   2  40
HETATM   40  O1  UNL     1      13.614  18.620  13.598  1.00  0.00    -0.346 OA
ATOM     41  H1  UNL     1      13.816  18.341  12.712  1.00  0.00     0.219 HD
ENDBRANCH   2  40
BRANCH  21  42
HETATM   42  C22 UNL     1      13.386  18.195  19.326  1.00  0.00     0.038 C
BRANCH  42  43
HETATM   43  C23 UNL     1      13.795  18.787  20.629  1.00  0.00    -0.020 C
HETATM   44  C24 UNL     1      15.142  18.132  20.985  1.00  0.00     0.009 C
HETATM   45  C25 UNL     1      12.870  18.486  21.756  1.00  0.00     0.009 C
ENDBRANCH  42  43
ENDBRANCH  21  42
BRANCH  16  46
HETATM   46  C18 UNL     1      16.624  20.627  18.973  1.00  0.00     0.147 C
BRANCH  46  47
HETATM   47  C19 UNL     1      17.534  21.572  19.650  1.00  0.00     0.175 C
HETATM   48  O4  UNL     1      18.774  21.467  19.485  1.00  0.00    -0.648 OA
HETATM   49  O5  UNL     1      17.061  22.595  20.479  1.00  0.00    -0.648 OA
ENDBRANCH  46  47
ENDBRANCH  16  46
BRANCH  12  50
HETATM   50  C12 UNL     1      17.506  24.335  15.045  1.00  0.00     0.037 C
BRANCH  50  51
HETATM   51  C13 UNL     1      18.304  24.815  16.182  1.00  0.00    -0.020 C
HETATM   52  C14 UNL     1      18.997  26.107  15.871  1.00  0.00     0.009 C
HETATM   53  C15 UNL     1      19.358  23.767  16.533  1.00  0.00     0.009 C
ENDBRANCH  50  51
ENDBRANCH  12  50
BRANCH  13  54
HETATM   54  O3  UNL     1      15.659  24.847  17.387  1.00  0.00    -0.348 OA
ATOM     55  H3  UNL     1      15.325  24.733  18.270  1.00  0.00     0.219 HD
ENDBRANCH  13  54
TORSDOF 14
ENDMDL