MODEL 2
REMARK VINA RESULT: -7.371805636      2.499      9.814
REMARK  13 active torsions:
REMARK  status: ('A' for Active; 'I' for Inactive)
REMARK    1  A    between atoms: C2_2  and  C4_4
REMARK    2  A    between atoms: C4_4  and  C5_5
REMARK    3  A    between atoms: C7_10  and  C8_11
REMARK    4  A    between atoms: C12_18  and  C13_19
REMARK    5  A    between atoms: C13_19  and  C14_20
REMARK    6  A    between atoms: C14_20  and  C15_21
REMARK    7  A    between atoms: C15_21  and  C16_22
REMARK    8  A    between atoms: C18_27  and  O3_28
REMARK    9  A    between atoms: C19_30  and  C20_31
REMARK   10  A    between atoms: C20_31  and  C21_32
REMARK   11  A    between atoms: C30_46  and  C31_47
REMARK   12  A    between atoms: C31_47  and  C32_48
REMARK   13  A    between atoms: C32_48  and  N7_49
ROOT
HETATM    1  C16 UNL     1      14.669  20.069  12.794  1.00  0.00     0.124 C
HETATM    2  C17 UNL     1      13.825  18.895  12.847  1.00  0.00     0.059 C
HETATM    3  N3  UNL     1      13.160  17.954  12.876  1.00  0.00    -0.197 NA
ENDROOT
BRANCH   1   4
HETATM    4  C15 UNL     1      13.866  21.225  12.237  1.00  0.00     0.014 C
BRANCH   4   5
HETATM    5  C14 UNL     1      14.346  22.547  12.858  1.00  0.00     0.004 C
BRANCH   5   6
HETATM    6  C13 UNL     1      15.500  22.204  13.723  1.00  0.00     0.035 C
BRANCH   6   7
HETATM    7  C12 UNL     1      15.586  23.026  15.022  1.00  0.00     0.175 C
HETATM    8  C11 UNL     1      14.224  23.199  15.526  1.00  0.00     0.241 C
HETATM    9  N2  UNL     1      13.483  22.463  16.455  1.00  0.00    -0.346 N
HETATM   10  O2  UNL     1      13.597  24.215  15.025  1.00  0.00    -0.271 OA
HETATM   11  C7  UNL     1      13.408  21.033  16.639  1.00  0.00     0.180 C
ATOM     12  H2  UNL     1      12.914  23.016  17.095  1.00  0.00     0.163 HD
HETATM   13  C6  UNL     1      12.945  20.765  18.027  1.00  0.00     0.241 C
HETATM   14  N1  UNL     1      13.648  20.193  19.071  1.00  0.00    -0.346 N
HETATM   15  O1  UNL     1      11.733  21.120  18.261  1.00  0.00    -0.271 OA
HETATM   16  C5  UNL     1      14.431  18.927  18.976  1.00  0.00     0.177 C
ATOM     17  H1  UNL     1      13.629  20.671  19.971  1.00  0.00     0.163 HD
HETATM   18  C36 UNL     1      15.485  19.005  20.043  1.00  0.00     0.241 C
HETATM   19  N8  UNL     1      16.201  20.163  20.392  1.00  0.00    -0.346 N
HETATM   20  O5  UNL     1      15.745  17.951  20.673  1.00  0.00    -0.271 OA
HETATM   21  C30 UNL     1      16.831  21.116  19.505  1.00  0.00     0.178 C
ATOM     22  H8  UNL     1      16.287  20.355  21.390  1.00  0.00     0.163 HD
HETATM   23  C29 UNL     1      16.255  22.478  19.675  1.00  0.00     0.241 C
HETATM   24  N6  UNL     1      16.169  23.482  18.707  1.00  0.00    -0.347 N
HETATM   25  O4  UNL     1      15.803  22.701  20.858  1.00  0.00    -0.271 OA
HETATM   26  C19 UNL     1      17.239  23.895  17.799  1.00  0.00     0.163 C
ATOM     27  H6  UNL     1      15.278  23.972  18.627  1.00  0.00     0.163 HD
HETATM   28  C18 UNL     1      17.502  22.899  16.731  1.00  0.00     0.135 C
HETATM   29  N4  UNL     1      16.519  22.354  15.880  1.00  0.00    -0.359 N
ATOM     30  H4  UNL     1      16.462  21.335  15.874  1.00  0.00     0.162 HD
BRANCH  11  31
HETATM   31  C8  UNL     1      12.441  20.483  15.600  1.00  0.00     0.009 C
HETATM   32  C9  UNL     1      11.461  21.493  15.094  1.00  0.00     0.012 C
HETATM   33  C10 UNL     1      11.771  19.216  16.001  1.00  0.00     0.012 C
ENDBRANCH  11  31
BRANCH  16  34
HETATM   34  C4  UNL     1      13.415  17.858  19.259  1.00  0.00     0.038 C
BRANCH  34  35
HETATM   35  C2  UNL     1      12.367  18.205  20.243  1.00  0.00    -0.020 C
HETATM   36  C1  UNL     1      10.971  17.907  19.625  1.00  0.00     0.009 C
HETATM   37  C3  UNL     1      12.441  17.322  21.495  1.00  0.00     0.009 C
ENDBRANCH  34  35
ENDBRANCH  16  34
BRANCH  21  38
HETATM   38  C31 UNL     1      18.297  21.222  19.962  1.00  0.00     0.063 C
BRANCH  38  39
HETATM   39  C32 UNL     1      18.629  22.658  20.307  1.00  0.00     0.238 C
BRANCH  39  40
HETATM   40  N7  UNL     1      19.991  22.826  20.718  1.00  0.00    -0.079 N
HETATM   41  C33 UNL     1      20.001  23.728  21.883  1.00  0.00     0.271 C
HETATM   42  C34 UNL     1      20.841  23.437  19.738  1.00  0.00     0.271 C
HETATM   43  C35 UNL     1      20.602  21.587  21.192  1.00  0.00     0.271 C
ENDBRANCH  39  40
ENDBRANCH  38  39
ENDBRANCH  21  38
BRANCH  26  44
HETATM   44  C20 UNL     1      16.987  25.292  17.261  1.00  0.00     0.074 C
BRANCH  44  45
HETATM   45  C21 UNL     1      18.205  25.650  16.445  1.00  0.00    -0.028 A
HETATM   46  C22 UNL     1      18.340  25.553  15.078  1.00  0.00     0.096 A
HETATM   47  N5  UNL     1      19.569  25.983  14.782  1.00  0.00    -0.365 N
HETATM   48  C23 UNL     1      20.210  26.346  15.904  1.00  0.00     0.042 A
ATOM     49  H5  UNL     1      19.962  26.029  13.842  1.00  0.00     0.165 HD
HETATM   50  C24 UNL     1      21.491  26.855  16.149  1.00  0.00     0.030 A
HETATM   51  C28 UNL     1      19.372  26.148  16.981  1.00  0.00    -0.002 A
HETATM   52  C25 UNL     1      21.860  27.132  17.448  1.00  0.00     0.002 A
HETATM   53  C26 UNL     1      21.035  26.938  18.522  1.00  0.00     0.001 A
HETATM   54  C27 UNL     1      19.763  26.434  18.277  1.00  0.00     0.014 A
ENDBRANCH  44  45
ENDBRANCH  26  44
BRANCH  28  55
HETATM   55  O3  UNL     1      18.739  22.520  16.595  1.00  0.00    -0.348 OA
ATOM     56  H3  UNL     1      19.252  22.867  15.874  1.00  0.00     0.219 HD
ENDBRANCH  28  55
ENDBRANCH   6   7
ENDBRANCH   5   6
ENDBRANCH   4   5
ENDBRANCH   1   4
TORSDOF 13
ENDMDL