MODEL 3
REMARK VINA RESULT: -6.899389885      2.472      6.877
REMARK  12 active torsions:
REMARK  status: ('A' for Active; 'I' for Inactive)
REMARK    1  A    between atoms: C2_2  and  C3_3
REMARK    2  A    between atoms: C3_3  and  C4_4
REMARK    3  A    between atoms: C4_4  and  C5_5
REMARK       I    between atoms: C5_5  and  N1_7
REMARK    4  A    between atoms: N1_7  and  C6_9
REMARK    5  A    between atoms: C6_9  and  C7_10
REMARK    6  A    between atoms: C7_10  and  C8_11
REMARK    7  A    between atoms: C14_22  and  C15_23
REMARK    8  A    between atoms: C15_23  and  C16_24
REMARK    9  A    between atoms: C20_31  and  C21_32
REMARK   10  A    between atoms: C21_32  and  C22_33
REMARK   11  A    between atoms: C26_40  and  C27_41
REMARK   12  A    between atoms: C27_41  and  C28_42
ROOT
HETATM    1  C8  UNL     1      24.016  26.655  18.494  1.00  0.00     0.178 C
HETATM    2  N2  UNL     1      23.946  25.225  18.446  1.00  0.00    -0.346 N
ATOM      3  H2  UNL     1      23.354  24.791  17.738  1.00  0.00     0.163 HD
HETATM    4  C9  UNL     1      24.660  24.387  19.332  1.00  0.00     0.240 C
HETATM    5  O2  UNL     1      24.135  23.335  19.792  1.00  0.00    -0.271 OA
HETATM    6  C10 UNL     1      26.025  24.713  19.739  1.00  0.00     0.174 C
HETATM    7  C11 UNL     1      26.894  23.515  19.284  1.00  0.00     0.042 C
HETATM    8  N3  UNL     1      26.183  24.936  21.143  1.00  0.00    -0.342 N
HETATM    9  C12 UNL     1      25.214  24.427  22.119  1.00  0.00     0.153 C
HETATM   10  C13 UNL     1      27.298  25.656  21.615  1.00  0.00     0.243 C
HETATM   11  O3  UNL     1      27.927  25.290  22.671  1.00  0.00    -0.271 OA
HETATM   12  C14 UNL     1      27.843  26.897  20.940  1.00  0.00     0.177 C
HETATM   13  N4  UNL     1      29.177  26.553  20.509  1.00  0.00    -0.346 N
ATOM     14  H4  UNL     1      29.894  26.477  21.231  1.00  0.00     0.163 HD
HETATM   15  C19 UNL     1      29.580  26.310  19.166  1.00  0.00     0.241 C
HETATM   16  O4  UNL     1      30.481  25.454  18.984  1.00  0.00    -0.271 OA
HETATM   17  C20 UNL     1      28.984  27.017  17.990  1.00  0.00     0.177 C
HETATM   18  N5  UNL     1      28.436  26.144  17.007  1.00  0.00    -0.346 N
ATOM     19  H5  UNL     1      28.945  25.279  16.826  1.00  0.00     0.163 HD
HETATM   20  C25 UNL     1      27.261  26.355  16.260  1.00  0.00     0.241 C
HETATM   21  O5  UNL     1      26.870  25.422  15.496  1.00  0.00    -0.271 OA
HETATM   22  C26 UNL     1      26.412  27.572  16.265  1.00  0.00     0.181 C
HETATM   23  N7  UNL     1      25.016  27.178  16.171  1.00  0.00    -0.346 N
ATOM     24  H7  UNL     1      24.736  26.778  15.276  1.00  0.00     0.163 HD
HETATM   25  C36 UNL     1      24.010  27.268  17.123  1.00  0.00     0.241 C
HETATM   26  O6  UNL     1      22.979  27.929  16.821  1.00  0.00    -0.271 OA
ENDROOT
BRANCH  22  27
HETATM   27  C27 UNL     1      26.763  28.292  14.947  1.00  0.00     0.075 C
BRANCH  27  28
HETATM   28  C28 UNL     1      27.414  29.589  15.198  1.00  0.00    -0.028 A
HETATM   29  C29 UNL     1      28.707  29.923  14.895  1.00  0.00     0.096 A
HETATM   30  N6  UNL     1      28.933  31.183  15.274  1.00  0.00    -0.365 N
HETATM   31  C30 UNL     1      27.813  31.683  15.820  1.00  0.00     0.042 A
ATOM     32  H6  UNL     1      29.815  31.684  15.167  1.00  0.00     0.165 HD
HETATM   33  C31 UNL     1      27.507  32.929  16.368  1.00  0.00     0.030 A
HETATM   34  C35 UNL     1      26.859  30.701  15.779  1.00  0.00    -0.002 A
HETATM   35  C32 UNL     1      26.260  33.218  16.880  1.00  0.00     0.002 A
HETATM   36  C33 UNL     1      25.304  32.224  16.835  1.00  0.00     0.001 A
HETATM   37  C34 UNL     1      25.606  30.998  16.296  1.00  0.00     0.014 A
ENDBRANCH  27  28
ENDBRANCH  22  27
BRANCH  17  38
HETATM   38  C21 UNL     1      29.957  27.965  17.359  1.00  0.00     0.038 C
BRANCH  38  39
HETATM   39  C22 UNL     1      30.446  29.090  18.189  1.00  0.00    -0.020 C
HETATM   40  C23 UNL     1      31.400  30.045  17.525  1.00  0.00     0.009 C
HETATM   41  C24 UNL     1      29.254  29.949  18.656  1.00  0.00     0.009 C
ENDBRANCH  38  39
ENDBRANCH  17  38
BRANCH   1  42
HETATM   42  C7  UNL     1      22.950  27.178  19.395  1.00  0.00     0.054 C
BRANCH  42  43
HETATM   43  C6  UNL     1      21.655  26.500  19.496  1.00  0.00     0.125 C
BRANCH  43  44
HETATM   44  N1  UNL     1      20.682  26.709  18.456  1.00  0.00    -0.361 N
HETATM   45  C5  UNL     1      20.012  25.572  17.923  1.00  0.00     0.217 C
HETATM   46  O1  UNL     1      20.296  24.443  18.379  1.00  0.00    -0.274 OA
ATOM     47  H1  UNL     1      20.478  27.646  18.110  1.00  0.00     0.162 HD
BRANCH  45  48
HETATM   48  C4  UNL     1      19.006  25.739  16.854  1.00  0.00     0.106 C
BRANCH  48  49
HETATM   49  C3  UNL     1      19.466  25.334  15.504  1.00  0.00     0.035 C
BRANCH  49  50
HETATM   50  C2  UNL     1      20.231  26.358  14.794  1.00  0.00    -0.036 C
HETATM   51  C1  UNL     1      19.932  27.635  14.653  1.00  0.00     0.007 C
ENDBRANCH  49  50
ENDBRANCH  48  49
ENDBRANCH  45  48
ENDBRANCH  43  44
ENDBRANCH  42  43
ENDBRANCH   1  42
BRANCH  12  52
HETATM   52  C15 UNL     1      27.758  27.948  21.996  1.00  0.00     0.038 C
BRANCH  52  53
HETATM   53  C16 UNL     1      28.912  28.840  22.194  1.00  0.00    -0.020 C
HETATM   54  C17 UNL     1      28.359  30.275  22.341  1.00  0.00     0.009 C
HETATM   55  C18 UNL     1      29.538  28.562  23.562  1.00  0.00     0.009 C
ENDBRANCH  52  53
ENDBRANCH  12  52
TORSDOF 12
ENDMDL