MODEL 5
REMARK VINA RESULT: -8.075753060      1.415      2.231
REMARK  13 active torsions:
REMARK  status: ('A' for Active; 'I' for Inactive)
REMARK    1  A    between atoms: C2_2  and  C4_4
REMARK    2  A    between atoms: C4_4  and  C5_5
REMARK    3  A    between atoms: C6_8  and  O1_9
REMARK    4  A    between atoms: C7_11  and  C8_12
REMARK    5  A    between atoms: C8_12  and  C9_13
REMARK    6  A    between atoms: C15_22  and  C16_23
REMARK    7  A    between atoms: C16_23  and  C17_24
REMARK    8  A    between atoms: C22_29  and  N3_30
REMARK       I    between atoms: N3_30  and  C24_32
REMARK    9  A    between atoms: C24_32  and  C25_34
REMARK   10  A    between atoms: C25_34  and  C26_35
REMARK   11  A    between atoms: C26_35  and  C27_36
REMARK   12  A    between atoms: C31_48  and  C32_49
REMARK   13  A    between atoms: C32_49  and  C33_50
ROOT
HETATM    1  C5  UNL     1      10.318  15.715  15.972  1.00  0.00     0.175 C
HETATM    2  N1  UNL     1      11.263  16.328  15.071  1.00  0.00    -0.359 N
ATOM      3  H1  UNL     1      12.151  15.825  15.076  1.00  0.00     0.162 HD
HETATM    4  C6  UNL     1      11.307  17.387  14.217  1.00  0.00     0.135 C
HETATM    5  C7  UNL     1      10.293  18.137  13.461  1.00  0.00     0.159 C
HETATM    6  N2  UNL     1      10.691  19.472  13.095  1.00  0.00    -0.345 N
ATOM      7  H2  UNL     1      10.471  19.783  12.149  1.00  0.00     0.163 HD
HETATM    8  C12 UNL     1      11.367  20.394  13.944  1.00  0.00     0.246 C
HETATM    9  O2  UNL     1      12.251  21.059  13.330  1.00  0.00    -0.268 OA
HETATM   10  C13 UNL     1      11.099  20.588  15.383  1.00  0.00     0.010 C
HETATM   11  C14 UNL     1       9.940  21.508  15.575  1.00  0.00     0.052 C
HETATM   12  C15 UNL     1      12.191  20.631  16.334  1.00  0.00     0.143 C
HETATM   13  N6  UNL     1      11.593  20.320  17.698  1.00  0.00    -0.347 N
ATOM     14  H6  UNL     1      11.427  21.096  18.338  1.00  0.00     0.163 HD
HETATM   15  C30 UNL     1      11.262  19.040  18.122  1.00  0.00     0.241 C
HETATM   16  O5  UNL     1      10.092  18.889  18.641  1.00  0.00    -0.271 OA
HETATM   17  C31 UNL     1      12.092  17.812  18.055  1.00  0.00     0.177 C
HETATM   18  N7  UNL     1      11.265  16.627  18.221  1.00  0.00    -0.346 N
ATOM     19  H7  UNL     1      10.863  16.527  19.152  1.00  0.00     0.163 HD
HETATM   20  C36 UNL     1      10.926  15.615  17.351  1.00  0.00     0.241 C
HETATM   21  O6  UNL     1      11.154  14.412  17.748  1.00  0.00    -0.271 OA
ENDROOT
BRANCH  12  22
HETATM   22  C16 UNL     1      13.126  21.690  16.642  1.00  0.00     0.016 C
BRANCH  22  23
HETATM   23  C17 UNL     1      14.305  22.057  15.919  1.00  0.00    -0.011 A
HETATM   24  C18 UNL     1      14.130  22.572  14.642  1.00  0.00     0.013 A
HETATM   25  C19 UNL     1      15.191  23.034  13.920  1.00  0.00     0.001 A
HETATM   26  C20 UNL     1      16.470  22.992  14.462  1.00  0.00     0.002 A
HETATM   27  C21 UNL     1      16.672  22.489  15.713  1.00  0.00     0.030 A
HETATM   28  C22 UNL     1      15.554  22.017  16.438  1.00  0.00     0.046 A
BRANCH  28  29
HETATM   29  N3  UNL     1      15.915  21.416  17.709  1.00  0.00    -0.322 N
HETATM   30  C23 UNL     1      16.125  20.005  17.896  1.00  0.00     0.159 C
HETATM   31  C24 UNL     1      16.024  22.232  18.901  1.00  0.00     0.224 C
HETATM   32  O3  UNL     1      16.368  21.734  19.992  1.00  0.00    -0.273 OA
BRANCH  31  33
HETATM   33  C25 UNL     1      15.719  23.667  18.790  1.00  0.00     0.109 C
BRANCH  33  34
HETATM   34  C26 UNL     1      16.870  24.560  18.480  1.00  0.00     0.068 C
BRANCH  34  35
HETATM   35  C27 UNL     1      18.081  24.298  19.262  1.00  0.00     0.029 A
HETATM   36  C28 UNL     1      19.322  23.908  18.878  1.00  0.00     0.117 A
HETATM   37  N4  UNL     1      20.066  23.793  20.020  1.00  0.00    -0.317 N
HETATM   38  C29 UNL     1      19.324  24.099  21.080  1.00  0.00     0.324 A
ATOM     39  H4  UNL     1      21.046  23.514  20.054  1.00  0.00     0.170 HD
HETATM   40  O4  UNL     1      19.720  24.090  22.288  1.00  0.00    -0.247 OA
HETATM   41  N5  UNL     1      18.114  24.408  20.625  1.00  0.00    -0.311 N
ATOM     42  H5  UNL     1      17.324  24.686  21.207  1.00  0.00     0.170 HD
ENDBRANCH  34  35
ENDBRANCH  33  34
ENDBRANCH  31  33
ENDBRANCH  28  29
ENDBRANCH  22  23
ENDBRANCH  12  22
BRANCH  17  43
HETATM   43  C32 UNL     1      13.273  17.819  18.963  1.00  0.00     0.038 C
BRANCH  43  44
HETATM   44  C33 UNL     1      13.160  18.400  20.308  1.00  0.00    -0.020 C
HETATM   45  C34 UNL     1      12.685  17.222  21.207  1.00  0.00     0.009 C
HETATM   46  C35 UNL     1      14.448  18.832  20.974  1.00  0.00     0.009 C
ENDBRANCH  43  44
ENDBRANCH  17  43
BRANCH   5  47
HETATM   47  C8  UNL     1       9.650  17.396  12.354  1.00  0.00     0.037 C
BRANCH  47  48
HETATM   48  C9  UNL     1      10.272  16.201  11.781  1.00  0.00    -0.020 C
HETATM   49  C10 UNL     1       9.424  14.955  11.741  1.00  0.00     0.009 C
HETATM   50  C11 UNL     1      11.011  16.406  10.481  1.00  0.00     0.009 C
ENDBRANCH  47  48
ENDBRANCH   5  47
BRANCH   4  51
HETATM   51  O1  UNL     1      12.508  17.879  13.988  1.00  0.00    -0.348 OA
ATOM     52  H1  UNL     1      12.717  18.036  13.074  1.00  0.00     0.219 HD
ENDBRANCH   4  51
BRANCH   1  53
HETATM   53  C4  UNL     1       8.923  16.189  15.939  1.00  0.00     0.038 C
BRANCH  53  54
HETATM   54  C2  UNL     1       7.846  15.131  15.999  1.00  0.00    -0.020 C
HETATM   55  C1  UNL     1       8.141  13.925  15.126  1.00  0.00     0.009 C
HETATM   56  C3  UNL     1       7.304  14.793  17.332  1.00  0.00     0.009 C
ENDBRANCH  53  54
ENDBRANCH   1  53
TORSDOF 13
ENDMDL