MODEL 3
REMARK VINA RESULT: -8.399646351      2.464      5.083
REMARK  15 active torsions:
REMARK  status: ('A' for Active; 'I' for Inactive)
REMARK    1  A    between atoms: C2_2  and  C3_3
REMARK       I    between atoms: C3_3  and  N1_5
REMARK    2  A    between atoms: N1_5  and  C4_7
REMARK    3  A    between atoms: C4_7  and  C5_8
REMARK    4  A    between atoms: C4_7  and  C8_12
REMARK    5  A    between atoms: C5_8  and  C6_9
REMARK    6  A    between atoms: C6_9  and  S1_10
REMARK    7  A    between atoms: C8_12  and  O2_13
REMARK    8  A    between atoms: C8_12  and  N2_15
REMARK    9  A    between atoms: C13_20  and  C14_21
REMARK   10  A    between atoms: C14_21  and  C15_23
REMARK   11  A    between atoms: C16_26  and  C17_27
REMARK       I    between atoms: C17_27  and  N4_29
REMARK   12  A    between atoms: N4_29  and  C18_31
REMARK   13  A    between atoms: C23_37  and  O5_38
REMARK   14  A    between atoms: C23_37  and  C24_40
REMARK   15  A    between atoms: C24_40  and  C25_41
ROOT
HETATM    1  N2  UNL     1      14.957  22.019  17.979  1.00  0.00    -0.348 N
HETATM    2  C9  UNL     1      13.892  21.552  18.918  1.00  0.00     0.134 C
HETATM    3  C10 UNL     1      13.162  20.520  18.087  1.00  0.00     0.045 A
HETATM    4  C11 UNL     1      13.883  19.813  17.061  1.00  0.00     0.031 A
HETATM    5  C12 UNL     1      15.364  19.937  16.952  1.00  0.00     0.041 C
HETATM    6  C13 UNL     1      15.953  20.977  17.860  1.00  0.00     0.164 C
HETATM    7  C23 UNL     1      13.235  19.080  18.221  1.00  0.00     0.068 A
ENDROOT
BRANCH   6   8
HETATM    8  C14 UNL     1      17.308  21.342  17.572  1.00  0.00     0.205 C
HETATM    9  O3  UNL     1      18.014  20.969  16.640  1.00  0.00    -0.288 OA
BRANCH   8  10
HETATM   10  C15 UNL     1      17.988  22.303  18.496  1.00  0.00     0.123 A
HETATM   11  N3  UNL     1      18.824  23.267  18.161  1.00  0.00    -0.343 N
HETATM   12  C16 UNL     1      19.317  24.045  19.069  1.00  0.00     0.108 A
ATOM     13  H3  UNL     1      19.081  23.400  17.183  1.00  0.00     0.167 HD
HETATM   14  C22 UNL     1      18.930  23.814  20.369  1.00  0.00     0.087 A
HETATM   15  S2  UNL     1      17.877  22.485  20.183  1.00  0.00    -0.078 SA
BRANCH  12  16
HETATM   16  C17 UNL     1      20.258  25.149  18.742  1.00  0.00     0.269 C
HETATM   17  O4  UNL     1      20.629  25.881  19.694  1.00  0.00    -0.266 OA
HETATM   18  N4  UNL     1      20.690  25.331  17.416  1.00  0.00    -0.348 N
ATOM     19  H4  UNL     1      20.364  24.713  16.673  1.00  0.00     0.163 HD
BRANCH  18  20
HETATM   20  C18 UNL     1      21.601  26.408  17.129  1.00  0.00     0.022 C
HETATM   21  C19 UNL     1      22.043  26.354  15.676  1.00  0.00     0.037 C
HETATM   22  C20 UNL     1      20.901  27.758  17.321  1.00  0.00     0.037 C
HETATM   23  C21 UNL     1      22.828  26.381  18.008  1.00  0.00     0.037 C
ENDBRANCH  18  20
ENDBRANCH  12  16
ENDBRANCH   8  10
ENDBRANCH   6   8
BRANCH   1  24
HETATM   24  C8  UNL     1      14.943  23.265  17.385  1.00  0.00     0.162 C
BRANCH  24  25
HETATM   25  C4  UNL     1      14.764  23.792  16.036  1.00  0.00     0.064 C
BRANCH  25  26
HETATM   26  N1  UNL     1      16.033  23.621  15.305  1.00  0.00    -0.323 N
HETATM   27  C3  UNL     1      17.096  24.502  15.519  1.00  0.00     0.244 C
HETATM   28  O1  UNL     1      17.002  25.477  16.350  1.00  0.00    -0.268 OA
ATOM     29  H1  UNL     1      16.136  22.856  14.639  1.00  0.00     0.169 HD
BRANCH  27  30
HETATM   30  C2  UNL     1      18.377  24.383  14.821  1.00  0.00     0.064 C
HETATM   31  C1  UNL     1      18.824  25.372  14.074  1.00  0.00     0.017 C
ENDBRANCH  27  30
ENDBRANCH  25  26
BRANCH  25  32
HETATM   32  C5  UNL     1      13.581  23.619  15.216  1.00  0.00     0.072 C
BRANCH  32  33
HETATM   33  C6  UNL     1      13.465  22.310  14.515  1.00  0.00     0.079 C
BRANCH  33  34
HETATM   34  S1  UNL     1      11.731  21.735  14.636  1.00  0.00    -0.173 SA
HETATM   35  C7  UNL     1      11.574  19.989  14.237  1.00  0.00     0.089 C
ENDBRANCH  33  34
ENDBRANCH  32  33
ENDBRANCH  25  32
ENDBRANCH  24  25
BRANCH  24  36
HETATM   36  O2  UNL     1      15.147  24.303  18.222  1.00  0.00    -0.345 OA
ATOM     37  H2  UNL     1      15.442  23.960  19.057  1.00  0.00     0.219 HD
ENDBRANCH  24  36
ENDBRANCH   1  24
BRANCH   7  38
HETATM   38  O5  UNL     1      12.029  18.362  17.903  1.00  0.00    -0.389 OA
ATOM     39  H5  UNL     1      12.068  17.814  17.129  1.00  0.00     0.210 HD
ENDBRANCH   7  38
BRANCH   7  40
HETATM   40  C24 UNL     1      14.075  18.292  19.155  1.00  0.00     0.038 C
BRANCH  40  41
HETATM   41  C25 UNL     1      13.594  18.516  20.608  1.00  0.00    -0.002 C
HETATM   42  C26 UNL     1      12.367  17.679  20.891  1.00  0.00     0.005 C
ENDBRANCH  40  41
ENDBRANCH   7  40
TORSDOF 15
ENDMDL