MODEL 2
REMARK VINA RESULT: -9.558772569      3.102      9.014
REMARK  11 active torsions:
REMARK  status: ('A' for Active; 'I' for Inactive)
REMARK    1  A    between atoms: C6_6  and  N1_7
REMARK    2  A    between atoms: N2_10  and  C9_11
REMARK    3  A    between atoms: C9_11  and  C10_12
REMARK    4  A    between atoms: C10_12  and  C11_13
REMARK    5  A    between atoms: C11_13  and  O1_14
REMARK    6  A    between atoms: O1_14  and  C12_15
REMARK    7  A    between atoms: C13_18  and  N4_19
REMARK    8  A    between atoms: C16_22  and  C17_23
REMARK    9  A    between atoms: C21_32  and  C22_33
REMARK   10  A    between atoms: C22_33  and  C23_34
REMARK   11  A    between atoms: C23_34  and  C24_35
ROOT
HETATM    1  C12 UNL     1      16.615  21.520  16.695  1.00  0.00     0.169 A
HETATM    2  N3  UNL     1      17.681  21.986  17.352  1.00  0.00    -0.170 N
ATOM      3  H3  UNL     1      18.477  22.318  16.808  1.00  0.00     0.186 HD
HETATM    4  C13 UNL     1      17.757  22.039  18.694  1.00  0.00     0.685 A
HETATM    5  N5  UNL     1      16.679  21.591  19.378  1.00  0.00    -0.155 N
ATOM      6  H5  UNL     1      16.703  21.618  20.397  1.00  0.00     0.187 HD
HETATM    7  C20 UNL     1      15.579  21.112  18.771  1.00  0.00     0.270 A
HETATM    8  O4  UNL     1      14.575  20.695  19.411  1.00  0.00    -0.267 OA
HETATM    9  C21 UNL     1      15.507  21.060  17.393  1.00  0.00     0.062 A
ENDROOT
BRANCH   1  10
HETATM   10  O1  UNL     1      16.551  21.471  15.298  1.00  0.00    -0.335 OA
BRANCH  10  11
HETATM   11  C11 UNL     1      16.272  22.658  14.617  1.00  0.00     0.179 C
BRANCH  11  12
HETATM   12  C10 UNL     1      16.693  23.886  15.393  1.00  0.00     0.046 C
BRANCH  12  13
HETATM   13  C9  UNL     1      17.728  24.692  14.672  1.00  0.00     0.124 C
BRANCH  13  14
HETATM   14  N2  UNL     1      18.826  24.961  15.520  1.00  0.00    -0.390 N
HETATM   15  C8  UNL     1      18.849  26.199  16.198  1.00  0.00     0.141 C
HETATM   16  C7  UNL     1      20.154  26.580  16.803  1.00  0.00     0.143 C
HETATM   17  N1  UNL     1      21.224  26.406  15.849  1.00  0.00    -0.374 N
HETATM   18  C26 UNL     1      21.245  25.169  15.104  1.00  0.00     0.167 C
HETATM   19  C25 UNL     1      20.052  24.319  15.265  1.00  0.00     0.078 C
BRANCH  17  20
HETATM   20  C6  UNL     1      22.225  27.415  15.657  1.00  0.00     0.042 A
HETATM   21  C4  UNL     1      22.121  28.380  14.690  1.00  0.00    -0.034 A
HETATM   22  C3  UNL     1      23.088  29.343  14.519  1.00  0.00     0.015 A
HETATM   23  C5  UNL     1      20.946  28.400  13.805  1.00  0.00     0.050 C
HETATM   24  C2  UNL     1      24.213  29.371  15.327  1.00  0.00    -0.061 A
HETATM   25  C1  UNL     1      25.275  30.401  15.150  1.00  0.00     0.048 C
HETATM   26  C29 UNL     1      24.317  28.396  16.302  1.00  0.00     0.015 A
HETATM   27  C27 UNL     1      23.345  27.425  16.478  1.00  0.00    -0.034 A
HETATM   28  C28 UNL     1      23.532  26.424  17.539  1.00  0.00     0.050 C
ENDBRANCH  17  20
ENDBRANCH  13  14
ENDBRANCH  12  13
ENDBRANCH  11  12
ENDBRANCH  10  11
ENDBRANCH   1  10
BRANCH   9  29
HETATM   29  C22 UNL     1      14.328  20.542  16.662  1.00  0.00     0.059 C
BRANCH  29  30
HETATM   30  C23 UNL     1      13.290  21.604  16.403  1.00  0.00     0.118 C
BRANCH  30  31
HETATM   31  C24 UNL     1      12.725  21.361  15.037  1.00  0.00     0.172 C
HETATM   32  O5  UNL     1      11.760  22.011  14.577  1.00  0.00    -0.648 OA
HETATM   33  O6  UNL     1      13.282  20.365  14.215  1.00  0.00    -0.648 OA
ENDBRANCH  30  31
ENDBRANCH  29  30
ENDBRANCH   9  29
BRANCH   4  34
HETATM   34  N4  UNL     1      18.911  22.544  19.376  1.00  0.00    -0.217 N
HETATM   35  C14 UNL     1      19.602  23.645  18.798  1.00  0.00     0.142 C
HETATM   36  C15 UNL     1      20.646  24.290  19.626  1.00  0.00     0.036 C
HETATM   37  C16 UNL     1      20.942  23.657  20.931  1.00  0.00     0.090 C
HETATM   38  C18 UNL     1      19.731  22.998  21.567  1.00  0.00     0.036 C
HETATM   39  C19 UNL     1      19.305  21.896  20.618  1.00  0.00     0.142 C
BRANCH  37  40
HETATM   40  C17 UNL     1      21.622  24.597  21.845  1.00  0.00     0.177 C
HETATM   41  O2  UNL     1      20.989  25.385  22.573  1.00  0.00    -0.648 OA
HETATM   42  O3  UNL     1      23.010  24.596  21.891  1.00  0.00    -0.648 OA
ENDBRANCH  37  40
ENDBRANCH   4  34
TORSDOF 11
ENDMDL