MODEL 3
REMARK VINA RESULT: -9.417262482      2.556      4.016
REMARK  13 active torsions:
REMARK  status: ('A' for Active; 'I' for Inactive)
REMARK    1  A    between atoms: O1_2  and  C2_3
REMARK    2  A    between atoms: C4_5  and  C5_6
REMARK    3  A    between atoms: C5_6  and  C6_7
REMARK    4  A    between atoms: C6_7  and  N1_8
REMARK    5  A    between atoms: C8_13  and  N3_14
REMARK    6  A    between atoms: N3_14  and  C9_16
REMARK    7  A    between atoms: C9_16  and  C10_17
REMARK    8  A    between atoms: C10_17  and  N4_18
REMARK    9  A    between atoms: C13_23  and  N6_24
REMARK   10  A    between atoms: N6_24  and  C14_26
REMARK   11  A    between atoms: C14_26  and  C15_27
REMARK   12  A    between atoms: C22_36  and  C23_37
REMARK   13  A    between atoms: C28_43  and  O3_44
ROOT
HETATM    1  N1  UNL     1      18.425  22.372  19.722  1.00  0.00    -0.204 N
ATOM      2  H1  UNL     1      18.643  21.734  20.487  1.00  0.00     0.183 HD
HETATM    3  C7  UNL     1      19.326  23.232  19.572  1.00  0.00     0.710 A
HETATM    4  N2  UNL     1      20.388  23.146  20.439  1.00  0.00    -0.021 N
ATOM      5  H2  UNL     1      20.398  22.412  21.147  1.00  0.00     0.203 HD
HETATM    6  C8  UNL     1      21.407  24.005  20.374  1.00  0.00     0.707 A
HETATM    7  N5  UNL     1      21.388  24.985  19.426  1.00  0.00    -0.022 N
ATOM      8  H5  UNL     1      22.167  25.642  19.376  1.00  0.00     0.203 HD
HETATM    9  C13 UNL     1      20.368  25.108  18.555  1.00  0.00     0.707 A
HETATM   10  N7  UNL     1      19.366  24.224  18.657  1.00  0.00    -0.021 N
ATOM     11  H7  UNL     1      18.587  24.305  18.005  1.00  0.00     0.203 HD
ENDROOT
BRANCH   1  12
HETATM   12  C6  UNL     1      17.208  22.054  19.123  1.00  0.00     0.083 C
BRANCH  12  13
HETATM   13  C5  UNL     1      17.322  21.252  17.846  1.00  0.00     0.083 C
BRANCH  13  14
HETATM   14  C4  UNL     1      15.930  21.079  17.291  1.00  0.00    -0.050 A
HETATM   15  C3  UNL     1      15.555  21.502  16.046  1.00  0.00     0.047 A
HETATM   16  C2  UNL     1      14.267  21.326  15.599  1.00  0.00     0.102 A
HETATM   17  C28 UNL     1      13.320  20.698  16.438  1.00  0.00     0.108 A
HETATM   18  C22 UNL     1      13.655  20.264  17.680  1.00  0.00    -0.017 A
HETATM   19  C21 UNL     1      14.963  20.465  18.085  1.00  0.00     0.018 A
BRANCH  16  20
HETATM   20  O1  UNL     1      13.864  21.749  14.341  1.00  0.00    -0.353 OA
HETATM   21  C1  UNL     1      14.691  21.447  13.238  1.00  0.00     0.210 C
ENDBRANCH  16  20
BRANCH  17  22
HETATM   22  O3  UNL     1      12.055  20.564  15.936  1.00  0.00    -0.353 OA
HETATM   23  C29 UNL     1      11.754  19.627  14.946  1.00  0.00     0.210 C
ENDBRANCH  17  22
BRANCH  18  24
HETATM   24  C23 UNL     1      12.722  19.597  18.571  1.00  0.00     0.025 C
HETATM   25  C24 UNL     1      13.472  19.283  19.905  1.00  0.00     0.036 C
HETATM   26  C25 UNL     1      12.405  18.837  20.863  1.00  0.00     0.168 C
HETATM   27  O2  UNL     1      11.169  18.682  20.250  1.00  0.00    -0.391 OA
HETATM   28  C26 UNL     1      11.210  17.809  19.169  1.00  0.00     0.168 C
HETATM   29  C27 UNL     1      12.284  18.208  18.146  1.00  0.00     0.036 C
ENDBRANCH  18  24
ENDBRANCH  13  14
ENDBRANCH  12  13
ENDBRANCH   1  12
BRANCH   6  30
HETATM   30  N3  UNL     1      22.410  23.932  21.178  1.00  0.00    -0.223 N
ATOM     31  H3  UNL     1      22.263  23.385  22.027  1.00  0.00     0.177 HD
BRANCH  30  32
HETATM   32  C9  UNL     1      23.693  24.520  21.028  1.00  0.00     0.168 C
BRANCH  32  33
HETATM   33  C10 UNL     1      24.588  23.716  20.102  1.00  0.00     0.291 C
BRANCH  33  34
HETATM   34  N4  UNL     1      25.623  24.540  19.507  1.00  0.00     0.081 N
HETATM   35  C11 UNL     1      26.417  23.819  18.550  1.00  0.00     0.309 C
HETATM   36  C12 UNL     1      24.902  25.587  18.764  1.00  0.00     0.309 C
ENDBRANCH  33  34
ENDBRANCH  32  33
ENDBRANCH  30  32
ENDBRANCH   6  30
BRANCH   9  37
HETATM   37  N6  UNL     1      20.360  26.033  17.665  1.00  0.00    -0.225 N
ATOM     38  H6  UNL     1      19.554  26.659  17.666  1.00  0.00     0.177 HD
BRANCH  37  39
HETATM   39  C14 UNL     1      21.361  26.279  16.672  1.00  0.00     0.142 C
BRANCH  39  40
HETATM   40  C15 UNL     1      20.774  26.214  15.274  1.00  0.00     0.004 C
HETATM   41  C16 UNL     1      19.502  27.002  15.193  1.00  0.00     0.006 C
HETATM   42  C17 UNL     1      18.756  26.621  13.899  1.00  0.00     0.000 C
HETATM   43  C18 UNL     1      18.127  25.285  14.180  1.00  0.00     0.000 C
HETATM   44  C19 UNL     1      19.041  24.432  15.039  1.00  0.00     0.000 C
HETATM   45  C20 UNL     1      20.494  24.776  14.876  1.00  0.00     0.006 C
ENDBRANCH  39  40
ENDBRANCH  37  39
ENDBRANCH   9  37
TORSDOF 13
ENDMDL