MODEL 1
REMARK VINA RESULT: -9.616172815      0.000      0.000
REMARK  11 active torsions:
REMARK  status: ('A' for Active; 'I' for Inactive)
REMARK    1  A    between atoms: C2_2  and  N1_3
REMARK    2  A    between atoms: N2_6  and  C5_7
REMARK    3  A    between atoms: C5_7  and  C6_8
REMARK    4  A    between atoms: C6_8  and  C7_9
REMARK    5  A    between atoms: C7_9  and  N3_10
REMARK       I    between atoms: N3_10  and  C8_12
REMARK    6  A    between atoms: C8_12  and  C9_14
REMARK    7  A    between atoms: C11_16  and  C12_17
REMARK    8  A    between atoms: N4_20  and  C15_21
REMARK    9  A    between atoms: C15_21  and  C16_22
REMARK   10  A    between atoms: C20_28  and  O2_29
REMARK   11  A    between atoms: O2_29  and  C21_30
ROOT
HETATM    1  C12 UNL     1      20.020  23.280  21.630  1.00  0.00     0.040 C
HETATM    2  C13 UNL     1      19.876  21.953  20.958  1.00  0.00     0.030 C
HETATM    3  C14 UNL     1      18.386  21.704  20.816  1.00  0.00     0.118 C
HETATM    4  N4  UNL     1      17.909  22.592  19.810  1.00  0.00    -0.408 N
HETATM    5  C27 UNL     1      18.141  23.972  20.082  1.00  0.00     0.118 C
HETATM    6  C28 UNL     1      18.988  24.286  21.261  1.00  0.00     0.030 C
ENDROOT
BRANCH   1   7
HETATM    7  C11 UNL     1      21.364  23.842  21.248  1.00  0.00     0.032 A
HETATM    8  C10 UNL     1      21.712  24.541  20.131  1.00  0.00     0.063 A
HETATM    9  C9  UNL     1      23.060  24.837  20.217  1.00  0.00     0.117 A
HETATM   10  N8  UNL     1      23.505  24.326  21.360  1.00  0.00    -0.295 N
HETATM   11  N7  UNL     1      22.490  23.731  21.975  1.00  0.00    -0.304 N
ATOM     12  H8  UNL     1      24.463  24.381  21.706  1.00  0.00     0.187 HD
ATOM     13  H7  UNL     1      22.555  23.255  22.875  1.00  0.00     0.186 HD
BRANCH   9  14
HETATM   14  C8  UNL     1      23.872  25.567  19.257  1.00  0.00     0.269 C
HETATM   15  N3  UNL     1      23.306  25.899  18.004  1.00  0.00    -0.356 N
ATOM     16  H3  UNL     1      22.346  25.627  17.797  1.00  0.00     0.162 HD
HETATM   17  O1  UNL     1      25.052  25.898  19.532  1.00  0.00    -0.266 OA
BRANCH  15  18
HETATM   18  C7  UNL     1      24.073  26.620  17.014  1.00  0.00     0.125 C
BRANCH  18  19
HETATM   19  C6  UNL     1      23.178  27.412  16.072  1.00  0.00     0.050 C
BRANCH  19  20
HETATM   20  C5  UNL     1      21.948  26.592  15.731  1.00  0.00     0.274 C
BRANCH  20  21
HETATM   21  N2  UNL     1      20.757  27.281  16.108  1.00  0.00     0.091 N
HETATM   22  C4  UNL     1      19.892  27.398  14.955  1.00  0.00     0.291 C
HETATM   23  C3  UNL     1      19.423  26.030  14.562  1.00  0.00     0.147 C
HETATM   24  N1  UNL     1      18.823  25.278  15.613  1.00  0.00    -0.409 N
HETATM   25  C30 UNL     1      19.461  25.351  16.886  1.00  0.00     0.147 C
HETATM   26  C29 UNL     1      20.016  26.725  17.189  1.00  0.00     0.291 C
BRANCH  24  27
HETATM   27  C2  UNL     1      17.389  25.356  15.638  1.00  0.00     0.112 C
HETATM   28  C1  UNL     1      16.938  25.410  17.083  1.00  0.00     0.026 C
ENDBRANCH  24  27
ENDBRANCH  20  21
ENDBRANCH  19  20
ENDBRANCH  18  19
ENDBRANCH  15  18
ENDBRANCH   9  14
ENDBRANCH   1   7
BRANCH   4  29
HETATM   29  C15 UNL     1      18.117  22.205  18.458  1.00  0.00     0.157 C
BRANCH  29  30
HETATM   30  C16 UNL     1      16.849  21.712  17.868  1.00  0.00    -0.023 A
HETATM   31  C17 UNL     1      16.515  21.866  16.535  1.00  0.00     0.097 A
HETATM   32  N5  UNL     1      15.353  21.406  16.041  1.00  0.00    -0.367 N
HETATM   33  C18 UNL     1      14.447  20.772  16.796  1.00  0.00     0.038 A
ATOM     34  H5  UNL     1      15.154  21.547  15.051  1.00  0.00     0.165 HD
HETATM   35  C19 UNL     1      13.159  20.267  16.232  1.00  0.00     0.071 C
HETATM   36  C20 UNL     1      14.746  20.595  18.155  1.00  0.00     0.092 A
HETATM   37  C26 UNL     1      15.926  21.055  18.689  1.00  0.00     0.049 A
BRANCH  36  38
HETATM   38  O2  UNL     1      13.795  19.943  18.895  1.00  0.00    -0.344 OA
BRANCH  38  39
HETATM   39  C21 UNL     1      13.935  18.853  19.737  1.00  0.00     0.132 C
HETATM   40  C22 UNL     1      13.862  17.537  18.964  1.00  0.00     0.060 C
HETATM   41  C23 UNL     1      12.479  17.419  18.401  1.00  0.00     0.235 C
HETATM   42  N6  UNL     1      11.540  17.271  19.476  1.00  0.00    -0.075 N
HETATM   43  C24 UNL     1      11.528  18.465  20.302  1.00  0.00     0.235 C
ATOM     44  H62 UNL     1      10.608  17.032  19.138  1.00  0.00     0.277 HD
ATOM     45  H61 UNL     1      11.720  16.431  20.026  1.00  0.00     0.277 HD
HETATM   46  C25 UNL     1      12.887  18.806  20.832  1.00  0.00     0.060 C
ENDBRANCH  38  39
ENDBRANCH  36  38
ENDBRANCH  29  30
ENDBRANCH   4  29
TORSDOF 11
ENDMDL