MODEL 2
REMARK VINA RESULT: -7.977890871      2.254      3.592
REMARK  11 active torsions:
REMARK  status: ('A' for Active; 'I' for Inactive)
REMARK    1  A    between atoms: C3_3  and  C4_4
REMARK    2  A    between atoms: C5_5  and  C6_6
REMARK    3  A    between atoms: C7_7  and  C8_8
REMARK    4  A    between atoms: C10_10  and  C11_11
REMARK    5  A    between atoms: C16_19  and  O2_20
REMARK    6  A    between atoms: C18_22  and  O3_23
REMARK    7  A    between atoms: N2_30  and  C22_31
REMARK    8  A    between atoms: C22_31  and  C23_32
REMARK    9  A    between atoms: C22_31  and  C26_37
REMARK   10  A    between atoms: C23_32  and  C24_33
REMARK   11  A    between atoms: C24_33  and  C25_34
ROOT
HETATM    1  C11 UNL     1      17.497  23.574  15.776  1.00  0.00     0.196 C
HETATM    2  C12 UNL     1      17.974  24.499  14.723  1.00  0.00     0.171 C
HETATM    3  O1  UNL     1      18.920  24.041  14.066  1.00  0.00    -0.294 OA
HETATM    4  C13 UNL     1      17.682  25.862  14.164  1.00  0.00     0.200 C
HETATM    5  N1  UNL     1      18.742  26.746  14.623  1.00  0.00    -0.382 N
ATOM      6  H1  UNL     1      18.903  27.536  13.999  1.00  0.00     0.160 HD
HETATM    7  C14 UNL     1      19.613  26.743  15.772  1.00  0.00     0.054 A
HETATM    8  C15 UNL     1      20.698  27.518  15.420  1.00  0.00     0.070 A
HETATM    9  C16 UNL     1      21.715  27.699  16.323  1.00  0.00     0.103 A
HETATM   10  C18 UNL     1      21.642  27.109  17.567  1.00  0.00     0.103 A
HETATM   11  C20 UNL     1      20.544  26.342  17.886  1.00  0.00     0.067 A
HETATM   12  C21 UNL     1      19.503  26.139  17.003  1.00  0.00     0.109 A
HETATM   13  S1  UNL     1      18.306  25.133  17.779  1.00  0.00     0.268 S
HETATM   14  O4  UNL     1      18.670  25.035  19.228  1.00  0.00    -0.200 OA
HETATM   15  O5  UNL     1      16.957  25.849  17.775  1.00  0.00    -0.200 OA
HETATM   16  N2  UNL     1      18.170  23.684  17.004  1.00  0.00    -0.253 N
ENDROOT
BRANCH   1  17
HETATM   17  C10 UNL     1      16.017  23.656  15.844  1.00  0.00     0.014 C
HETATM   18  C8  UNL     1      15.236  22.916  15.066  1.00  0.00    -0.063 C
HETATM   19  C9  UNL     1      15.832  21.974  14.098  1.00  0.00     0.048 C
BRANCH  18  20
HETATM   20  C7  UNL     1      13.793  23.022  15.162  1.00  0.00     0.006 C
HETATM   21  C6  UNL     1      12.919  22.191  14.634  1.00  0.00     0.001 C
BRANCH  21  22
HETATM   22  C5  UNL     1      11.482  22.414  14.805  1.00  0.00     0.000 C
HETATM   23  C4  UNL     1      10.565  21.487  14.817  1.00  0.00    -0.000 C
BRANCH  23  24
HETATM   24  C3  UNL     1      10.863  20.104  14.659  1.00  0.00    -0.004 C
HETATM   25  C2  UNL     1      10.904  19.280  15.719  1.00  0.00    -0.031 C
HETATM   26  C1  UNL     1      10.631  19.827  17.078  1.00  0.00     0.036 C
ENDBRANCH  23  24
ENDBRANCH  21  22
ENDBRANCH  18  20
ENDBRANCH   1  17
BRANCH  16  27
HETATM   27  C22 UNL     1      18.363  22.459  17.733  1.00  0.00     0.100 C
BRANCH  27  28
HETATM   28  C23 UNL     1      18.449  22.756  19.188  1.00  0.00     0.075 C
BRANCH  28  29
HETATM   29  C24 UNL     1      18.978  21.752  20.128  1.00  0.00     0.119 C
BRANCH  29  30
HETATM   30  C25 UNL     1      20.015  22.174  21.076  1.00  0.00     0.172 C
HETATM   31  O6  UNL     1      20.929  22.964  20.758  1.00  0.00    -0.648 OA
HETATM   32  O7  UNL     1      20.017  21.701  22.386  1.00  0.00    -0.648 OA
ENDBRANCH  29  30
ENDBRANCH  28  29
ENDBRANCH  27  28
BRANCH  27  33
HETATM   33  C26 UNL     1      17.610  21.322  17.320  1.00  0.00     0.223 C
HETATM   34  O8  UNL     1      18.019  20.459  16.465  1.00  0.00    -0.643 OA
HETATM   35  O9  UNL     1      16.325  21.012  17.815  1.00  0.00    -0.643 OA
ENDBRANCH  27  33
ENDBRANCH  16  27
BRANCH  10  36
HETATM   36  O3  UNL     1      22.659  27.282  18.488  1.00  0.00    -0.353 OA
HETATM   37  C19 UNL     1      23.777  26.433  18.533  1.00  0.00     0.210 C
ENDBRANCH  10  36
BRANCH   9  38
HETATM   38  O2  UNL     1      22.843  28.480  16.010  1.00  0.00    -0.353 OA
HETATM   39  C17 UNL     1      22.829  29.239  14.804  1.00  0.00     0.210 C
ENDBRANCH   9  38
TORSDOF 11
ENDMDL