MODEL 1
REMARK VINA RESULT: -7.737944801      0.000      0.000
REMARK  12 active torsions:
REMARK  status: ('A' for Active; 'I' for Inactive)
REMARK    1  A    between atoms: C2_2  and  C3_3
REMARK    2  A    between atoms: C3_3  and  C4_5
REMARK       I    between atoms: N2_14  and  C11_16
REMARK    3  A    between atoms: C11_16  and  C12_18
REMARK    4  A    between atoms: N3_22  and  C16_23
REMARK    5  A    between atoms: C16_23  and  C17_24
REMARK    6  A    between atoms: C18_26  and  O4_27
REMARK    7  A    between atoms: O4_27  and  C19_28
REMARK    8  A    between atoms: C19_28  and  C20_29
REMARK    9  A    between atoms: C20_29  and  C21_30
REMARK   10  A    between atoms: C21_30  and  N4_31
REMARK   11  A    between atoms: N4_31  and  C22_34
REMARK   12  A    between atoms: C27_39  and  O5_40
ROOT
HETATM    1  C12 UNL     1      25.302  25.177  18.521  1.00  0.00     0.314 C
HETATM    2  C13 UNL     1      26.638  24.551  18.203  1.00  0.00     0.047 C
HETATM    3  C14 UNL     1      26.986  25.177  16.890  1.00  0.00     0.033 C
HETATM    4  C15 UNL     1      25.944  26.245  16.636  1.00  0.00     0.273 C
HETATM    5  N3  UNL     1      25.484  26.556  18.001  1.00  0.00     0.104 N
ENDROOT
BRANCH   1   6
HETATM    6  C11 UNL     1      25.071  25.182  19.992  1.00  0.00     0.257 C
HETATM    7  N2  UNL     1      23.971  24.755  20.644  1.00  0.00    -0.305 N
HETATM    8  C10 UNL     1      22.740  24.526  20.404  1.00  0.00     0.151 A
ATOM      9  H2  UNL     1      24.188  24.556  21.621  1.00  0.00     0.171 HD
HETATM   10  N1  UNL     1      22.011  24.638  19.297  1.00  0.00    -0.339 N
HETATM   11  S1  UNL     1      21.555  23.956  21.547  1.00  0.00    -0.056 SA
HETATM   12  C9  UNL     1      20.739  24.334  19.322  1.00  0.00     0.025 A
ATOM     13  H1  UNL     1      22.442  24.959  18.431  1.00  0.00     0.168 HD
HETATM   14  C8  UNL     1      19.882  24.458  18.066  1.00  0.00     0.058 C
HETATM   15  C28 UNL     1      20.209  23.905  20.511  1.00  0.00     0.020 A
HETATM   16  C7  UNL     1      18.708  25.372  18.347  1.00  0.00     0.006 C
HETATM   17  C6  UNL     1      17.601  24.516  18.930  1.00  0.00     0.001 C
HETATM   18  C5  UNL     1      17.789  24.459  20.407  1.00  0.00     0.018 C
HETATM   19  C4  UNL     1      18.812  23.486  20.873  1.00  0.00     0.097 C
HETATM   20  O2  UNL     1      26.043  25.649  20.693  1.00  0.00    -0.271 OA
BRANCH  19  21
HETATM   21  C3  UNL     1      18.567  22.090  20.466  1.00  0.00     0.135 C
HETATM   22  O1  UNL     1      19.494  21.307  20.496  1.00  0.00    -0.297 OA
BRANCH  21  23
HETATM   23  C2  UNL     1      17.240  21.614  20.024  1.00  0.00     0.074 C
HETATM   24  C1  UNL     1      17.303  21.275  18.553  1.00  0.00     0.013 C
ENDBRANCH  21  23
ENDBRANCH  19  21
ENDBRANCH   1   6
BRANCH   5  25
HETATM   25  C16 UNL     1      24.172  27.191  17.935  1.00  0.00     0.307 C
BRANCH  25  26
HETATM   26  C17 UNL     1      23.533  26.905  16.613  1.00  0.00     0.181 C
HETATM   27  O3  UNL     1      22.345  26.265  16.674  1.00  0.00    -0.352 OA
HETATM   28  C18 UNL     1      21.385  26.950  15.989  1.00  0.00     0.262 C
HETATM   29  C26 UNL     1      21.869  28.388  15.873  1.00  0.00     0.095 C
HETATM   30  C27 UNL     1      23.366  28.156  15.778  1.00  0.00     0.153 C
BRANCH  28  31
HETATM   31  O4  UNL     1      21.159  26.383  14.759  1.00  0.00    -0.361 OA
BRANCH  31  32
HETATM   32  C19 UNL     1      20.061  25.572  14.657  1.00  0.00     0.172 C
BRANCH  32  33
HETATM   33  C20 UNL     1      18.767  26.278  14.448  1.00  0.00     0.054 C
BRANCH  33  34
HETATM   34  C21 UNL     1      17.580  25.565  15.009  1.00  0.00     0.235 C
BRANCH  34  35
HETATM   35  N4  UNL     1      17.518  24.188  14.550  1.00  0.00    -0.071 N
ATOM     36  H42 UNL     1      17.019  24.109  13.664  1.00  0.00     0.277 HD
ATOM     37  H41 UNL     1      18.431  23.852  14.245  1.00  0.00     0.277 HD
BRANCH  35  38
HETATM   38  C22 UNL     1      16.941  23.325  15.569  1.00  0.00     0.185 C
HETATM   39  C23 UNL     1      16.241  22.121  14.979  1.00  0.00     0.033 C
HETATM   40  C24 UNL     1      14.964  22.923  14.974  1.00  0.00     0.004 C
HETATM   41  C25 UNL     1      15.587  23.793  16.066  1.00  0.00     0.033 C
ENDBRANCH  35  38
ENDBRANCH  34  35
ENDBRANCH  33  34
ENDBRANCH  32  33
ENDBRANCH  31  32
ENDBRANCH  28  31
BRANCH  30  42
HETATM   42  O5  UNL     1      24.087  29.234  16.289  1.00  0.00    -0.393 OA
ATOM     43  H5  UNL     1      23.642  30.063  16.154  1.00  0.00     0.210 HD
ENDBRANCH  30  42
ENDBRANCH  25  26
ENDBRANCH   5  25
TORSDOF 12
ENDMDL