MODEL 2
REMARK VINA RESULT: -9.371138278      0.849      1.173
REMARK  11 active torsions:
REMARK  status: ('A' for Active; 'I' for Inactive)
REMARK    1  A    between atoms: C3_3  and  O1_4
REMARK    2  A    between atoms: O1_4  and  C4_5
REMARK       I    between atoms: N2_12  and  C9_14
REMARK    3  A    between atoms: C9_14  and  C10_16
REMARK    4  A    between atoms: C10_16  and  C11_17
REMARK    5  A    between atoms: C11_17  and  C12_18
REMARK    6  A    between atoms: C12_18  and  C13_19
REMARK    7  A    between atoms: C13_19  and  N3_20
REMARK    8  A    between atoms: C18_28  and  C19_29
REMARK    9  A    between atoms: N6_35  and  C23_37
REMARK   10  A    between atoms: C23_37  and  C24_38
REMARK   11  A    between atoms: C24_38  and  N7_39
ROOT
HETATM    1  C1  UNL     1      18.979  24.065  15.413  1.00  0.00     0.055 C
HETATM    2  C2  UNL     1      19.041  23.855  16.860  1.00  0.00     0.016 A
HETATM    3  C3  UNL     1      18.592  22.745  17.472  1.00  0.00     0.089 A
HETATM    4  C17 UNL     1      18.750  22.651  18.876  1.00  0.00     0.063 A
HETATM    5  C18 UNL     1      19.342  23.667  19.572  1.00  0.00     0.017 A
HETATM    6  N5  UNL     1      19.787  24.776  18.957  1.00  0.00    -0.345 N
ATOM      7  H5  UNL     1      20.227  25.529  19.486  1.00  0.00     0.167 HD
HETATM    8  C22 UNL     1      19.638  24.862  17.632  1.00  0.00     0.110 A
HETATM    9  N6  UNL     1      20.057  25.917  17.029  1.00  0.00    -0.374 N
ATOM     10  H6  UNL     1      19.932  25.963  16.017  1.00  0.00     0.161 HD
ENDROOT
BRANCH   3  11
HETATM   11  O1  UNL     1      17.991  21.690  16.845  1.00  0.00    -0.293 OA
BRANCH  11  12
HETATM   12  C4  UNL     1      16.662  21.420  16.829  1.00  0.00     0.149 A
HETATM   13  C5  UNL     1      15.783  22.106  15.973  1.00  0.00     0.059 A
HETATM   14  C6  UNL     1      14.447  21.875  15.917  1.00  0.00     0.037 A
HETATM   15  C7  UNL     1      13.860  20.894  16.750  1.00  0.00     0.068 A
HETATM   16  N1  UNL     1      12.589  20.559  16.809  1.00  0.00    -0.334 N
HETATM   17  C16 UNL     1      14.732  20.240  17.572  1.00  0.00     0.106 A
HETATM   18  C8  UNL     1      12.230  19.605  17.665  1.00  0.00     0.153 A
ATOM     19  H1  UNL     1      11.899  21.017  16.215  1.00  0.00     0.168 HD
HETATM   20  N2  UNL     1      11.026  19.147  17.856  1.00  0.00    -0.307 N
HETATM   21  S1  UNL     1      13.694  19.163  18.405  1.00  0.00    -0.034 SA
HETATM   22  C9  UNL     1      10.749  18.140  18.784  1.00  0.00     0.223 C
ATOM     23  H2  UNL     1      10.258  19.538  17.309  1.00  0.00     0.171 HD
HETATM   24  O2  UNL     1      10.791  18.461  20.003  1.00  0.00    -0.273 OA
HETATM   25  N4  UNL     1      16.080  20.510  17.594  1.00  0.00    -0.329 N
ATOM     26  H4  UNL     1      16.666  19.977  18.238  1.00  0.00     0.168 HD
BRANCH  22  27
HETATM   27  C10 UNL     1      10.417  16.753  18.436  1.00  0.00     0.103 C
BRANCH  27  28
HETATM   28  C11 UNL     1      10.918  16.243  17.151  1.00  0.00     0.011 C
BRANCH  28  29
HETATM   29  C12 UNL     1      10.071  15.393  16.306  1.00  0.00     0.031 C
BRANCH  29  30
HETATM   30  C13 UNL     1       9.812  15.814  14.909  1.00  0.00     0.271 C
BRANCH  30  31
HETATM   31  N3  UNL     1      11.036  15.769  14.106  1.00  0.00     0.080 N
HETATM   32  C14 UNL     1      10.916  16.879  13.139  1.00  0.00     0.309 C
HETATM   33  C15 UNL     1      10.994  14.559  13.290  1.00  0.00     0.309 C
ENDBRANCH  30  31
ENDBRANCH  29  30
ENDBRANCH  28  29
ENDBRANCH  27  28
ENDBRANCH  22  27
ENDBRANCH  11  12
ENDBRANCH   3  11
BRANCH   5  34
HETATM   34  C19 UNL     1      19.495  23.531  21.059  1.00  0.00     0.036 A
HETATM   35  C20 UNL     1      19.821  22.209  21.615  1.00  0.00     0.011 A
HETATM   36  C21 UNL     1      20.896  23.218  21.546  1.00  0.00     0.011 A
ENDBRANCH   5  34
BRANCH   9  37
HETATM   37  C23 UNL     1      20.684  27.028  17.670  1.00  0.00     0.151 C
BRANCH  37  38
HETATM   38  C24 UNL     1      22.184  27.045  17.598  1.00  0.00     0.292 C
BRANCH  38  39
HETATM   39  N7  UNL     1      22.662  27.521  16.319  1.00  0.00     0.093 N
HETATM   40  C25 UNL     1      23.941  28.141  16.470  1.00  0.00     0.300 C
HETATM   41  C26 UNL     1      24.426  28.857  15.229  1.00  0.00     0.262 C
HETATM   42  N8  UNL     1      23.394  29.694  14.652  1.00  0.00    -0.072 N
HETATM   43  C27 UNL     1      22.158  28.961  14.450  1.00  0.00     0.262 C
ATOM     44  H82 UNL     1      23.241  30.534  15.210  1.00  0.00     0.277 HD
ATOM     45  H81 UNL     1      23.712  30.133  13.787  1.00  0.00     0.277 HD
HETATM   46  C28 UNL     1      21.677  28.400  15.755  1.00  0.00     0.300 C
ENDBRANCH  38  39
ENDBRANCH  37  38
ENDBRANCH   9  37
TORSDOF 11
ENDMDL