MODEL 4
REMARK VINA RESULT: -8.813423043      1.781      2.673
REMARK  12 active torsions:
REMARK  status: ('A' for Active; 'I' for Inactive)
REMARK    1  A    between atoms: C2_2  and  C3_3
REMARK    2  A    between atoms: C6_6  and  C7_7
REMARK       I    between atoms: C7_7  and  N1_9
REMARK    3  A    between atoms: C9_16  and  C10_17
REMARK    4  A    between atoms: C10_17  and  C11_18
REMARK    5  A    between atoms: C11_18  and  S1_19
REMARK    6  A    between atoms: S1_19  and  C12_20
REMARK    7  A    between atoms: C12_20  and  C13_21
REMARK    8  A    between atoms: C13_21  and  C14_22
REMARK    9  A    between atoms: C15_27  and  N6_28
REMARK       I    between atoms: N6_28  and  C16_30
REMARK   10  A    between atoms: C16_30  and  C17_32
REMARK   11  A    between atoms: C17_32  and  C18_33
REMARK   12  A    between atoms: N9_40  and  C21_41
ROOT
HETATM    1  C12 UNL     1      15.236  21.450  19.387  1.00  0.00     0.081 C
ENDROOT
BRANCH   1   2
HETATM    2  S1  UNL     1      14.324  20.345  18.339  1.00  0.00    -0.168 SA
BRANCH   2   3
HETATM    3  C11 UNL     1      13.469  21.181  17.005  1.00  0.00     0.080 C
BRANCH   3   4
HETATM    4  C10 UNL     1      14.342  21.139  15.764  1.00  0.00     0.076 C
BRANCH   4   5
HETATM    5  C9  UNL     1      15.157  22.407  15.642  1.00  0.00     0.070 A
HETATM    6  N3  UNL     1      15.037  23.474  16.447  1.00  0.00    -0.296 N
HETATM    7  N2  UNL     1      15.738  24.489  16.310  1.00  0.00    -0.279 N
ATOM      8  H3  UNL     1      14.345  23.449  17.196  1.00  0.00     0.187 HD
HETATM    9  C8  UNL     1      16.671  24.508  15.291  1.00  0.00     0.168 A
ATOM     10  H2  UNL     1      15.629  25.289  16.934  1.00  0.00     0.189 HD
HETATM   11  N1  UNL     1      17.437  25.451  15.035  1.00  0.00    -0.302 N
HETATM   12  S2  UNL     1      16.391  22.937  14.609  1.00  0.00    -0.038 SA
HETATM   13  C7  UNL     1      18.405  25.747  14.149  1.00  0.00     0.257 C
ATOM     14  H1  UNL     1      17.290  26.225  15.683  1.00  0.00     0.171 HD
HETATM   15  O1  UNL     1      18.359  25.554  12.881  1.00  0.00    -0.267 OA
BRANCH  13  16
HETATM   16  C6  UNL     1      19.666  26.358  14.625  1.00  0.00     0.032 A
HETATM   17  C5  UNL     1      19.882  27.726  14.540  1.00  0.00     0.017 A
HETATM   18  C4  UNL     1      21.087  28.202  15.006  1.00  0.00     0.008 A
HETATM   19  C3  UNL     1      22.053  27.378  15.534  1.00  0.00    -0.059 A
HETATM   20  C24 UNL     1      21.855  26.020  15.624  1.00  0.00     0.008 A
HETATM   21  C23 UNL     1      20.623  25.546  15.148  1.00  0.00     0.017 A
BRANCH  19  22
HETATM   22  C2  UNL     1      23.314  27.963  16.023  1.00  0.00     0.034 C
HETATM   23  C1  UNL     1      24.251  26.809  16.356  1.00  0.00     0.010 C
ENDBRANCH  19  22
ENDBRANCH  13  16
ENDBRANCH   4   5
ENDBRANCH   3   4
ENDBRANCH   2   3
ENDBRANCH   1   2
BRANCH   1  24
HETATM   24  C13 UNL     1      16.719  21.548  19.026  1.00  0.00     0.089 C
BRANCH  24  25
HETATM   25  C14 UNL     1      17.281  22.820  19.587  1.00  0.00     0.115 A
HETATM   26  N4  UNL     1      16.752  24.032  19.544  1.00  0.00    -0.274 N
HETATM   27  N5  UNL     1      17.508  24.894  20.165  1.00  0.00    -0.130 N
ATOM     28  H4  UNL     1      15.869  24.261  19.087  1.00  0.00     0.189 HD
HETATM   29  C15 UNL     1      18.606  24.216  20.650  1.00  0.00     0.703 A
ATOM     30  H5  UNL     1      17.322  25.891  20.272  1.00  0.00     0.205 HD
HETATM   31  N9  UNL     1      18.452  22.941  20.285  1.00  0.00    -0.170 N
BRANCH  29  32
HETATM   32  N6  UNL     1      19.499  24.838  21.325  1.00  0.00    -0.158 N
HETATM   33  C16 UNL     1      20.824  25.144  21.025  1.00  0.00     0.241 C
HETATM   34  O2  UNL     1      21.163  26.122  20.312  1.00  0.00    -0.272 OA
ATOM     35  H6  UNL     1      19.187  25.165  22.240  1.00  0.00     0.187 HD
BRANCH  33  36
HETATM   36  C17 UNL     1      21.875  24.228  21.605  1.00  0.00     0.162 C
BRANCH  36  37
HETATM   37  C18 UNL     1      23.227  24.533  21.092  1.00  0.00     0.034 A
HETATM   38  C19 UNL     1      24.393  24.859  21.734  1.00  0.00     0.114 A
HETATM   39  N7  UNL     1      25.348  25.011  20.805  1.00  0.00    -0.360 N
HETATM   40  C20 UNL     1      24.827  24.791  19.599  1.00  0.00     0.180 A
ATOM     41  H7  UNL     1      26.319  25.257  20.993  1.00  0.00     0.166 HD
HETATM   42  N8  UNL     1      23.533  24.499  19.760  1.00  0.00    -0.354 N
ATOM     43  H8  UNL     1      22.877  24.286  19.009  1.00  0.00     0.166 HD
ENDBRANCH  36  37
ENDBRANCH  33  36
ENDBRANCH  29  32
BRANCH  31  44
HETATM   44  C21 UNL     1      19.314  21.816  20.517  1.00  0.00     0.144 C
HETATM   45  C22 UNL     1      19.443  21.457  21.991  1.00  0.00     0.027 C
ENDBRANCH  31  44
ENDBRANCH  24  25
ENDBRANCH   1  24
TORSDOF 12
ENDMDL