MODEL 2
REMARK VINA RESULT: -7.433455851      1.052      1.216
REMARK  16 active torsions:
REMARK  status: ('A' for Active; 'I' for Inactive)
REMARK    1  A    between atoms: C2_2  and  O1_3
REMARK    2  A    between atoms: O1_3  and  C3_4
REMARK    3  A    between atoms: C3_4  and  C4_5
REMARK    4  A    between atoms: C4_5  and  C5_6
REMARK    5  A    between atoms: C5_6  and  C6_8
REMARK    6  A    between atoms: C6_8  and  C7_9
REMARK    7  A    between atoms: C7_9  and  C8_10
REMARK    8  A    between atoms: C10_12  and  C11_13
REMARK    9  A    between atoms: C11_13  and  O3_15
REMARK   10  A    between atoms: C17_21  and  C18_22
REMARK   11  A    between atoms: C18_22  and  C19_23
REMARK   12  A    between atoms: C23_27  and  C24_28
REMARK   13  A    between atoms: C24_28  and  O5_30
REMARK   14  A    between atoms: C26_32  and  O6_33
REMARK   15  A    between atoms: C28_36  and  O7_37
REMARK   16  A    between atoms: C30_39  and  O8_40
ROOT
HETATM    1  C8  UNL     1      14.410  21.620  14.590  1.00  0.00    -0.033 C
HETATM    2  C9  UNL     1      14.766  21.427  13.081  1.00  0.00     0.016 C
HETATM    3  C10 UNL     1      14.054  22.986  14.800  1.00  0.00     0.028 C
HETATM    4  C13 UNL     1      14.987  23.614  15.845  1.00  0.00     0.011 C
HETATM    5  C14 UNL     1      16.306  23.988  15.181  1.00  0.00     0.001 C
HETATM    6  C15 UNL     1      16.604  22.588  14.599  1.00  0.00     0.012 C
HETATM    7  C16 UNL     1      15.741  21.621  15.399  1.00  0.00     0.008 C
HETATM    8  C17 UNL     1      15.493  22.405  16.648  1.00  0.00     0.004 C
HETATM    9  C23 UNL     1      16.656  22.694  17.514  1.00  0.00     0.039 C
HETATM   10  C26 UNL     1      17.233  24.074  17.379  1.00  0.00     0.097 C
HETATM   11  C27 UNL     1      18.569  24.341  17.908  1.00  0.00     0.078 C
HETATM   12  C28 UNL     1      18.920  25.661  17.191  1.00  0.00     0.153 C
HETATM   13  C30 UNL     1      17.906  25.787  16.038  1.00  0.00     0.154 C
HETATM   14  C31 UNL     1      17.446  24.363  15.929  1.00  0.00     0.060 C
ENDROOT
BRANCH   1  15
HETATM   15  C7  UNL     1      13.732  20.399  14.892  1.00  0.00     0.017 C
BRANCH  15  16
HETATM   16  C6  UNL     1      13.202  19.468  13.838  1.00  0.00     0.079 C
BRANCH  16  17
HETATM   17  C5  UNL     1      11.699  19.410  13.895  1.00  0.00     0.129 C
HETATM   18  O2  UNL     1      11.174  19.232  14.975  1.00  0.00    -0.298 OA
BRANCH  17  19
HETATM   19  C4  UNL     1      10.866  19.560  12.690  1.00  0.00     0.104 C
BRANCH  19  20
HETATM   20  C3  UNL     1      10.451  18.269  12.044  1.00  0.00     0.175 C
BRANCH  20  21
HETATM   21  O1  UNL     1       9.511  17.558  12.760  1.00  0.00    -0.391 OA
BRANCH  21  22
HETATM   22  C2  UNL     1       9.808  16.201  12.691  1.00  0.00     0.163 C
HETATM   23  C1  UNL     1      10.975  15.824  13.550  1.00  0.00     0.033 C
ENDBRANCH  21  22
ENDBRANCH  20  21
ENDBRANCH  19  20
ENDBRANCH  17  19
ENDBRANCH  16  17
ENDBRANCH  15  16
ENDBRANCH   1  15
BRANCH   3  24
HETATM   24  C11 UNL     1      12.758  23.650  14.630  1.00  0.00     0.119 C
HETATM   25  C12 UNL     1      11.544  22.736  14.631  1.00  0.00     0.040 C
BRANCH  24  26
HETATM   26  O3  UNL     1      12.390  24.743  15.347  1.00  0.00    -0.396 OA
ATOM     27  H3  UNL     1      11.491  25.044  15.402  1.00  0.00     0.210 HD
ENDBRANCH  24  26
ENDBRANCH   3  24
BRANCH   8  28
HETATM   28  C18 UNL     1      14.393  22.031  17.579  1.00  0.00     0.042 C
BRANCH  28  29
HETATM   29  C19 UNL     1      14.656  20.887  18.468  1.00  0.00    -0.024 C
HETATM   30  C20 UNL     1      13.741  19.992  18.717  1.00  0.00    -0.091 C
HETATM   31  C21 UNL     1      12.353  19.974  18.172  1.00  0.00     0.042 C
HETATM   32  C22 UNL     1      14.066  18.833  19.646  1.00  0.00     0.042 C
ENDBRANCH  28  29
ENDBRANCH   8  28
BRANCH   9  33
HETATM   33  C24 UNL     1      17.619  21.621  17.787  1.00  0.00     0.288 C
HETATM   34  O4  UNL     1      18.034  20.784  16.895  1.00  0.00    -0.260 OA
BRANCH  33  35
HETATM   35  O5  UNL     1      18.230  21.317  18.988  1.00  0.00    -0.323 OA
HETATM   36  C25 UNL     1      17.921  21.795  20.250  1.00  0.00     0.213 C
ENDBRANCH  33  35
ENDBRANCH   9  33
BRANCH  10  37
HETATM   37  O6  UNL     1      16.374  25.077  17.897  1.00  0.00    -0.384 OA
ATOM     38  H6  UNL     1      16.014  25.636  17.218  1.00  0.00     0.211 HD
ENDBRANCH  10  37
BRANCH  13  39
HETATM   39  O8  UNL     1      18.517  26.262  14.894  1.00  0.00    -0.392 OA
ATOM     40  H8  UNL     1      18.903  25.552  14.396  1.00  0.00     0.210 HD
ENDBRANCH  13  39
BRANCH  12  41
HETATM   41  O7  UNL     1      20.195  25.640  16.680  1.00  0.00    -0.388 OA
HETATM   42  C29 UNL     1      21.058  26.506  17.355  1.00  0.00     0.202 C
ENDBRANCH  12  41
TORSDOF 16
ENDMDL