MODEL 4
REMARK VINA RESULT: -4.441588578      2.233      3.871
REMARK  13 active torsions:
REMARK  status: ('A' for Active; 'I' for Inactive)
REMARK    1  A    between atoms: C2_2  and  C3_3
REMARK    2  A    between atoms: C3_3  and  N1_6
REMARK    3  A    between atoms: N1_6  and  C6_9
REMARK    4  A    between atoms: C6_9  and  C7_10
REMARK    5  A    between atoms: C11_17  and  O2_18
REMARK    6  A    between atoms: C14_22  and  C15_23
REMARK    7  A    between atoms: C15_23  and  O4_25
REMARK    8  A    between atoms: C18_31  and  C19_32
REMARK    9  A    between atoms: C18_31  and  C23_36
REMARK   10  A    between atoms: C19_32  and  C20_33
REMARK   11  A    between atoms: C20_33  and  C21_34
REMARK   12  A    between atoms: C23_36  and  C24_37
REMARK   13  A    between atoms: C24_37  and  S1_38
ROOT
HETATM    1  C7  UNL     1       8.618  14.381  13.301  1.00  0.00     0.115 C
HETATM    2  C8  UNL     1       7.750  13.641  12.364  1.00  0.00     0.159 C
HETATM    3  O1  UNL     1       7.996  12.454  12.218  1.00  0.00    -0.295 OA
HETATM    4  C9  UNL     1       6.609  14.233  11.594  1.00  0.00     0.149 C
HETATM    5  C10 UNL     1       6.033  15.458  12.210  1.00  0.00     0.040 C
HETATM    6  N2  UNL     1       6.835  14.288  10.168  1.00  0.00    -0.363 N
ATOM      7  H2  UNL     1       7.166  13.403   9.786  1.00  0.00     0.162 HD
HETATM    8  C11 UNL     1       6.704  15.268   9.209  1.00  0.00     0.118 C
HETATM    9  C12 UNL     1       7.454  16.514   8.927  1.00  0.00     0.088 C
HETATM   10  C13 UNL     1       6.763  17.765   9.401  1.00  0.00     0.021 C
HETATM   11  C14 UNL     1       8.928  16.489   9.265  1.00  0.00     0.195 C
HETATM   12  N3  UNL     1       9.281  17.468  10.269  1.00  0.00    -0.345 N
ATOM     13  H3  UNL     1       9.130  18.427   9.956  1.00  0.00     0.163 HD
HETATM   14  C17 UNL     1       9.770  17.398  11.538  1.00  0.00     0.234 C
HETATM   15  O5  UNL     1       9.025  17.921  12.463  1.00  0.00    -0.272 OA
HETATM   16  C18 UNL     1      11.018  16.841  12.140  1.00  0.00     0.106 C
HETATM   17  C26 UNL     1      10.620  15.777  13.069  1.00  0.00     0.170 C
HETATM   18  O6  UNL     1      10.759  16.065  14.301  1.00  0.00    -0.292 OA
HETATM   19  C27 UNL     1      10.090  14.438  12.908  1.00  0.00    -0.024 C
HETATM   20  C28 UNL     1      10.405  13.628  11.720  1.00  0.00     0.048 C
ENDROOT
BRANCH   1  21
HETATM   21  C6  UNL     1       8.446  13.841  14.733  1.00  0.00     0.250 C
BRANCH  21  22
HETATM   22  N1  UNL     1       8.255  14.892  15.672  1.00  0.00    -0.063 N
ATOM     23  H12 UNL     1       7.267  15.125  15.772  1.00  0.00     0.278 HD
ATOM     24  H11 UNL     1       8.594  15.782  15.307  1.00  0.00     0.278 HD
BRANCH  22  25
HETATM   25  C3  UNL     1       8.846  14.592  16.934  1.00  0.00     0.135 C
HETATM   26  C4  UNL     1       7.840  14.013  17.923  1.00  0.00     0.050 C
HETATM   27  C5  UNL     1       9.999  13.643  16.865  1.00  0.00     0.050 C
BRANCH  25  28
HETATM   28  C2  UNL     1       9.329  15.873  17.541  1.00  0.00     0.001 C
HETATM   29  C1  UNL     1      10.588  16.085  17.833  1.00  0.00     0.009 C
ENDBRANCH  25  28
ENDBRANCH  22  25
ENDBRANCH  21  22
ENDBRANCH   1  21
BRANCH  16  30
HETATM   30  C19 UNL     1      12.093  16.559  11.181  1.00  0.00     0.027 C
BRANCH  30  31
HETATM   31  C20 UNL     1      13.273  15.899  11.811  1.00  0.00     0.001 C
BRANCH  31  32
HETATM   32  C21 UNL     1      14.003  14.949  10.880  1.00  0.00    -0.005 C
HETATM   33  C22 UNL     1      15.370  14.683  11.449  1.00  0.00     0.005 C
ENDBRANCH  31  32
ENDBRANCH  30  31
ENDBRANCH  16  30
BRANCH  16  34
HETATM   34  C23 UNL     1      11.535  18.019  12.991  1.00  0.00     0.037 C
BRANCH  34  35
HETATM   35  C24 UNL     1      12.087  19.147  12.188  1.00  0.00     0.075 C
BRANCH  35  36
HETATM   36  S1  UNL     1      13.610  19.803  12.999  1.00  0.00    -0.173 SA
HETATM   37  C25 UNL     1      13.177  20.608  14.568  1.00  0.00     0.089 C
ENDBRANCH  35  36
ENDBRANCH  34  35
ENDBRANCH  16  34
BRANCH   8  38
HETATM   38  O2  UNL     1       5.724  15.078   8.366  1.00  0.00    -0.349 OA
ATOM     39  H2  UNL     1       5.755  15.629   7.592  1.00  0.00     0.219 HD
ENDBRANCH   8  38
BRANCH  11  40
HETATM   40  C15 UNL     1       9.759  16.878   8.058  1.00  0.00     0.282 C
HETATM   41  O3  UNL     1       9.639  17.974   7.465  1.00  0.00    -0.263 OA
BRANCH  40  42
HETATM   42  O4  UNL     1      10.713  16.015   7.542  1.00  0.00    -0.325 OA
HETATM   43  C16 UNL     1      11.031  14.767   8.136  1.00  0.00     0.213 C
ENDBRANCH  40  42
ENDBRANCH  11  40
TORSDOF 13
ENDMDL