MODEL 2
REMARK VINA RESULT: -5.494113123      1.285      1.857
REMARK  3 active torsions:
REMARK  status: ('A' for Active; 'I' for Inactive)
REMARK    1  A    between atoms: C2_5  and  N3_6
REMARK    2  A    between atoms: N3_6  and  S1_8
REMARK    3  A    between atoms: S1_8  and  N4_9
ROOT
HETATM    1  N1  UNL     1      32.823  65.853   8.717  1.00  0.00    -0.080 NA
HETATM    2  C1  UNL     1      31.447  65.803   9.177  1.00  0.00     0.149 A
HETATM    3  N2  UNL     1      31.093  65.613  10.417  1.00  0.00    -0.322 N
ATOM      4  H2  UNL     1      31.800  65.486  11.142  1.00  0.00     0.169 HD
HETATM    5  C2  UNL     1      29.802  65.586  10.726  1.00  0.00     0.162 A
HETATM    6  S2  UNL     1      29.045  65.838   9.216  1.00  0.00    -0.035 SA
HETATM    7  C3  UNL     1      30.446  65.967   8.250  1.00  0.00     0.131 A
HETATM    8  N5  UNL     1      30.554  66.190   6.831  1.00  0.00    -0.091 NA
ENDROOT
BRANCH   5   9
HETATM    9  N3  UNL     1      29.263  65.406  11.919  1.00  0.00    -0.247 N
ATOM     10  H3  UNL     1      29.389  66.090  12.665  1.00  0.00     0.182 HD
BRANCH   9  11
HETATM   11  S1  UNL     1      28.342  63.975  12.168  1.00  0.00     0.318 S
HETATM   12  O1  UNL     1      26.885  64.271  12.309  1.00  0.00    -0.183 OA
HETATM   13  O2  UNL     1      28.524  63.048  10.999  1.00  0.00    -0.183 OA
BRANCH  11  14
HETATM   14  N4  UNL     1      28.966  63.209  13.585  1.00  0.00    -0.311 N
ATOM     15  H42 UNL     1      28.655  62.316  13.965  1.00  0.00     0.170 HD
ATOM     16  H41 UNL     1      29.693  63.819  13.960  1.00  0.00     0.170 HD
ENDBRANCH  11  14
ENDBRANCH   9  11
ENDBRANCH   5   9
TORSDOF 3
ENDMDL