MODEL 1
REMARK VINA RESULT: -6.913758731      0.000      0.000
REMARK  3 active torsions:
REMARK  status: ('A' for Active; 'I' for Inactive)
REMARK    1  A    between atoms: N3_10  and  N4_12
REMARK    2  A    between atoms: C6_17  and  N5_18
REMARK    3  A    between atoms: N5_18  and  O3_20
ROOT
HETATM    1  C1  UNL     1      32.517  66.385   8.046  1.00  0.00     0.071 C
HETATM    2  C2  UNL     1      31.124  66.042   8.412  1.00  0.00     0.042 C
HETATM    3  N1  UNL     1      30.179  66.237   7.481  1.00  0.00    -0.310 N
ATOM      4  H1  UNL     1      30.504  66.597   6.584  1.00  0.00     0.170 HD
HETATM    5  C3  UNL     1      28.852  66.015   7.581  1.00  0.00     0.326 C
HETATM    6  O1  UNL     1      28.152  66.124   6.548  1.00  0.00    -0.247 OA
HETATM    7  N2  UNL     1      28.096  65.673   8.666  1.00  0.00    -0.290 N
ATOM      8  H2  UNL     1      27.106  65.510   8.484  1.00  0.00     0.172 HD
HETATM    9  C4  UNL     1      28.488  65.525   9.943  1.00  0.00     0.177 C
HETATM   10  N3  UNL     1      27.574  65.559  10.874  1.00  0.00    -0.289 N
ATOM     11  H3  UNL     1      27.849  65.448  11.850  1.00  0.00     0.188 HD
HETATM   12  C5  UNL     1      29.771  65.338  10.375  1.00  0.00     0.247 C
HETATM   13  O2  UNL     1      29.887  64.914  11.543  1.00  0.00    -0.282 OA
HETATM   14  C6  UNL     1      30.962  65.554   9.694  1.00  0.00     0.130 C
ENDROOT
BRANCH  10  15
HETATM   15  N4  UNL     1      26.226  65.744  10.557  1.00  0.00    -0.344 N
ATOM     16  H42 UNL     1      25.960  65.780   9.573  1.00  0.00     0.176 HD
ATOM     17  H41 UNL     1      25.520  65.840  11.287  1.00  0.00     0.176 HD
ENDBRANCH  10  15
BRANCH  14  18
HETATM   18  N5  UNL     1      32.173  65.260  10.343  1.00  0.00    -0.263 N
ATOM     19  H5  UNL     1      32.754  66.034  10.663  1.00  0.00     0.194 HD
BRANCH  18  20
HETATM   20  O3  UNL     1      32.575  64.082  10.548  1.00  0.00    -0.289 OA
ATOM     21  H3  UNL     1      33.309  63.876  11.116  1.00  0.00     0.244 HD
ENDBRANCH  18  20
ENDBRANCH  14  18
TORSDOF 3
ENDMDL