MODEL 1
REMARK VINA RESULT: -6.473189080      0.000      0.000
REMARK  3 active torsions:
REMARK  status: ('A' for Active; 'I' for Inactive)
REMARK    1  A    between atoms: O1_2  and  C2_3
REMARK    2  A    between atoms: C2_3  and  C3_8
REMARK    3  A    between atoms: N1_4  and  O2_6
ROOT
HETATM    1  C3  UNL     1      28.931  65.663   9.201  1.00  0.00     0.130 A
HETATM    2  N2  UNL     1      29.462  66.180   8.093  1.00  0.00    -0.312 N
ATOM      3  H2  UNL     1      28.822  66.528   7.379  1.00  0.00     0.169 HD
HETATM    4  C4  UNL     1      30.798  66.277   7.845  1.00  0.00     0.314 A
HETATM    5  O3  UNL     1      31.231  66.785   6.761  1.00  0.00    -0.262 OA
HETATM    6  C5  UNL     1      31.649  65.805   8.815  1.00  0.00     0.315 A
HETATM    7  O4  UNL     1      32.898  65.902   8.571  1.00  0.00    -0.262 OA
HETATM    8  N3  UNL     1      31.177  65.274   9.951  1.00  0.00    -0.305 N
ATOM      9  H3  UNL     1      31.821  64.927  10.663  1.00  0.00     0.170 HD
HETATM   10  C6  UNL     1      29.833  65.202  10.146  1.00  0.00     0.150 A
HETATM   11  N4  UNL     1      29.362  64.631  11.368  1.00  0.00    -0.080 NA
ENDROOT
BRANCH   1  12
HETATM   12  C2  UNL     1      27.521  65.560   9.464  1.00  0.00     0.192 C
HETATM   13  N1  UNL     1      26.791  66.229  10.252  1.00  0.00    -0.245 N
ATOM     14  H1  UNL     1      25.801  65.983  10.281  1.00  0.00     0.196 HD
BRANCH  12  15
HETATM   15  O1  UNL     1      26.819  64.569   8.745  1.00  0.00    -0.338 OA
HETATM   16  C1  UNL     1      25.451  64.699   8.426  1.00  0.00     0.211 C
ENDBRANCH  12  15
BRANCH  13  17
HETATM   17  O2  UNL     1      27.186  67.219  11.047  1.00  0.00    -0.288 OA
ATOM     18  H2  UNL     1      26.639  67.720  11.640  1.00  0.00     0.244 HD
ENDBRANCH  13  17
ENDBRANCH   1  12
TORSDOF 3
ENDMDL