MODEL 5
REMARK VINA RESULT: -7.012675545      2.396      2.797
REMARK  5 active torsions:
REMARK  status: ('A' for Active; 'I' for Inactive)
REMARK    1  A    between atoms: C2_2  and  N2_5
REMARK    2  A    between atoms: C2_2  and  O1_9
REMARK    3  A    between atoms: N2_5  and  N3_6
REMARK    4  A    between atoms: O1_9  and  C4_10
REMARK    5  A    between atoms: C5_11  and  C6_12
ROOT
HETATM    1  C1  UNL     1      25.774  65.207  11.249  1.00  0.00     0.086 C
HETATM    2  C2  UNL     1      25.506  64.712   9.827  1.00  0.00     0.249 C
HETATM    3  C3  UNL     1      25.604  63.272   9.844  1.00  0.00     0.119 C
HETATM    4  N1  UNL     1      25.681  62.119   9.843  1.00  0.00    -0.192 NA
ENDROOT
BRANCH   2   5
HETATM    5  N2  UNL     1      24.168  65.166   9.486  1.00  0.00    -0.093 NA
BRANCH   5   6
HETATM    6  N3  UNL     1      23.535  64.195   8.745  1.00  0.00    -0.345 N
ATOM      7  H32 UNL     1      22.533  64.008   8.770  1.00  0.00     0.172 HD
ATOM      8  H31 UNL     1      24.225  63.703   8.176  1.00  0.00     0.172 HD
ENDBRANCH   5   6
ENDBRANCH   2   5
BRANCH   2   9
HETATM    9  O1  UNL     1      26.392  65.317   8.908  1.00  0.00    -0.258 OA
BRANCH   9  10
HETATM   10  C4  UNL     1      27.749  65.352   9.114  1.00  0.00     0.064 C
HETATM   11  C5  UNL     1      28.948  65.390   9.279  1.00  0.00    -0.013 C
BRANCH  11  12
HETATM   12  C6  UNL     1      30.373  65.420   9.454  1.00  0.00     0.147 A
HETATM   13  N4  UNL     1      31.061  64.949  10.511  1.00  0.00    -0.275 N
HETATM   14  N5  UNL     1      32.344  65.136  10.350  1.00  0.00    -0.240 N
ATOM     15  H4  UNL     1      30.638  64.507  11.327  1.00  0.00     0.189 HD
HETATM   16  N6  UNL     1      32.543  65.731   9.194  1.00  0.00    -0.271 N
ATOM     17  H5  UNL     1      33.071  64.865  11.012  1.00  0.00     0.208 HD
HETATM   18  C7  UNL     1      31.342  65.928   8.600  1.00  0.00     0.169 A
ATOM     19  H6  UNL     1      33.449  65.998   8.810  1.00  0.00     0.190 HD
HETATM   20  N7  UNL     1      31.080  66.532   7.352  1.00  0.00    -0.078 NA
ENDBRANCH  11  12
ENDBRANCH   9  10
ENDBRANCH   2   9
TORSDOF 5
ENDMDL