MODEL 4
REMARK VINA RESULT: -6.387224763      2.358      5.313
REMARK  3 active torsions:
REMARK  status: ('A' for Active; 'I' for Inactive)
REMARK    1  A    between atoms: C2_3  and  C3_4
REMARK    2  A    between atoms: C3_4  and  O1_5
REMARK    3  A    between atoms: C3_4  and  N2_7
REMARK       I    between atoms: N2_7  and  C4_8
ROOT
HETATM    1  C3  UNL     1      28.545  64.288  10.622  1.00  0.00     0.249 C
ENDROOT
BRANCH   1   2
HETATM    2  C2  UNL     1      28.043  63.713  11.858  1.00  0.00     0.153 A
HETATM    3  N1  UNL     1      28.016  64.201  13.092  1.00  0.00    -0.289 N
HETATM    4  C1  UNL     1      28.488  65.483  13.579  1.00  0.00     0.162 C
HETATM    5  C6  UNL     1      27.458  63.234  13.884  1.00  0.00     0.373 A
HETATM    6  O2  UNL     1      27.159  62.189  13.149  1.00  0.00    -0.243 OA
HETATM    7  O3  UNL     1      27.286  63.381  15.123  1.00  0.00    -0.237 OA
HETATM    8  C5  UNL     1      27.486  62.411  11.904  1.00  0.00     0.195 A
HETATM    9  N5  UNL     1      27.328  61.537  10.791  1.00  0.00    -0.072 NA
ENDBRANCH   1   2
BRANCH   1  10
HETATM   10  O1  UNL     1      27.622  64.443   9.705  1.00  0.00    -0.334 OA
ATOM     11  H1  UNL     1      27.639  65.298   9.291  1.00  0.00     0.220 HD
ENDBRANCH   1  10
BRANCH   1  12
HETATM   12  N2  UNL     1      29.822  64.675  10.323  1.00  0.00    -0.346 NA
HETATM   13  C4  UNL     1      31.078  65.056  10.027  1.00  0.00     0.263 C
HETATM   14  N3  UNL     1      32.163  64.639  10.633  1.00  0.00    -0.362 N
HETATM   15  N4  UNL     1      31.399  66.007   8.966  1.00  0.00    -0.049 NA
ATOM     16  H32 UNL     1      31.939  63.975  11.374  1.00  0.00     0.159 HD
ATOM     17  H31 UNL     1      33.115  64.927  10.409  1.00  0.00     0.159 HD
ENDBRANCH   1  12
TORSDOF 3
ENDMDL