MODEL 5
REMARK VINA RESULT: -6.312201852      3.762      5.349
REMARK  2 active torsions:
REMARK  status: ('A' for Active; 'I' for Inactive)
REMARK    1  A    between atoms: N1_1  and  C1_4
REMARK    2  A    between atoms: C4_13  and  C5_14
ROOT
HETATM    1  C1  UNL     1      28.480  63.824  11.915  1.00  0.00     0.120 A
HETATM    2  N2  UNL     1      29.071  64.536  12.883  1.00  0.00    -0.294 N
ATOM      3  H2  UNL     1      29.924  65.053  12.673  1.00  0.00     0.172 HD
HETATM    4  C2  UNL     1      28.560  64.584  14.137  1.00  0.00     0.327 A
HETATM    5  O1  UNL     1      29.099  65.246  15.059  1.00  0.00    -0.247 OA
HETATM    6  N3  UNL     1      27.444  63.900  14.391  1.00  0.00    -0.296 N
ATOM      7  H3  UNL     1      27.049  63.927  15.331  1.00  0.00     0.171 HD
HETATM    8  C3  UNL     1      26.816  63.165  13.431  1.00  0.00     0.138 A
HETATM    9  N4  UNL     1      25.626  62.438  13.711  1.00  0.00    -0.081 NA
HETATM   10  C4  UNL     1      27.327  63.104  12.137  1.00  0.00     0.095 A
ENDROOT
BRANCH  10  11
HETATM   11  C5  UNL     1      26.650  62.315  11.115  1.00  0.00     0.148 A
HETATM   12  N5  UNL     1      26.930  61.034  10.797  1.00  0.00    -0.269 N
HETATM   13  N6  UNL     1      26.118  60.646   9.828  1.00  0.00    -0.007 NA
ATOM     14  H5  UNL     1      27.651  60.459  11.233  1.00  0.00     0.185 HD
HETATM   15  N7  UNL     1      25.312  61.640   9.504  1.00  0.00    -0.007 NA
HETATM   16  N8  UNL     1      25.641  62.649  10.289  1.00  0.00    -0.269 N
ATOM     17  H8  UNL     1      25.189  63.564  10.273  1.00  0.00     0.185 HD
ENDBRANCH  10  11
BRANCH   1  18
HETATM   18  N1  UNL     1      28.991  63.800  10.736  1.00  0.00    -0.384 N
ATOM     19  H12 UNL     1      29.980  64.027  10.637  1.00  0.00     0.157 HD
ATOM     20  H11 UNL     1      28.408  63.560   9.936  1.00  0.00     0.157 HD
ENDBRANCH   1  18
TORSDOF 2
ENDMDL