MODEL 1
REMARK VINA RESULT: -7.654804955      0.000      0.000
REMARK  3 active torsions:
REMARK  status: ('A' for Active; 'I' for Inactive)
REMARK    1  A    between atoms: N1_1  and  C1_4
REMARK    2  A    between atoms: C3_8  and  N3_9
REMARK    3  A    between atoms: N4_11  and  N5_13
ROOT
HETATM    1  C1  UNL     1      32.035  65.919   8.640  1.00  0.00     0.692 A
HETATM    2  N2  UNL     1      31.515  65.577   9.832  1.00  0.00    -0.171 N
ATOM      3  H2  UNL     1      32.036  65.394  10.689  1.00  0.00     0.186 HD
HETATM    4  C2  UNL     1      30.169  65.521   9.685  1.00  0.00     0.181 A
HETATM    5  C3  UNL     1      29.180  65.223  10.585  1.00  0.00     0.164 A
HETATM    6  C4  UNL     1      27.867  65.245  10.135  1.00  0.00     0.281 A
HETATM    7  O1  UNL     1      26.937  64.977  10.934  1.00  0.00    -0.265 OA
HETATM    8  N6  UNL     1      27.549  65.548   8.863  1.00  0.00    -0.272 N
ATOM      9  H6  UNL     1      26.576  65.559   8.558  1.00  0.00     0.174 HD
HETATM   10  C5  UNL     1      28.542  65.837   8.003  1.00  0.00     0.350 A
HETATM   11  O2  UNL     1      28.330  66.129   6.799  1.00  0.00    -0.244 OA
HETATM   12  N7  UNL     1      29.844  65.823   8.415  1.00  0.00    -0.171 N
HETATM   13  N8  UNL     1      30.992  66.059   7.803  1.00  0.00    -0.120 N
ATOM     14  H8  UNL     1      31.076  66.316   6.820  1.00  0.00     0.206 HD
ENDROOT
BRANCH   5  15
HETATM   15  N3  UNL     1      29.431  64.896  11.931  1.00  0.00    -0.278 N
HETATM   16  N4  UNL     1      29.018  63.830  12.484  1.00  0.00    -0.249 N
ATOM     17  H4  UNL     1      28.476  63.172  11.925  1.00  0.00     0.207 HD
ATOM     18  H3  UNL     1      29.973  65.552  12.494  1.00  0.00     0.189 HD
BRANCH  16  19
HETATM   19  N5  UNL     1      29.267  63.521  13.803  1.00  0.00    -0.331 N
ATOM     20  H52 UNL     1      28.908  64.161  14.511  1.00  0.00     0.178 HD
ATOM     21  H51 UNL     1      29.786  62.692  14.093  1.00  0.00     0.178 HD
ENDBRANCH  16  19
ENDBRANCH   5  15
BRANCH   1  22
HETATM   22  N1  UNL     1      33.302  66.084   8.340  1.00  0.00    -0.233 N
ATOM     23  H12 UNL     1      33.881  66.890   8.577  1.00  0.00     0.174 HD
ATOM     24  H11 UNL     1      33.906  65.442   7.828  1.00  0.00     0.174 HD
ENDBRANCH   1  22
TORSDOF 3
ENDMDL