MODEL 4
REMARK VINA RESULT: -6.177843565      4.437      5.221
REMARK  1 active torsions:
REMARK  status: ('A' for Active; 'I' for Inactive)
REMARK       I    between atoms: N2_3  and  C2_5
REMARK    1  A    between atoms: C2_5  and  C3_7
ROOT
HETATM    1  N1  UNL     1      23.862  61.057   8.306  1.00  0.00    -0.172 NA
HETATM    2  C1  UNL     1      24.335  61.728   9.119  1.00  0.00     0.184 C
HETATM    3  N2  UNL     1      24.943  62.562  10.116  1.00  0.00    -0.259 N
ATOM      4  H2  UNL     1      24.520  63.458  10.357  1.00  0.00     0.181 HD
HETATM    5  C2  UNL     1      26.120  62.148  10.760  1.00  0.00     0.271 C
HETATM    6  O1  UNL     1      26.594  61.009  10.402  1.00  0.00    -0.266 OA
ENDROOT
BRANCH   5   7
HETATM    7  C3  UNL     1      26.833  62.878  11.772  1.00  0.00     0.124 A
HETATM    8  C4  UNL     1      26.220  63.032  13.027  1.00  0.00     0.137 A
HETATM    9  N3  UNL     1      24.922  62.470  13.270  1.00  0.00    -0.081 NA
HETATM   10  N4  UNL     1      26.841  63.703  14.007  1.00  0.00    -0.332 N
HETATM   11  C5  UNL     1      28.042  64.259  13.884  1.00  0.00     0.121 A
ATOM     12  H4  UNL     1      26.362  63.791  14.903  1.00  0.00     0.168 HD
HETATM   13  N5  UNL     1      28.684  64.966  14.934  1.00  0.00    -0.083 NA
HETATM   14  C6  UNL     1      28.692  64.143  12.681  1.00  0.00     0.101 A
HETATM   15  C7  UNL     1      28.074  63.451  11.644  1.00  0.00     0.194 A
HETATM   16  O2  UNL     1      28.694  63.363  10.561  1.00  0.00    -0.287 OA
ENDBRANCH   5   7
TORSDOF 1
ENDMDL