MODEL 5
REMARK VINA RESULT: -7.131635712      1.530      2.296
REMARK  3 active torsions:
REMARK  status: ('A' for Active; 'I' for Inactive)
REMARK    1  A    between atoms: N1_1  and  C1_4
REMARK    2  A    between atoms: C2_10  and  C3_11
REMARK       I    between atoms: C3_11  and  N4_13
REMARK    3  A    between atoms: N4_13  and  C4_15
ROOT
HETATM    1  C3  UNL     1      29.634  65.472   9.882  1.00  0.00     0.292 C
HETATM    2  O2  UNL     1      28.655  66.189   9.581  1.00  0.00    -0.265 OA
HETATM    3  N4  UNL     1      29.600  64.480  10.881  1.00  0.00    -0.152 N
ATOM      4  H4  UNL     1      29.869  63.531  10.620  1.00  0.00     0.188 HD
ENDROOT
BRANCH   1   5
HETATM    5  C2  UNL     1      30.879  65.677   9.153  1.00  0.00     0.170 A
HETATM    6  C1  UNL     1      31.054  66.004   7.830  1.00  0.00     0.155 A
HETATM    7  N2  UNL     1      32.390  66.084   7.619  1.00  0.00    -0.224 N
HETATM    8  O1  UNL     1      32.965  65.824   8.732  1.00  0.00    -0.155 OA
ATOM      9  H2  UNL     1      32.851  66.310   6.737  1.00  0.00     0.198 HD
HETATM   10  N3  UNL     1      32.119  65.579   9.659  1.00  0.00    -0.233 N
ATOM     11  H3  UNL     1      32.349  65.348  10.625  1.00  0.00     0.197 HD
BRANCH   6  12
HETATM   12  N1  UNL     1      30.177  66.207   6.920  1.00  0.00    -0.382 N
ATOM     13  H12 UNL     1      30.306  66.370   5.922  1.00  0.00     0.157 HD
ATOM     14  H11 UNL     1      29.173  66.234   7.097  1.00  0.00     0.157 HD
ENDBRANCH   6  12
ENDBRANCH   1   5
BRANCH   3  15
HETATM   15  C4  UNL     1      29.254  64.688  12.096  1.00  0.00     0.713 A
HETATM   16  N5  UNL     1      28.908  65.866  12.640  1.00  0.00    -0.113 N
HETATM   17  N6  UNL     1      28.628  65.616  13.919  1.00  0.00     0.009 NA
ATOM     18  H5  UNL     1      28.869  66.770  12.169  1.00  0.00     0.203 HD
HETATM   19  N7  UNL     1      28.786  64.329  14.183  1.00  0.00    -0.212 N
HETATM   20  N8  UNL     1      29.172  63.757  13.061  1.00  0.00    -0.118 N
ATOM     21  H7  UNL     1      28.637  63.869  15.081  1.00  0.00     0.206 HD
ATOM     22  H8  UNL     1      29.376  62.764  12.943  1.00  0.00     0.207 HD
ENDBRANCH   3  15
TORSDOF 3
ENDMDL