MODEL 3
REMARK VINA RESULT: -6.943603870      0.937      1.469
REMARK  2 active torsions:
REMARK  status: ('A' for Active; 'I' for Inactive)
REMARK       I    between atoms: N1_1  and  C1_4
REMARK       I    between atoms: C1_4  and  N3_6
REMARK    1  A    between atoms: N3_6  and  C2_8
REMARK    2  A    between atoms: C3_13  and  C4_14
ROOT
HETATM    1  C2  UNL     1      27.890  62.953  11.640  1.00  0.00     0.247 A
HETATM    2  N4  UNL     1      28.436  63.505  12.737  1.00  0.00    -0.263 N
ATOM      3  H4  UNL     1      28.161  63.350  13.706  1.00  0.00     0.190 HD
HETATM    4  N5  UNL     1      29.404  64.291  12.299  1.00  0.00    -0.273 N
ATOM      5  H5  UNL     1      30.013  64.855  12.893  1.00  0.00     0.189 HD
HETATM    6  C3  UNL     1      29.471  64.240  10.955  1.00  0.00     0.212 A
HETATM    7  O1  UNL     1      28.523  63.407  10.597  1.00  0.00    -0.256 OA
ENDROOT
BRANCH   1   8
HETATM    8  N3  UNL     1      26.888  62.106  11.671  1.00  0.00    -0.295 N
HETATM    9  C1  UNL     1      26.092  61.877  10.530  1.00  0.00     0.189 C
HETATM   10  N1  UNL     1      25.289  62.781  10.131  1.00  0.00    -0.373 N
HETATM   11  N2  UNL     1      26.202  60.650   9.848  1.00  0.00    -0.064 NA
ATOM     12  H12 UNL     1      24.713  62.616   9.306  1.00  0.00     0.158 HD
ATOM     13  H11 UNL     1      25.209  63.670  10.626  1.00  0.00     0.158 HD
ATOM     14  H3  UNL     1      26.682  61.606  12.536  1.00  0.00     0.172 HD
ENDBRANCH   1   8
BRANCH   6  15
HETATM   15  C4  UNL     1      30.402  64.959  10.082  1.00  0.00     0.185 A
HETATM   16  N6  UNL     1      31.722  65.055  10.259  1.00  0.00    -0.267 N
HETATM   17  N7  UNL     1      32.224  65.784   9.263  1.00  0.00    -0.007 NA
ATOM     18  H6  UNL     1      32.254  64.640  11.024  1.00  0.00     0.185 HD
HETATM   19  N8  UNL     1      31.225  66.146   8.467  1.00  0.00    -0.007 NA
HETATM   20  N9  UNL     1      30.089  65.635   8.970  1.00  0.00    -0.267 N
ATOM     21  H9  UNL     1      29.155  65.744   8.575  1.00  0.00     0.185 HD
ENDBRANCH   6  15
TORSDOF 2
ENDMDL