MODEL 2
REMARK VINA RESULT: -6.098300672      1.517      2.636
REMARK  3 active torsions:
REMARK  status: ('A' for Active; 'I' for Inactive)
REMARK    1  A    between atoms: C2_2  and  C3_8
REMARK    2  A    between atoms: N1_3  and  N2_5
REMARK    3  A    between atoms: N3_11  and  N4_12
ROOT
HETATM    1  C3  UNL     1      29.676  65.970   9.734  1.00  0.00     0.080 A
HETATM    2  C4  UNL     1      28.722  66.140   8.757  1.00  0.00     0.052 A
HETATM    3  C5  UNL     1      27.282  66.041   9.029  1.00  0.00     0.072 C
HETATM    4  N3  UNL     1      29.191  66.411   7.497  1.00  0.00    -0.215 N
HETATM    5  C6  UNL     1      30.497  66.510   7.207  1.00  0.00     0.348 A
HETATM    6  O1  UNL     1      30.884  66.760   6.036  1.00  0.00    -0.245 OA
HETATM    7  N5  UNL     1      31.387  66.335   8.198  1.00  0.00    -0.273 N
ATOM      8  H5  UNL     1      32.382  66.408   7.984  1.00  0.00     0.173 HD
HETATM    9  C7  UNL     1      31.016  66.068   9.454  1.00  0.00     0.263 A
HETATM   10  O2  UNL     1      31.899  65.921  10.308  1.00  0.00    -0.267 OA
ENDROOT
BRANCH   1  11
HETATM   11  C2  UNL     1      29.266  65.682  11.093  1.00  0.00     0.039 C
HETATM   12  C1  UNL     1      28.755  66.752  12.017  1.00  0.00     0.071 C
HETATM   13  N1  UNL     1      29.303  64.511  11.620  1.00  0.00    -0.311 N
ATOM     14  H1  UNL     1      29.639  63.737  11.047  1.00  0.00     0.186 HD
BRANCH  13  15
HETATM   15  N2  UNL     1      28.913  64.239  12.915  1.00  0.00    -0.345 N
ATOM     16  H22 UNL     1      27.912  64.259  13.111  1.00  0.00     0.176 HD
ATOM     17  H21 UNL     1      29.562  64.024  13.670  1.00  0.00     0.176 HD
ENDBRANCH  13  15
ENDBRANCH   1  11
BRANCH   4  18
HETATM   18  N4  UNL     1      28.240  66.587   6.490  1.00  0.00    -0.334 N
ATOM     19  H42 UNL     1      27.255  66.693   6.734  1.00  0.00     0.177 HD
ATOM     20  H41 UNL     1      28.580  66.602   5.528  1.00  0.00     0.177 HD
ENDBRANCH   4  18
TORSDOF 3
ENDMDL