MODEL 2
REMARK VINA RESULT: -6.448701002      1.116      2.177
REMARK  2 active torsions:
REMARK  status: ('A' for Active; 'I' for Inactive)
REMARK    1  A    between atoms: O1_3  and  C2_4
REMARK    2  A    between atoms: C2_4  and  C3_6
ROOT
HETATM    1  N1  UNL     1      26.363  62.635  11.511  1.00  0.00    -0.163 NA
HETATM    2  C1  UNL     1      27.346  63.016  11.035  1.00  0.00     0.237 C
HETATM    3  O1  UNL     1      28.503  63.483  10.489  1.00  0.00    -0.200 OA
ENDROOT
BRANCH   3   4
HETATM    4  C2  UNL     1      28.919  64.783  10.539  1.00  0.00     0.317 C
HETATM    5  O2  UNL     1      28.788  65.426  11.608  1.00  0.00    -0.258 OA
BRANCH   4   6
HETATM    6  C3  UNL     1      29.509  65.436   9.379  1.00  0.00     0.149 A
HETATM    7  C4  UNL     1      30.871  65.479   9.179  1.00  0.00     0.142 A
HETATM    8  N2  UNL     1      31.731  64.869  10.128  1.00  0.00    -0.081 NA
HETATM    9  N3  UNL     1      31.422  66.093   8.089  1.00  0.00    -0.296 N
HETATM   10  C5  UNL     1      30.607  66.669   7.191  1.00  0.00     0.328 A
ATOM     11  H3  UNL     1      32.434  66.113   7.960  1.00  0.00     0.171 HD
HETATM   12  O3  UNL     1      31.111  67.244   6.173  1.00  0.00    -0.247 OA
HETATM   13  N4  UNL     1      29.276  66.636   7.371  1.00  0.00    -0.275 N
HETATM   14  C6  UNL     1      28.716  66.040   8.432  1.00  0.00     0.269 A
ATOM     15  H4  UNL     1      28.673  67.080   6.678  1.00  0.00     0.173 HD
HETATM   16  O4  UNL     1      27.464  66.046   8.539  1.00  0.00    -0.267 OA
ENDBRANCH   4   6
ENDBRANCH   3   4
TORSDOF 2
ENDMDL