MODEL 1
REMARK VINA RESULT: -6.571814281      0.000      0.000
REMARK  2 active torsions:
REMARK  status: ('A' for Active; 'I' for Inactive)
REMARK    1  A    between atoms: N1_2  and  C3_4
REMARK    2  A    between atoms: C5_11  and  N4_12
ROOT
HETATM    1  C3  UNL     1      27.737  65.991   8.595  1.00  0.00     0.143 A
HETATM    2  N2  UNL     1      27.382  66.198   7.313  1.00  0.00    -0.242 N
ATOM      3  H2  UNL     1      26.422  66.215   6.967  1.00  0.00     0.196 HD
HETATM    4  O1  UNL     1      28.445  66.376   6.574  1.00  0.00    -0.216 OA
HETATM    5  C4  UNL     1      29.538  66.303   7.276  1.00  0.00     0.204 A
HETATM    6  N3  UNL     1      30.834  66.419   6.949  1.00  0.00    -0.167 N
ATOM      7  H3  UNL     1      31.116  66.600   5.986  1.00  0.00     0.186 HD
HETATM    8  C5  UNL     1      31.754  66.290   7.926  1.00  0.00     0.680 A
HETATM    9  N5  UNL     1      31.379  66.050   9.205  1.00  0.00    -0.155 N
ATOM     10  H5  UNL     1      32.090  65.956   9.931  1.00  0.00     0.187 HD
HETATM   11  C6  UNL     1      30.080  65.935   9.528  1.00  0.00     0.278 A
HETATM   12  O2  UNL     1      29.721  65.711  10.721  1.00  0.00    -0.266 OA
HETATM   13  C7  UNL     1      29.117  66.057   8.579  1.00  0.00     0.132 A
ENDROOT
BRANCH   1  14
HETATM   14  N1  UNL     1      26.860  65.763   9.689  1.00  0.00    -0.374 N
HETATM   15  C1  UNL     1      26.406  64.424  10.082  1.00  0.00     0.150 C
HETATM   16  C2  UNL     1      26.343  66.852  10.511  1.00  0.00     0.150 C
ENDBRANCH   1  14
BRANCH   8  17
HETATM   17  N4  UNL     1      33.019  66.394   7.659  1.00  0.00    -0.234 N
ATOM     18  H42 UNL     1      33.321  67.107   6.995  1.00  0.00     0.174 HD
ATOM     19  H41 UNL     1      33.696  65.774   8.104  1.00  0.00     0.174 HD
ENDBRANCH   8  17
TORSDOF 2
ENDMDL