MODEL 3
REMARK VINA RESULT: -6.802221400      1.127      1.159
REMARK  4 active torsions:
REMARK  status: ('A' for Active; 'I' for Inactive)
REMARK    1  A    between atoms: N1_2  and  N2_3
REMARK    2  A    between atoms: N1_2  and  N3_6
REMARK    3  A    between atoms: N4_8  and  C2_10
REMARK    4  A    between atoms: C3_11  and  O1_12
ROOT
HETATM    1  C2  UNL     1      30.073  65.484   9.875  1.00  0.00     0.169 A
HETATM    2  C3  UNL     1      31.381  65.570   9.463  1.00  0.00     0.178 A
HETATM    3  N5  UNL     1      31.756  66.150   8.316  1.00  0.00    -0.287 N
ATOM      4  H5  UNL     1      32.738  66.193   8.043  1.00  0.00     0.172 HD
HETATM    5  C4  UNL     1      30.791  66.674   7.533  1.00  0.00     0.329 A
HETATM    6  O2  UNL     1      31.137  67.219   6.460  1.00  0.00    -0.247 OA
HETATM    7  N6  UNL     1      29.484  66.613   7.903  1.00  0.00    -0.273 N
ATOM      8  H6  UNL     1      28.775  67.018   7.291  1.00  0.00     0.173 HD
HETATM    9  C5  UNL     1      29.098  66.027   9.061  1.00  0.00     0.281 A
HETATM   10  O3  UNL     1      27.881  65.969   9.404  1.00  0.00    -0.265 OA
ENDROOT
BRANCH   1  11
HETATM   11  N4  UNL     1      29.666  64.869  11.092  1.00  0.00    -0.276 N
HETATM   12  N3  UNL     1      29.107  65.604  11.950  1.00  0.00    -0.226 N
ATOM     13  H3  UNL     1      28.985  66.587  11.710  1.00  0.00     0.210 HD
ATOM     14  H4  UNL     1      29.822  63.875  11.263  1.00  0.00     0.189 HD
BRANCH  12  15
HETATM   15  N1  UNL     1      28.645  65.199  13.182  1.00  0.00    -0.231 N
HETATM   16  C1  UNL     1      28.149  66.190  14.116  1.00  0.00     0.201 C
BRANCH  15  17
HETATM   17  N2  UNL     1      28.656  63.858  13.519  1.00  0.00    -0.328 N
ATOM     18  H22 UNL     1      27.956  63.487  14.161  1.00  0.00     0.178 HD
ATOM     19  H21 UNL     1      29.362  63.231  13.131  1.00  0.00     0.178 HD
ENDBRANCH  15  17
ENDBRANCH  12  15
ENDBRANCH   1  11
BRANCH   2  20
HETATM   20  O1  UNL     1      32.357  65.024  10.281  1.00  0.00    -0.344 OA
ATOM     21  H1  UNL     1      33.246  64.982   9.948  1.00  0.00     0.219 HD
ENDBRANCH   2  20
TORSDOF 4
ENDMDL