MODEL 5
REMARK VINA RESULT: -6.411476638      2.347      2.988
REMARK  3 active torsions:
REMARK  status: ('A' for Active; 'I' for Inactive)
REMARK    1  A    between atoms: C2_7  and  C3_8
REMARK    2  A    between atoms: N3_9  and  N4_11
REMARK    3  A    between atoms: N4_11  and  C4_13
ROOT
HETATM    1  C3  UNL     1      28.271  64.262  11.150  1.00  0.00     0.157 C
HETATM    2  N3  UNL     1      29.096  64.472  10.182  1.00  0.00    -0.306 N
ATOM      3  H3  UNL     1      28.854  64.112   9.259  1.00  0.00     0.186 HD
ENDROOT
BRANCH   2   4
HETATM    4  N4  UNL     1      30.301  65.164  10.324  1.00  0.00    -0.272 N
ATOM      5  H4  UNL     1      30.730  65.225  11.247  1.00  0.00     0.190 HD
BRANCH   4   6
HETATM    6  C4  UNL     1      30.952  65.788   9.217  1.00  0.00     0.190 C
HETATM    7  N5  UNL     1      32.200  65.779   8.962  1.00  0.00    -0.360 N
HETATM    8  C5  UNL     1      32.480  66.516   7.760  1.00  0.00     0.142 C
ATOM      9  H5  UNL     1      32.905  65.312   9.533  1.00  0.00     0.162 HD
HETATM   10  C6  UNL     1      31.127  66.623   7.099  1.00  0.00     0.142 C
HETATM   11  N6  UNL     1      30.237  66.520   8.232  1.00  0.00    -0.360 N
ATOM     12  H6  UNL     1      29.292  66.896   8.308  1.00  0.00     0.162 HD
ENDBRANCH   4   6
ENDBRANCH   2   4
BRANCH   1  13
HETATM   13  C2  UNL     1      28.499  64.722  12.507  1.00  0.00     0.141 A
HETATM   14  N2  UNL     1      29.156  64.084  13.487  1.00  0.00    -0.280 N
HETATM   15  N1  UNL     1      29.138  64.840  14.563  1.00  0.00    -0.250 N
ATOM     16  H2  UNL     1      29.595  63.167  13.410  1.00  0.00     0.188 HD
HETATM   17  C1  UNL     1      28.471  65.972  14.294  1.00  0.00     0.340 A
ATOM     18  H1  UNL     1      29.563  64.604  15.460  1.00  0.00     0.192 HD
HETATM   19  O1  UNL     1      28.255  66.937  15.099  1.00  0.00    -0.245 OA
HETATM   20  N7  UNL     1      28.077  65.888  13.013  1.00  0.00    -0.291 N
ATOM     21  H7  UNL     1      27.545  66.596  12.508  1.00  0.00     0.172 HD
ENDBRANCH   1  13
TORSDOF 3
ENDMDL