MODEL 2
REMARK VINA RESULT: -6.200941430      1.753      3.349
REMARK  3 active torsions:
REMARK  status: ('A' for Active; 'I' for Inactive)
REMARK    1  A    between atoms: O1_2  and  N1_3
REMARK    2  A    between atoms: C2_6  and  N3_7
REMARK    3  A    between atoms: C6_17  and  N6_18
ROOT
HETATM    1  N1  UNL     1      28.888  65.008  10.654  1.00  0.00    -0.155 N
HETATM    2  N2  UNL     1      27.649  65.249  10.279  1.00  0.00    -0.258 N
ATOM      3  H2  UNL     1      26.827  65.035  10.843  1.00  0.00     0.191 HD
HETATM    4  C2  UNL     1      27.606  65.811   9.060  1.00  0.00     0.134 A
HETATM    5  C3  UNL     1      28.908  65.931   8.644  1.00  0.00     0.113 A
HETATM    6  C4  UNL     1      29.534  66.415   7.517  1.00  0.00     0.278 A
HETATM    7  O2  UNL     1      28.809  66.878   6.595  1.00  0.00    -0.265 OA
HETATM    8  N4  UNL     1      30.871  66.405   7.376  1.00  0.00    -0.260 N
HETATM    9  C5  UNL     1      31.460  66.940   6.143  1.00  0.00     0.181 C
HETATM   10  N5  UNL     1      31.592  65.922   8.342  1.00  0.00    -0.279 N
ATOM     11  H5  UNL     1      32.605  65.919   8.229  1.00  0.00     0.189 HD
HETATM   12  C6  UNL     1      31.073  65.418   9.501  1.00  0.00     0.146 A
HETATM   13  C7  UNL     1      29.709  65.412   9.677  1.00  0.00     0.145 A
ENDROOT
BRANCH   4  14
HETATM   14  N3  UNL     1      26.578  66.175   8.391  1.00  0.00    -0.383 N
ATOM     15  H32 UNL     1      26.032  67.019   8.562  1.00  0.00     0.157 HD
ATOM     16  H31 UNL     1      26.141  65.706   7.599  1.00  0.00     0.157 HD
ENDBRANCH   4  14
BRANCH   1  17
HETATM   17  O1  UNL     1      29.291  64.433  11.858  1.00  0.00    -0.263 OA
HETATM   18  C1  UNL     1      28.236  63.998  12.726  1.00  0.00     0.240 C
ENDBRANCH   1  17
BRANCH  12  19
HETATM   19  N6  UNL     1      31.837  64.959  10.406  1.00  0.00    -0.382 N
ATOM     20  H62 UNL     1      31.451  64.662  11.302  1.00  0.00     0.157 HD
ATOM     21  H61 UNL     1      32.842  64.882  10.248  1.00  0.00     0.157 HD
ENDBRANCH  12  19
TORSDOF 3
ENDMDL