MODEL 4
REMARK VINA RESULT: -5.887551940      1.645      1.816
REMARK  3 active torsions:
REMARK  status: ('A' for Active; 'I' for Inactive)
REMARK    1  A    between atoms: O1_2  and  N1_3
REMARK    2  A    between atoms: C2_4  and  N2_5
REMARK    3  A    between atoms: C6_16  and  N5_17
ROOT
HETATM    1  N1  UNL     1      28.132  65.535  11.343  1.00  0.00    -0.031 N
HETATM    2  C2  UNL     1      26.886  65.608  10.855  1.00  0.00     0.707 A
HETATM    3  N3  UNL     1      26.628  65.697   9.531  1.00  0.00    -0.152 N
ATOM      4  H3  UNL     1      25.661  65.749   9.208  1.00  0.00     0.187 HD
HETATM    5  C3  UNL     1      27.635  65.717   8.631  1.00  0.00     0.291 A
HETATM    6  O2  UNL     1      27.464  65.798   7.390  1.00  0.00    -0.265 OA
HETATM    7  C4  UNL     1      28.909  65.643   9.126  1.00  0.00     0.167 A
HETATM    8  C5  UNL     1      29.170  65.551  10.488  1.00  0.00     0.200 A
HETATM    9  N4  UNL     1      30.506  65.495  10.646  1.00  0.00    -0.171 N
ATOM     10  H4  UNL     1      30.998  65.424  11.536  1.00  0.00     0.186 HD
HETATM   11  C6  UNL     1      31.086  65.549   9.422  1.00  0.00     0.680 A
HETATM   12  N6  UNL     1      30.105  65.639   8.506  1.00  0.00    -0.178 N
HETATM   13  C7  UNL     1      30.307  65.717   7.101  1.00  0.00     0.176 C
ENDROOT
BRANCH   2  14
HETATM   14  N2  UNL     1      25.886  65.591  11.690  1.00  0.00    -0.232 N
ATOM     15  H22 UNL     1      26.042  65.901  12.650  1.00  0.00     0.174 HD
ATOM     16  H21 UNL     1      24.977  65.270  11.358  1.00  0.00     0.174 HD
ENDBRANCH   2  14
BRANCH   1  17
HETATM   17  O1  UNL     1      28.300  65.447  12.703  1.00  0.00    -0.263 OA
HETATM   18  C1  UNL     1      28.640  64.188  13.285  1.00  0.00     0.239 C
ENDBRANCH   1  17
BRANCH  11  19
HETATM   19  N5  UNL     1      32.360  65.516   9.234  1.00  0.00    -0.234 N
ATOM     20  H52 UNL     1      32.924  64.767   8.833  1.00  0.00     0.174 HD
ATOM     21  H51 UNL     1      32.987  66.283   9.478  1.00  0.00     0.174 HD
ENDBRANCH  11  19
TORSDOF 3
ENDMDL