MODEL 3
REMARK VINA RESULT: -6.295481992      4.967      6.186
REMARK  3 active torsions:
REMARK  status: ('A' for Active; 'I' for Inactive)
REMARK    1  A    between atoms: N1_2  and  C2_4
REMARK    2  A    between atoms: C4_9  and  N4_10
REMARK    3  A    between atoms: N5_14  and  N6_16
ROOT
HETATM    1  C2  UNL     1      23.560  64.275  11.856  1.00  0.00     0.680 A
HETATM    2  N2  UNL     1      23.833  64.176  10.524  1.00  0.00    -0.176 N
ATOM      3  H2  UNL     1      23.182  64.538   9.826  1.00  0.00     0.185 HD
HETATM    4  C3  UNL     1      24.993  63.583  10.156  1.00  0.00     0.168 A
HETATM    5  N3  UNL     1      25.312  63.462   8.764  1.00  0.00    -0.079 NA
HETATM    6  C4  UNL     1      25.882  63.090  11.078  1.00  0.00     0.190 A
HETATM    7  C5  UNL     1      25.598  63.197  12.410  1.00  0.00     0.172 A
HETATM    8  N5  UNL     1      26.313  62.821  13.390  1.00  0.00    -0.289 N
ATOM      9  H5  UNL     1      25.940  62.982  14.326  1.00  0.00     0.188 HD
HETATM   10  N7  UNL     1      24.407  63.805  12.747  1.00  0.00    -0.173 N
ATOM     11  H7  UNL     1      24.172  63.896  13.736  1.00  0.00     0.186 HD
ENDROOT
BRANCH   6  12
HETATM   12  N4  UNL     1      27.067  62.463  10.649  1.00  0.00    -0.108 N
HETATM   13  O1  UNL     1      28.168  63.091  10.588  1.00  0.00    -0.532 OA
HETATM   14  O2  UNL     1      27.121  61.148  10.273  1.00  0.00    -0.532 OA
ENDBRANCH   6  12
BRANCH   8  15
HETATM   15  N6  UNL     1      27.541  62.217  13.300  1.00  0.00    -0.344 N
ATOM     16  H62 UNL     1      27.561  61.312  12.829  1.00  0.00     0.176 HD
ATOM     17  H61 UNL     1      28.417  62.593  13.660  1.00  0.00     0.176 HD
ENDBRANCH   8  15
BRANCH   1  18
HETATM   18  N1  UNL     1      22.439  64.853  12.133  1.00  0.00    -0.230 N
HETATM   19  C1  UNL     1      21.640  64.438  13.257  1.00  0.00     0.165 C
ATOM     20  H1  UNL     1      22.113  65.619  11.543  1.00  0.00     0.177 HD
ENDBRANCH   1  18
TORSDOF 3
ENDMDL