MODEL 1
REMARK VINA RESULT: -6.810702772      0.000      0.000
REMARK  2 active torsions:
REMARK  status: ('A' for Active; 'I' for Inactive)
REMARK    1  A    between atoms: C3_4  and  C4_5
REMARK       I    between atoms: C4_5  and  N2_7
REMARK    2  A    between atoms: N2_7  and  N3_9
ROOT
HETATM    1  N1  UNL     1      29.021  66.255   6.562  1.00  0.00    -0.191 NA
HETATM    2  C1  UNL     1      28.939  66.038   7.717  1.00  0.00     0.107 C
HETATM    3  C2  UNL     1      28.807  65.777   9.117  1.00  0.00     0.144 A
HETATM    4  C3  UNL     1      29.918  65.566   9.896  1.00  0.00     0.131 A
HETATM    5  N4  UNL     1      29.683  65.328  11.208  1.00  0.00    -0.327 N
ATOM      6  H4  UNL     1      30.489  65.167  11.814  1.00  0.00     0.168 HD
HETATM    7  C5  UNL     1      28.463  65.290  11.766  1.00  0.00     0.179 A
HETATM    8  S1  UNL     1      28.249  64.995  13.365  1.00  0.00    -0.040 SA
HETATM    9  N5  UNL     1      27.385  65.492  11.026  1.00  0.00    -0.299 N
ATOM     10  H5  UNL     1      26.455  65.465  11.444  1.00  0.00     0.171 HD
HETATM   11  C6  UNL     1      27.539  65.734   9.719  1.00  0.00     0.270 A
HETATM   12  O2  UNL     1      26.557  65.937   8.946  1.00  0.00    -0.266 OA
ENDROOT
BRANCH   4  13
HETATM   13  C4  UNL     1      31.280  65.590   9.368  1.00  0.00     0.287 C
HETATM   14  O1  UNL     1      32.150  64.868   9.916  1.00  0.00    -0.264 OA
HETATM   15  N2  UNL     1      31.691  66.375   8.275  1.00  0.00    -0.271 N
ATOM     16  H2  UNL     1      31.018  66.977   7.800  1.00  0.00     0.189 HD
BRANCH  15  17
HETATM   17  N3  UNL     1      33.021  66.333   7.837  1.00  0.00    -0.342 N
ATOM     18  H32 UNL     1      33.753  66.081   8.503  1.00  0.00     0.176 HD
ATOM     19  H31 UNL     1      33.250  66.553   6.867  1.00  0.00     0.176 HD
ENDBRANCH  15  17
ENDBRANCH   4  13
TORSDOF 2
ENDMDL