MODEL 5
REMARK VINA RESULT: -6.471462674      1.400      2.920
REMARK  5 active torsions:
REMARK  status: ('A' for Active; 'I' for Inactive)
REMARK    1  A    between atoms: C2_2  and  O2_4
REMARK    2  A    between atoms: O2_4  and  C3_5
REMARK    3  A    between atoms: C4_6  and  N1_7
REMARK    4  A    between atoms: N1_7  and  O3_9
REMARK    5  A    between atoms: C5_13  and  N3_14
ROOT
HETATM    1  C3  UNL     1      30.014  65.685   9.797  1.00  0.00     0.193 A
HETATM    2  C4  UNL     1      29.174  66.384   8.967  1.00  0.00     0.180 A
HETATM    3  N2  UNL     1      29.617  66.861   7.767  1.00  0.00    -0.172 N
ATOM      4  H2  UNL     1      28.980  67.378   7.162  1.00  0.00     0.186 HD
HETATM    5  C5  UNL     1      30.884  66.655   7.377  1.00  0.00     0.680 A
HETATM    6  N4  UNL     1      31.710  65.973   8.183  1.00  0.00    -0.154 N
ATOM      7  H4  UNL     1      32.673  65.818   7.883  1.00  0.00     0.187 HD
HETATM    8  C6  UNL     1      31.308  65.479   9.390  1.00  0.00     0.297 A
HETATM    9  O4  UNL     1      32.125  64.840  10.119  1.00  0.00    -0.264 OA
ENDROOT
BRANCH   1  10
HETATM   10  O2  UNL     1      29.545  65.212  11.005  1.00  0.00    -0.269 OA
BRANCH  10  11
HETATM   11  C2  UNL     1      28.533  64.284  11.126  1.00  0.00     0.260 C
HETATM   12  C1  UNL     1      27.564  64.277  12.242  1.00  0.00     0.126 C
HETATM   13  O1  UNL     1      28.435  63.401  10.236  1.00  0.00    -0.265 OA
ENDBRANCH  10  11
ENDBRANCH   1  10
BRANCH   2  14
HETATM   14  N1  UNL     1      27.806  66.647   9.310  1.00  0.00    -0.250 N
ATOM     15  H1  UNL     1      27.037  66.177   8.831  1.00  0.00     0.196 HD
BRANCH  14  16
HETATM   16  O3  UNL     1      27.603  67.468  10.210  1.00  0.00    -0.288 OA
ATOM     17  H3  UNL     1      27.319  68.335   9.946  1.00  0.00     0.244 HD
ENDBRANCH  14  16
ENDBRANCH   2  14
BRANCH   5  18
HETATM   18  N3  UNL     1      31.344  67.097   6.234  1.00  0.00    -0.234 N
ATOM     19  H32 UNL     1      30.925  66.751   5.371  1.00  0.00     0.174 HD
ATOM     20  H31 UNL     1      32.104  67.774   6.178  1.00  0.00     0.174 HD
ENDBRANCH   5  18
TORSDOF 5
ENDMDL