MODEL 2
REMARK VINA RESULT: -6.640920008      2.302      2.754
REMARK  8 active torsions:
REMARK  status: ('A' for Active; 'I' for Inactive)
REMARK    1  A    between atoms: C2_2  and  N1_3
REMARK       I    between atoms: N1_3  and  C3_5
REMARK       I    between atoms: C3_5  and  N2_7
REMARK    2  A    between atoms: N2_7  and  C4_9
REMARK    3  A    between atoms: C4_9  and  C5_10
REMARK       I    between atoms: N3_11  and  C6_13
REMARK    4  A    between atoms: C6_13  and  C7_15
REMARK    5  A    between atoms: C7_15  and  N4_16
REMARK    6  A    between atoms: C7_15  and  C11_23
REMARK    7  A    between atoms: N4_16  and  C8_18
REMARK    8  A    between atoms: C8_18  and  C10_20
ROOT
HETATM    1  C5  UNL     1      25.834  65.663   8.061  1.00  0.00     0.084 C
HETATM    2  N3  UNL     1      26.843  66.145   8.840  1.00  0.00    -0.334 N
ATOM      3  H3  UNL     1      26.886  67.164   8.812  1.00  0.00     0.168 HD
HETATM    4  C6  UNL     1      27.831  65.613   9.663  1.00  0.00     0.267 C
HETATM    5  O2  UNL     1      27.936  64.370   9.837  1.00  0.00    -0.266 OA
ENDROOT
BRANCH   4   6
HETATM    6  C7  UNL     1      28.797  66.517  10.341  1.00  0.00     0.078 C
BRANCH   6   7
HETATM    7  N4  UNL     1      29.699  67.097   9.452  1.00  0.00    -0.376 N
ATOM      8  H4  UNL     1      29.761  68.114   9.505  1.00  0.00     0.160 HD
BRANCH   7   9
HETATM    9  C8  UNL     1      30.514  66.521   8.522  1.00  0.00     0.167 C
HETATM   10  C9  UNL     1      31.997  66.907   8.753  1.00  0.00     0.042 C
BRANCH   9  11
HETATM   11  C10 UNL     1      30.189  66.879   7.096  1.00  0.00     0.253 C
HETATM   12  N5  UNL     1      29.056  66.410   6.408  1.00  0.00    -0.060 NA
HETATM   13  O3  UNL     1      30.993  67.658   6.466  1.00  0.00    -0.275 OA
ENDBRANCH   9  11
ENDBRANCH   7   9
ENDBRANCH   6   7
BRANCH   6  14
HETATM   14  C11 UNL     1      28.365  67.440  11.394  1.00  0.00     0.033 C
HETATM   15  C12 UNL     1      27.167  67.173  12.217  1.00  0.00     0.016 C
HETATM   16  C13 UNL     1      29.509  67.787  12.376  1.00  0.00     0.016 C
ENDBRANCH   6  14
ENDBRANCH   4   6
BRANCH   1  17
HETATM   17  C4  UNL     1      24.611  64.935   8.346  1.00  0.00     0.169 C
BRANCH  17  18
HETATM   18  N2  UNL     1      24.641  63.834   9.274  1.00  0.00    -0.338 N
HETATM   19  C3  UNL     1      24.517  64.180  10.655  1.00  0.00     0.316 C
HETATM   20  N1  UNL     1      24.500  63.174  11.646  1.00  0.00    -0.343 N
HETATM   21  O1  UNL     1      24.438  65.393  10.958  1.00  0.00    -0.247 OA
ATOM     22  H1  UNL     1      24.500  62.203  11.335  1.00  0.00     0.164 HD
ATOM     23  H2  UNL     1      24.744  62.867   8.964  1.00  0.00     0.164 HD
BRANCH  20  24
HETATM   24  C2  UNL     1      24.484  63.419  13.045  1.00  0.00     0.120 C
HETATM   25  C1  UNL     1      25.847  63.711  13.620  1.00  0.00     0.026 C
ENDBRANCH  20  24
ENDBRANCH  17  18
ENDBRANCH   1  17
TORSDOF 8
ENDMDL