MODEL 5
REMARK VINA RESULT: -7.111120346      2.080      6.336
REMARK  7 active torsions:
REMARK  status: ('A' for Active; 'I' for Inactive)
REMARK    1  A    between atoms: N1_1  and  C1_5
REMARK    2  A    between atoms: C1_5  and  C2_6
REMARK    3  A    between atoms: C4_8  and  C5_9
REMARK    4  A    between atoms: C5_9  and  C6_10
REMARK    5  A    between atoms: C6_10  and  N2_11
REMARK    6  A    between atoms: C6_10  and  C8_14
REMARK       I    between atoms: C8_14  and  N3_16
REMARK    7  A    between atoms: N3_16  and  C9_18
ROOT
HETATM    1  N2  UNL     1      24.561  65.601   8.520  1.00  0.00    -0.403 NA
HETATM    2  C7  UNL     1      23.176  65.974   8.767  1.00  0.00     0.436 C
HETATM    3  O1  UNL     1      22.195  66.181   8.981  1.00  0.00    -0.269 OA
ENDROOT
BRANCH   1   4
HETATM    4  C6  UNL     1      25.810  65.237   8.314  1.00  0.00     0.281 C
BRANCH   4   5
HETATM    5  C5  UNL     1      26.706  66.469   8.420  1.00  0.00     0.034 C
BRANCH   5   6
HETATM    6  C4  UNL     1      28.090  66.578   8.055  1.00  0.00    -0.019 A
HETATM    7  C3  UNL     1      29.264  66.521   8.780  1.00  0.00     0.039 A
HETATM    8  C2  UNL     1      30.345  66.835   7.948  1.00  0.00     0.035 A
HETATM    9  N6  UNL     1      29.837  67.080   6.726  1.00  0.00    -0.367 N
HETATM   10  C13 UNL     1      28.529  66.942   6.747  1.00  0.00     0.099 A
ATOM     11  H6  UNL     1      30.386  67.334   5.905  1.00  0.00     0.165 HD
BRANCH   8  12
HETATM   12  C1  UNL     1      31.793  66.913   8.339  1.00  0.00     0.286 C
BRANCH  12  13
HETATM   13  N1  UNL     1      32.538  66.529   7.159  1.00  0.00    -0.074 N
ATOM     14  H13 UNL     1      33.536  66.405   7.329  1.00  0.00     0.274 HD
ATOM     15  H12 UNL     1      32.348  65.575   6.849  1.00  0.00     0.274 HD
ATOM     16  H11 UNL     1      32.327  67.237   6.457  1.00  0.00     0.274 HD
ENDBRANCH  12  13
ENDBRANCH   8  12
ENDBRANCH   5   6
ENDBRANCH   4   5
BRANCH   4  17
HETATM   17  C8  UNL     1      26.179  64.297   9.543  1.00  0.00     0.261 C
HETATM   18  O2  UNL     1      26.738  63.211   9.421  1.00  0.00    -0.269 OA
HETATM   19  N3  UNL     1      25.847  64.825  10.825  1.00  0.00    -0.332 N
ATOM     20  H3  UNL     1      25.363  65.722  10.795  1.00  0.00     0.168 HD
BRANCH  19  21
HETATM   21  C9  UNL     1      26.066  64.335  12.114  1.00  0.00     0.122 C
HETATM   22  C10 UNL     1      27.323  64.533  12.772  1.00  0.00     0.064 A
HETATM   23  C11 UNL     1      28.567  63.931  12.397  1.00  0.00     0.119 A
HETATM   24  N5  UNL     1      27.572  65.304  13.817  1.00  0.00    -0.350 N
HETATM   25  N4  UNL     1      29.466  64.390  13.259  1.00  0.00    -0.360 N
HETATM   26  C12 UNL     1      28.844  65.253  14.154  1.00  0.00     0.180 A
ATOM     27  H4  UNL     1      30.456  64.147  13.265  1.00  0.00     0.166 HD
ATOM     28  H5  UNL     1      26.870  65.866  14.300  1.00  0.00     0.166 HD
ENDBRANCH  19  21
ENDBRANCH   4  17
ENDBRANCH   1   4
TORSDOF 7
ENDMDL