MODEL 2
REMARK VINA RESULT: -6.752351771      1.024      1.227
REMARK  9 active torsions:
REMARK  status: ('A' for Active; 'I' for Inactive)
REMARK    1  A    between atoms: N1_1  and  C1_5
REMARK    2  A    between atoms: C1_5  and  C2_6
REMARK    3  A    between atoms: C2_6  and  C3_7
REMARK    4  A    between atoms: C3_7  and  N2_8
REMARK    5  A    between atoms: C3_7  and  C13_25
REMARK       I    between atoms: N2_8  and  C4_10
REMARK    6  A    between atoms: C4_10  and  C5_12
REMARK    7  A    between atoms: C5_12  and  C6_13
REMARK    8  A    between atoms: C6_13  and  C7_14
REMARK    9  A    between atoms: C7_14  and  C8_15
ROOT
HETATM    1  N2  UNL     1      28.489  65.831   9.358  1.00  0.00    -0.346 N
ATOM      2  H2  UNL     1      27.741  66.525   9.365  1.00  0.00     0.163 HD
HETATM    3  C4  UNL     1      28.313  64.644  10.150  1.00  0.00     0.228 C
HETATM    4  O1  UNL     1      29.282  63.799  10.010  1.00  0.00    -0.273 OA
ENDROOT
BRANCH   3   5
HETATM    5  C5  UNL     1      27.225  64.355  11.028  1.00  0.00     0.065 C
HETATM    6  C9  UNL     1      27.599  63.103  11.842  1.00  0.00     0.022 C
HETATM    7  C10 UNL     1      27.897  63.390  13.264  1.00  0.00     0.029 C
HETATM    8  C11 UNL     1      28.900  64.490  13.399  1.00  0.00     0.232 C
HETATM    9  N4  UNL     1      28.487  65.663  12.633  1.00  0.00    -0.074 N
HETATM   10  C12 UNL     1      27.179  65.502  12.088  1.00  0.00     0.251 C
ATOM     11  H42 UNL     1      28.556  66.514  13.190  1.00  0.00     0.277 HD
ATOM     12  H41 UNL     1      29.167  65.892  11.908  1.00  0.00     0.277 HD
BRANCH   5  13
HETATM   13  C6  UNL     1      25.818  64.205  10.624  1.00  0.00     0.029 C
BRANCH  13  14
HETATM   14  C7  UNL     1      25.188  62.871  10.741  1.00  0.00     0.101 C
BRANCH  14  15
HETATM   15  C8  UNL     1      25.237  62.229   9.393  1.00  0.00     0.231 C
HETATM   16  N3  UNL     1      24.278  62.681   8.435  1.00  0.00    -0.062 NA
HETATM   17  O2  UNL     1      26.053  61.347   9.094  1.00  0.00    -0.277 OA
ENDBRANCH  14  15
ENDBRANCH  13  14
ENDBRANCH   5  13
ENDBRANCH   3   5
BRANCH   1  18
HETATM   18  C3  UNL     1      29.644  66.103   8.561  1.00  0.00     0.187 C
BRANCH  18  19
HETATM   19  C2  UNL     1      30.581  66.812   9.545  1.00  0.00     0.063 C
BRANCH  19  20
HETATM   20  C1  UNL     1      31.977  66.492   9.721  1.00  0.00     0.232 C
BRANCH  20  21
HETATM   21  N1  UNL     1      32.012  65.034  10.021  1.00  0.00    -0.079 N
ATOM     22  H13 UNL     1      31.534  64.781  10.885  1.00  0.00     0.274 HD
ATOM     23  H12 UNL     1      31.435  64.471   9.396  1.00  0.00     0.274 HD
ATOM     24  H11 UNL     1      33.000  64.779  10.009  1.00  0.00     0.274 HD
ENDBRANCH  20  21
ENDBRANCH  19  20
ENDBRANCH  18  19
BRANCH  18  25
HETATM   25  C13 UNL     1      29.372  66.908   7.385  1.00  0.00     0.196 C
HETATM   26  O3  UNL     1      30.242  67.647   6.805  1.00  0.00    -0.646 OA
HETATM   27  O4  UNL     1      28.124  66.943   6.816  1.00  0.00    -0.646 OA
ENDBRANCH  18  25
ENDBRANCH   1  18
TORSDOF 9
ENDMDL