MODEL 4
REMARK VINA RESULT: -7.223393994      2.323      3.091
REMARK  9 active torsions:
REMARK  status: ('A' for Active; 'I' for Inactive)
REMARK    1  A    between atoms: C1_2  and  C2_4
REMARK    2  A    between atoms: C2_4  and  C3_5
REMARK    3  A    between atoms: C2_4  and  N4_12
REMARK    4  A    between atoms: C3_5  and  C4_6
REMARK    5  A    between atoms: C4_6  and  N2_7
REMARK    6  A    between atoms: N2_7  and  N3_9
REMARK    7  A    between atoms: N3_9  and  C5_10
REMARK       I    between atoms: N4_12  and  C6_14
REMARK    8  A    between atoms: C6_14  and  C7_16
REMARK    9  A    between atoms: C8_17  and  C9_18
ROOT
HETATM    1  N4  UNL     1      25.701  64.677   9.824  1.00  0.00    -0.323 N
ATOM      2  H4  UNL     1      26.516  64.110   9.589  1.00  0.00     0.169 HD
HETATM    3  C6  UNL     1      25.780  65.903   9.221  1.00  0.00     0.245 C
HETATM    4  O3  UNL     1      24.947  66.806   9.206  1.00  0.00    -0.268 OA
ENDROOT
BRANCH   1   5
HETATM    5  C2  UNL     1      24.829  63.960  10.675  1.00  0.00     0.079 C
BRANCH   5   6
HETATM    6  C1  UNL     1      24.166  64.492  11.804  1.00  0.00     0.277 C
HETATM    7  N1  UNL     1      22.930  65.285  11.502  1.00  0.00    -0.056 NA
HETATM    8  O1  UNL     1      24.447  64.399  13.032  1.00  0.00    -0.270 OA
ENDBRANCH   5   6
BRANCH   5   9
HETATM    9  C3  UNL     1      24.973  62.508  10.271  1.00  0.00     0.084 C
BRANCH   9  10
HETATM   10  C4  UNL     1      26.277  62.099   9.633  1.00  0.00     0.160 C
BRANCH  10  11
HETATM   11  N2  UNL     1      27.140  61.629  10.736  1.00  0.00    -0.269 N
ATOM     12  H2  UNL     1      27.303  60.635  10.895  1.00  0.00     0.195 HD
BRANCH  11  13
HETATM   13  N3  UNL     1      27.691  62.548  11.507  1.00  0.00    -0.302 NA
BRANCH  13  14
HETATM   14  C5  UNL     1      28.267  63.530  12.322  1.00  0.00     0.466 C
HETATM   15  O2  UNL     1      29.304  64.262  12.054  1.00  0.00    -0.266 OA
ENDBRANCH  13  14
ENDBRANCH  11  13
ENDBRANCH  10  11
ENDBRANCH   9  10
ENDBRANCH   5   9
ENDBRANCH   1   5
BRANCH   3  16
HETATM   16  C7  UNL     1      27.114  66.156   8.522  1.00  0.00     0.075 C
HETATM   17  C8  UNL     1      28.127  66.420   9.267  1.00  0.00     0.017 C
BRANCH  17  18
HETATM   18  C9  UNL     1      29.490  66.654   8.771  1.00  0.00    -0.036 A
HETATM   19  C10 UNL     1      29.657  67.005   7.469  1.00  0.00     0.011 A
HETATM   20  C11 UNL     1      30.887  67.225   6.884  1.00  0.00     0.001 A
HETATM   21  C12 UNL     1      32.052  67.101   7.640  1.00  0.00     0.000 A
HETATM   22  C13 UNL     1      31.903  66.748   8.952  1.00  0.00     0.001 A
HETATM   23  C14 UNL     1      30.644  66.529   9.501  1.00  0.00     0.011 A
ENDBRANCH  17  18
ENDBRANCH   3  16
TORSDOF 9
ENDMDL