MODEL 1
REMARK VINA RESULT: -7.023954516      0.000      0.000
REMARK  9 active torsions:
REMARK  status: ('A' for Active; 'I' for Inactive)
REMARK    1  A    between atoms: C2_2  and  C4_4
REMARK    2  A    between atoms: C4_4  and  C5_5
REMARK    3  A    between atoms: C5_5  and  N1_6
REMARK    4  A    between atoms: C5_5  and  C13_23
REMARK       I    between atoms: N1_6  and  C6_8
REMARK    5  A    between atoms: C6_8  and  C7_10
REMARK    6  A    between atoms: C7_10  and  C8_11
REMARK    7  A    between atoms: C7_10  and  N4_19
REMARK    8  A    between atoms: C8_11  and  C9_12
REMARK    9  A    between atoms: N4_19  and  C12_21
ROOT
HETATM    1  C7  UNL     1      28.447  66.524   9.466  1.00  0.00     0.181 C
ENDROOT
BRANCH   1   2
HETATM    2  C6  UNL     1      28.701  65.207  10.078  1.00  0.00     0.241 C
HETATM    3  N1  UNL     1      27.703  64.193  10.292  1.00  0.00    -0.346 N
ATOM      4  H1  UNL     1      26.740  64.376  10.006  1.00  0.00     0.163 HD
HETATM    5  O1  UNL     1      29.861  64.934  10.439  1.00  0.00    -0.271 OA
BRANCH   3   6
HETATM    6  C5  UNL     1      28.025  62.928  10.897  1.00  0.00     0.177 C
BRANCH   6   7
HETATM    7  C4  UNL     1      27.928  62.839  12.372  1.00  0.00     0.067 C
BRANCH   7   8
HETATM    8  C2  UNL     1      27.037  63.737  13.078  1.00  0.00    -0.091 C
HETATM    9  C1  UNL     1      27.525  64.776  13.744  1.00  0.00     0.014 C
HETATM   10  C3  UNL     1      25.574  63.551  13.077  1.00  0.00     0.042 C
ENDBRANCH   7   8
ENDBRANCH   6   7
BRANCH   6  11
HETATM   11  C13 UNL     1      27.222  61.856  10.212  1.00  0.00     0.254 C
HETATM   12  N5  UNL     1      26.223  62.189   9.297  1.00  0.00    -0.060 NA
HETATM   13  O3  UNL     1      27.450  60.667  10.464  1.00  0.00    -0.275 OA
ENDBRANCH   6  11
ENDBRANCH   3   6
ENDBRANCH   1   2
BRANCH   1  14
HETATM   14  C8  UNL     1      29.000  66.595   8.059  1.00  0.00     0.093 C
BRANCH  14  15
HETATM   15  C9  UNL     1      30.452  66.672   7.951  1.00  0.00     0.028 A
HETATM   16  C10 UNL     1      31.160  66.444   6.790  1.00  0.00     0.114 A
HETATM   17  N2  UNL     1      32.466  66.606   7.020  1.00  0.00    -0.360 N
HETATM   18  C11 UNL     1      32.595  66.934   8.315  1.00  0.00     0.180 A
ATOM     19  H2  UNL     1      33.220  66.501   6.342  1.00  0.00     0.166 HD
HETATM   20  N3  UNL     1      31.382  66.977   8.890  1.00  0.00    -0.354 N
ATOM     21  H3  UNL     1      31.193  67.200   9.866  1.00  0.00     0.166 HD
ENDBRANCH  14  15
ENDBRANCH   1  14
BRANCH   1  22
HETATM   22  N4  UNL     1      27.014  66.763   9.311  1.00  0.00    -0.355 N
ATOM     23  H4  UNL     1      26.488  67.159  10.090  1.00  0.00     0.162 HD
BRANCH  22  24
HETATM   24  C12 UNL     1      26.337  66.458   8.105  1.00  0.00     0.349 C
HETATM   25  O2  UNL     1      25.907  65.295   7.943  1.00  0.00    -0.284 OA
ENDBRANCH  22  24
ENDBRANCH   1  22
TORSDOF 9
ENDMDL