MODEL 1
REMARK VINA RESULT: -6.658377180      0.000      0.000
REMARK  9 active torsions:
REMARK  status: ('A' for Active; 'I' for Inactive)
REMARK    1  A    between atoms: C2_2  and  N1_3
REMARK    2  A    between atoms: C2_2  and  C13_23
REMARK    3  A    between atoms: N1_3  and  C3_5
REMARK    4  A    between atoms: C3_5  and  C4_6
REMARK    5  A    between atoms: C3_5  and  C8_14
REMARK    6  A    between atoms: C4_6  and  C5_7
REMARK    7  A    between atoms: C5_7  and  C6_8
REMARK    8  A    between atoms: C6_8  and  N2_9
REMARK       I    between atoms: N2_9  and  C7_11
REMARK    9  A    between atoms: C8_14  and  N4_15
ROOT
HETATM    1  C3  UNL     1      29.002  66.699   9.736  1.00  0.00     0.113 C
ENDROOT
BRANCH   1   2
HETATM    2  N1  UNL     1      28.018  65.699   9.417  1.00  0.00    -0.403 N
ATOM      3  H1  UNL     1      28.255  64.713   9.529  1.00  0.00     0.154 HD
BRANCH   2   4
HETATM    4  C2  UNL     1      26.750  66.047   8.958  1.00  0.00     0.162 C
HETATM    5  C1  UNL     1      26.506  66.522   7.585  1.00  0.00     0.041 C
BRANCH   4   6
HETATM    6  C13 UNL     1      25.680  65.049   9.282  1.00  0.00     0.253 C
HETATM    7  N5  UNL     1      25.419  64.088   8.285  1.00  0.00    -0.060 NA
HETATM    8  O2  UNL     1      25.021  65.001  10.327  1.00  0.00    -0.275 OA
ENDBRANCH   4   6
ENDBRANCH   2   4
ENDBRANCH   1   2
BRANCH   1   9
HETATM    9  C4  UNL     1      29.443  66.692  11.156  1.00  0.00     0.029 C
BRANCH   9  10
HETATM   10  C5  UNL     1      28.532  66.077  12.170  1.00  0.00     0.022 C
BRANCH  10  11
HETATM   11  C6  UNL     1      29.076  64.731  12.645  1.00  0.00     0.124 C
BRANCH  11  12
HETATM   12  N2  UNL     1      28.132  63.713  12.289  1.00  0.00    -0.345 N
HETATM   13  C7  UNL     1      28.080  62.968  11.093  1.00  0.00     0.328 C
HETATM   14  N3  UNL     1      27.046  61.975  10.915  1.00  0.00    -0.040 NA
HETATM   15  O1  UNL     1      28.917  63.154  10.178  1.00  0.00    -0.251 OA
ATOM     16  H2  UNL     1      27.414  63.503  12.982  1.00  0.00     0.163 HD
ENDBRANCH  11  12
ENDBRANCH  10  11
ENDBRANCH   9  10
ENDBRANCH   1   9
BRANCH   1  17
HETATM   17  C8  UNL     1      30.154  66.439   8.801  1.00  0.00     0.143 C
HETATM   18  C9  UNL     1      31.468  66.958   9.434  1.00  0.00     0.041 C
HETATM   19  C10 UNL     1      32.401  66.862   8.231  1.00  0.00     0.003 C
HETATM   20  C11 UNL     1      31.552  67.029   7.012  1.00  0.00     0.003 C
HETATM   21  C12 UNL     1      30.141  67.328   7.561  1.00  0.00     0.041 C
BRANCH  17  22
HETATM   22  N4  UNL     1      30.412  65.134   8.395  1.00  0.00    -0.068 N
ATOM     23  H43 UNL     1      29.877  64.496   8.984  1.00  0.00     0.275 HD
ATOM     24  H42 UNL     1      29.974  64.980   7.486  1.00  0.00     0.275 HD
ATOM     25  H41 UNL     1      31.378  64.812   8.353  1.00  0.00     0.275 HD
ENDBRANCH  17  22
ENDBRANCH   1  17
TORSDOF 9
ENDMDL