MODEL 3
REMARK VINA RESULT: -6.993931729      2.145      6.059
REMARK  11 active torsions:
REMARK  status: ('A' for Active; 'I' for Inactive)
REMARK    1  A    between atoms: N1_2  and  C2_4
REMARK    2  A    between atoms: C2_4  and  C3_8
REMARK    3  A    between atoms: C3_8  and  C4_9
REMARK    4  A    between atoms: C3_8  and  N3_15
REMARK    5  A    between atoms: C4_9  and  C5_10
REMARK       I    between atoms: N3_15  and  C10_16
REMARK    6  A    between atoms: C10_16  and  C11_18
REMARK    7  A    between atoms: C11_18  and  N4_19
REMARK    8  A    between atoms: C11_18  and  C12_23
REMARK    9  A    between atoms: C12_23  and  C13_24
REMARK   10  A    between atoms: C13_24  and  C15_26
REMARK   11  A    between atoms: C15_26  and  N5_27
ROOT
HETATM    1  N3  UNL     1      28.813  64.290  10.844  1.00  0.00    -0.400 NA
HETATM    2  C10 UNL     1      29.660  65.038  10.061  1.00  0.00     0.318 C
HETATM    3  O1  UNL     1      30.918  64.826   9.985  1.00  0.00    -0.255 OA
ENDROOT
BRANCH   1   4
HETATM    4  C3  UNL     1      27.983  63.547  11.620  1.00  0.00     0.233 C
BRANCH   4   5
HETATM    5  C2  UNL     1      28.494  63.431  13.021  1.00  0.00     0.107 C
HETATM    6  N2  UNL     1      28.067  62.477  13.738  1.00  0.00    -0.387 N
ATOM      7  H22 UNL     1      28.415  62.397  14.694  1.00  0.00     0.157 HD
ATOM      8  H21 UNL     1      27.399  61.787  13.391  1.00  0.00     0.157 HD
BRANCH   5   9
HETATM    9  N1  UNL     1      29.409  64.375  13.498  1.00  0.00    -0.382 N
HETATM   10  C1  UNL     1      29.004  65.586  14.177  1.00  0.00     0.147 C
ATOM     11  H1  UNL     1      30.406  64.203  13.360  1.00  0.00     0.160 HD
ENDBRANCH   5   9
ENDBRANCH   4   5
BRANCH   4  12
HETATM   12  C4  UNL     1      26.572  64.169  11.833  1.00  0.00     0.052 C
BRANCH  12  13
HETATM   13  C5  UNL     1      25.466  63.356  11.293  1.00  0.00    -0.011 C
HETATM   14  C6  UNL     1      24.203  64.118  11.099  1.00  0.00     0.005 C
HETATM   15  C7  UNL     1      24.257  64.695   9.694  1.00  0.00     0.000 C
HETATM   16  C8  UNL     1      25.378  64.010   8.976  1.00  0.00     0.000 C
HETATM   17  C9  UNL     1      25.895  62.915   9.886  1.00  0.00     0.005 C
ENDBRANCH  12  13
ENDBRANCH   4  12
ENDBRANCH   1   4
BRANCH   2  18
HETATM   18  C11 UNL     1      29.258  66.209   9.177  1.00  0.00     0.289 C
BRANCH  18  19
HETATM   19  N4  UNL     1      28.363  67.039   9.885  1.00  0.00    -0.065 N
ATOM     20  H43 UNL     1      28.804  67.901  10.205  1.00  0.00     0.275 HD
ATOM     21  H42 UNL     1      27.657  67.455   9.278  1.00  0.00     0.275 HD
ATOM     22  H41 UNL     1      27.949  66.508  10.652  1.00  0.00     0.275 HD
ENDBRANCH  18  19
BRANCH  18  23
HETATM   23  C12 UNL     1      30.535  66.891   8.831  1.00  0.00     0.049 C
BRANCH  23  24
HETATM   24  C13 UNL     1      30.769  67.192   7.392  1.00  0.00     0.009 C
HETATM   25  C14 UNL     1      29.619  66.760   6.512  1.00  0.00     0.011 C
BRANCH  24  26
HETATM   26  C15 UNL     1      32.029  66.581   6.844  1.00  0.00     0.234 C
BRANCH  26  27
HETATM   27  N5  UNL     1      32.979  66.464   7.931  1.00  0.00    -0.079 N
ATOM     28  H53 UNL     1      32.791  67.116   8.692  1.00  0.00     0.274 HD
ATOM     29  H52 UNL     1      32.868  65.600   8.461  1.00  0.00     0.274 HD
ATOM     30  H51 UNL     1      33.917  66.571   7.543  1.00  0.00     0.274 HD
ENDBRANCH  26  27
ENDBRANCH  24  26
ENDBRANCH  23  24
ENDBRANCH  18  23
ENDBRANCH   2  18
TORSDOF 11
ENDMDL