MODEL 2
REMARK VINA RESULT: -6.786842558      2.359      5.764
REMARK  9 active torsions:
REMARK  status: ('A' for Active; 'I' for Inactive)
REMARK    1  A    between atoms: N1_2  and  C2_5
REMARK    2  A    between atoms: C2_5  and  C3_6
REMARK    3  A    between atoms: C3_6  and  N2_7
REMARK    4  A    between atoms: N2_7  and  C4_10
REMARK    5  A    between atoms: C4_10  and  C5_11
REMARK    6  A    between atoms: C4_10  and  C10_22
REMARK    7  A    between atoms: C5_11  and  C6_12
REMARK    8  A    between atoms: C6_12  and  C7_13
REMARK    9  A    between atoms: C7_13  and  N3_15
REMARK       I    between atoms: N3_15  and  C9_17
REMARK       I    between atoms: C10_22  and  N6_24
ROOT
HETATM    1  C4  UNL     1      28.103  62.961  10.826  1.00  0.00     0.277 C
ENDROOT
BRANCH   1   2
HETATM    2  N2  UNL     1      27.763  62.619  12.195  1.00  0.00    -0.061 N
ATOM      3  H22 UNL     1      28.378  61.888  12.552  1.00  0.00     0.278 HD
ATOM      4  H21 UNL     1      26.873  62.123  12.237  1.00  0.00     0.278 HD
BRANCH   2   5
HETATM    5  C3  UNL     1      27.759  63.760  13.070  1.00  0.00     0.260 C
BRANCH   5   6
HETATM    6  C2  UNL     1      26.518  63.846  13.917  1.00  0.00     0.259 C
BRANCH   6   7
HETATM    7  N1  UNL     1      25.459  62.969  13.518  1.00  0.00    -0.077 N
HETATM    8  C1  UNL     1      24.346  63.663  12.905  1.00  0.00     0.267 C
ATOM      9  H12 UNL     1      25.143  62.400  14.303  1.00  0.00     0.276 HD
ATOM     10  H11 UNL     1      25.809  62.231  12.907  1.00  0.00     0.276 HD
ENDBRANCH   6   7
ENDBRANCH   5   6
ENDBRANCH   2   5
ENDBRANCH   1   2
BRANCH   1  11
HETATM   11  C5  UNL     1      28.688  64.375  10.908  1.00  0.00     0.045 C
BRANCH  11  12
HETATM   12  C6  UNL     1      29.807  64.440   9.922  1.00  0.00     0.027 C
BRANCH  12  13
HETATM   13  C7  UNL     1      29.985  65.745   9.233  1.00  0.00     0.080 C
HETATM   14  C8  UNL     1      30.491  66.837  10.144  1.00  0.00     0.032 C
BRANCH  13  15
HETATM   15  N3  UNL     1      30.802  65.736   8.063  1.00  0.00    -0.361 N
HETATM   16  C9  UNL     1      30.389  66.546   6.971  1.00  0.00     0.182 C
HETATM   17  N4  UNL     1      31.208  67.444   6.555  1.00  0.00    -0.374 N
HETATM   18  N5  UNL     1      29.142  66.410   6.333  1.00  0.00    -0.064 NA
ATOM     19  H42 UNL     1      32.112  67.542   7.018  1.00  0.00     0.158 HD
ATOM     20  H41 UNL     1      30.911  68.025   5.771  1.00  0.00     0.158 HD
ATOM     21  H3  UNL     1      31.649  65.170   8.013  1.00  0.00     0.162 HD
ENDBRANCH  13  15
ENDBRANCH  12  13
ENDBRANCH  11  12
ENDBRANCH   1  11
BRANCH   1  22
HETATM   22  C10 UNL     1      26.940  62.911   9.941  1.00  0.00     0.250 C
HETATM   23  O1  UNL     1      26.636  61.828   9.364  1.00  0.00    -0.271 OA
HETATM   24  N6  UNL     1      26.121  64.028   9.689  1.00  0.00    -0.350 N
HETATM   25  C11 UNL     1      26.203  65.406  10.180  1.00  0.00     0.126 C
HETATM   26  C14 UNL     1      24.929  64.073   8.824  1.00  0.00     0.126 C
HETATM   27  C12 UNL     1      25.898  66.237   8.925  1.00  0.00     0.021 C
HETATM   28  C13 UNL     1      25.219  65.304   7.954  1.00  0.00     0.021 C
ENDBRANCH   1  22
TORSDOF 9
ENDMDL