MODEL 2
REMARK VINA RESULT: -7.155121685      1.868      2.186
REMARK  4 active torsions:
REMARK  status: ('A' for Active; 'I' for Inactive)
REMARK       I    between atoms: C1_4  and  N3_6
REMARK    1  A    between atoms: N3_6  and  O1_8
REMARK    2  A    between atoms: O1_8  and  C2_9
REMARK    3  A    between atoms: C2_9  and  C3_11
REMARK    4  A    between atoms: C5_18  and  N6_19
ROOT
HETATM    1  C3  UNL     1      29.036  65.720   9.090  1.00  0.00     0.202 A
HETATM    2  N4  UNL     1      29.384  66.341   7.952  1.00  0.00    -0.288 N
ATOM      3  H4  UNL     1      28.662  66.742   7.353  1.00  0.00     0.172 HD
HETATM    4  C4  UNL     1      30.680  66.440   7.596  1.00  0.00     0.340 A
HETATM    5  O3  UNL     1      31.011  67.031   6.515  1.00  0.00    -0.246 OA
HETATM    6  N5  UNL     1      31.641  65.919   8.370  1.00  0.00    -0.141 N
ATOM      7  H5  UNL     1      32.617  66.002   8.087  1.00  0.00     0.189 HD
HETATM    8  C5  UNL     1      31.326  65.282   9.527  1.00  0.00     0.681 A
HETATM    9  N7  UNL     1      30.038  65.213   9.833  1.00  0.00    -0.170 N
ATOM     10  H7  UNL     1      29.786  64.739  10.701  1.00  0.00     0.186 HD
ENDROOT
BRANCH   1  11
HETATM   11  C2  UNL     1      27.652  65.586   9.521  1.00  0.00     0.350 C
HETATM   12  O2  UNL     1      27.183  66.437  10.315  1.00  0.00    -0.254 OA
BRANCH  11  13
HETATM   13  O1  UNL     1      26.822  64.564   9.097  1.00  0.00    -0.190 OA
BRANCH  13  14
HETATM   14  N3  UNL     1      25.795  64.728   8.210  1.00  0.00    -0.229 N
HETATM   15  C1  UNL     1      24.575  64.051   8.352  1.00  0.00     0.206 C
HETATM   16  N1  UNL     1      23.457  64.669   8.637  1.00  0.00    -0.372 N
HETATM   17  N2  UNL     1      24.455  62.645   8.198  1.00  0.00    -0.062 NA
ATOM     18  H12 UNL     1      22.570  64.177   8.740  1.00  0.00     0.158 HD
ATOM     19  H11 UNL     1      23.544  65.679   8.747  1.00  0.00     0.158 HD
ATOM     20  H3  UNL     1      25.919  65.362   7.421  1.00  0.00     0.197 HD
ENDBRANCH  13  14
ENDBRANCH  11  13
ENDBRANCH   1  11
BRANCH   8  21
HETATM   21  N6  UNL     1      32.233  64.775  10.285  1.00  0.00    -0.234 N
ATOM     22  H62 UNL     1      33.075  65.293  10.539  1.00  0.00     0.174 HD
ATOM     23  H61 UNL     1      32.147  63.832  10.663  1.00  0.00     0.174 HD
ENDBRANCH   8  21
TORSDOF 4
ENDMDL