MODEL 3
REMARK VINA RESULT: -6.241707323      2.104      5.103
REMARK  4 active torsions:
REMARK  status: ('A' for Active; 'I' for Inactive)
REMARK    1  A    between atoms: C2_5  and  C3_6
REMARK    2  A    between atoms: C3_6  and  N3_7
REMARK    3  A    between atoms: C3_6  and  N4_11
REMARK    4  A    between atoms: C6_20  and  N6_21
ROOT
HETATM    1  C1  UNL     1      29.161  65.933   6.018  1.00  0.00     0.179 C
HETATM    2  N1  UNL     1      28.625  65.879   7.381  1.00  0.00    -0.280 N
HETATM    3  N2  UNL     1      27.379  66.056   7.716  1.00  0.00    -0.296 N
ATOM      4  H2  UNL     1      26.617  66.255   7.067  1.00  0.00     0.187 HD
HETATM    5  C2  UNL     1      27.250  65.934   9.066  1.00  0.00     0.102 A
HETATM    6  C4  UNL     1      28.510  65.669   9.552  1.00  0.00     0.106 A
HETATM    7  C5  UNL     1      29.046  65.443  10.800  1.00  0.00     0.275 A
HETATM    8  O1  UNL     1      28.349  65.453  11.820  1.00  0.00    -0.267 OA
HETATM    9  N5  UNL     1      30.350  65.207  10.932  1.00  0.00    -0.155 N
ATOM     10  H5  UNL     1      30.728  65.042  11.866  1.00  0.00     0.187 HD
HETATM   11  C6  UNL     1      31.193  65.177   9.872  1.00  0.00     0.680 A
HETATM   12  N7  UNL     1      30.683  65.393   8.655  1.00  0.00    -0.174 N
ATOM     13  H7  UNL     1      31.300  65.374   7.843  1.00  0.00     0.186 HD
HETATM   14  C7  UNL     1      29.384  65.634   8.481  1.00  0.00     0.155 A
ENDROOT
BRANCH   5  15
HETATM   15  C3  UNL     1      26.030  66.062   9.878  1.00  0.00     0.429 C
BRANCH  15  16
HETATM   16  N3  UNL     1      26.025  67.326  10.601  1.00  0.00    -0.045 N
ATOM     17  H33 UNL     1      26.908  67.825  10.497  1.00  0.00     0.277 HD
ATOM     18  H32 UNL     1      25.410  68.011  10.162  1.00  0.00     0.277 HD
ATOM     19  H31 UNL     1      25.788  67.177  11.582  1.00  0.00     0.277 HD
ENDBRANCH  15  16
BRANCH  15  20
HETATM   20  N4  UNL     1      24.851  65.913   9.047  1.00  0.00    -0.045 N
ATOM     21  H43 UNL     1      24.465  66.816   8.770  1.00  0.00     0.277 HD
ATOM     22  H42 UNL     1      25.082  65.557   8.120  1.00  0.00     0.277 HD
ATOM     23  H41 UNL     1      24.157  65.331   9.515  1.00  0.00     0.277 HD
ENDBRANCH  15  20
ENDBRANCH   5  15
BRANCH  11  24
HETATM   24  N6  UNL     1      32.451  64.945  10.035  1.00  0.00    -0.234 N
ATOM     25  H62 UNL     1      32.789  64.010  10.269  1.00  0.00     0.174 HD
ATOM     26  H61 UNL     1      33.137  65.693   9.935  1.00  0.00     0.174 HD
ENDBRANCH  11  24
TORSDOF 4
ENDMDL