MODEL 4
REMARK VINA RESULT: -7.077797410      2.957      3.551
REMARK  4 active torsions:
REMARK  status: ('A' for Active; 'I' for Inactive)
REMARK       I    between atoms: C1_2  and  N3_6
REMARK    1  A    between atoms: N3_6  and  O1_8
REMARK    2  A    between atoms: O1_8  and  C2_9
REMARK    3  A    between atoms: C2_9  and  C3_11
REMARK    4  A    between atoms: C4_14  and  N5_15
ROOT
HETATM    1  C3  UNL     1      29.950  65.973   9.493  1.00  0.00     0.202 A
HETATM    2  N4  UNL     1      31.257  66.000   9.224  1.00  0.00    -0.170 N
ATOM      3  H4  UNL     1      31.938  65.825   9.962  1.00  0.00     0.186 HD
HETATM    4  C4  UNL     1      31.664  66.262   7.974  1.00  0.00     0.681 A
HETATM    5  N6  UNL     1      30.773  66.500   6.974  1.00  0.00    -0.141 N
ATOM      6  H6  UNL     1      31.094  66.699   6.026  1.00  0.00     0.189 HD
HETATM    7  C5  UNL     1      29.466  66.470   7.260  1.00  0.00     0.340 A
HETATM    8  O3  UNL     1      28.615  66.684   6.369  1.00  0.00    -0.246 OA
HETATM    9  N7  UNL     1      29.060  66.206   8.523  1.00  0.00    -0.288 N
ATOM     10  H7  UNL     1      28.063  66.184   8.738  1.00  0.00     0.172 HD
ENDROOT
BRANCH   1  11
HETATM   11  C2  UNL     1      29.479  65.693  10.838  1.00  0.00     0.350 C
HETATM   12  O2  UNL     1      29.215  66.630  11.630  1.00  0.00    -0.254 OA
BRANCH  11  13
HETATM   13  O1  UNL     1      29.302  64.399  11.299  1.00  0.00    -0.190 OA
BRANCH  13  14
HETATM   14  N3  UNL     1      29.220  64.181  12.637  1.00  0.00    -0.229 N
HETATM   15  C1  UNL     1      28.244  63.369  13.259  1.00  0.00     0.206 C
HETATM   16  N1  UNL     1      27.666  62.244  12.607  1.00  0.00    -0.062 NA
HETATM   17  N2  UNL     1      27.869  63.660  14.457  1.00  0.00    -0.372 N
ATOM     18  H22 UNL     1      27.164  63.075  14.905  1.00  0.00     0.158 HD
ATOM     19  H21 UNL     1      28.283  64.467  14.924  1.00  0.00     0.158 HD
ATOM     20  H3  UNL     1      29.911  64.635  13.234  1.00  0.00     0.197 HD
ENDBRANCH  13  14
ENDBRANCH  11  13
ENDBRANCH   1  11
BRANCH   4  21
HETATM   21  N5  UNL     1      32.935  66.301   7.655  1.00  0.00    -0.234 N
ATOM     22  H52 UNL     1      33.604  66.260   8.424  1.00  0.00     0.174 HD
ATOM     23  H51 UNL     1      33.245  66.369   6.686  1.00  0.00     0.174 HD
ENDBRANCH   4  21
TORSDOF 4
ENDMDL