MODEL 3
REMARK VINA RESULT: -6.894306004      1.762      2.800
REMARK  2 active torsions:
REMARK  status: ('A' for Active; 'I' for Inactive)
REMARK       I    between atoms: C1_4  and  N2_5
REMARK       I    between atoms: C1_4  and  N4_10
REMARK    1  A    between atoms: N2_5  and  N3_7
REMARK    2  A    between atoms: C4_17  and  N7_18
ROOT
HETATM    1  N1  UNL     1      26.256  66.724   9.954  1.00  0.00    -0.233 N
ATOM      2  H11 UNL     1      26.827  67.565  10.045  1.00  0.00     0.174 HD
ATOM      3  H12 UNL     1      25.240  66.753   9.870  1.00  0.00     0.174 HD
HETATM    4  C1  UNL     1      26.816  65.569   9.945  1.00  0.00     0.698 C
HETATM    5  N2  UNL     1      26.026  64.406   9.820  1.00  0.00    -0.138 N
ATOM      6  H2  UNL     1      25.118  64.447   9.358  1.00  0.00     0.205 HD
HETATM    7  N4  UNL     1      28.227  65.528  10.062  1.00  0.00    -0.133 N
HETATM    8  C2  UNL     1      28.893  65.338  11.233  1.00  0.00     0.209 A
HETATM    9  N5  UNL     1      30.191  65.366  10.919  1.00  0.00    -0.335 N
ATOM     10  H5  UNL     1      30.942  65.249  11.599  1.00  0.00     0.168 HD
HETATM   11  C3  UNL     1      30.394  65.564   9.613  1.00  0.00     0.155 A
HETATM   12  N6  UNL     1      31.450  65.675   8.793  1.00  0.00    -0.174 N
ATOM     13  H6  UNL     1      32.385  65.599   9.195  1.00  0.00     0.186 HD
HETATM   14  C4  UNL     1      31.340  65.881   7.470  1.00  0.00     0.680 A
HETATM   15  N8  UNL     1      30.112  65.982   6.944  1.00  0.00    -0.154 N
ATOM     16  H8  UNL     1      30.010  66.139   5.941  1.00  0.00     0.187 HD
HETATM   17  C5  UNL     1      29.016  65.881   7.709  1.00  0.00     0.291 A
HETATM   18  O1  UNL     1      27.892  65.980   7.174  1.00  0.00    -0.265 OA
HETATM   19  C6  UNL     1      29.126  65.669   9.066  1.00  0.00     0.170 A
ENDROOT
BRANCH   5  20
HETATM   20  N3  UNL     1      26.511  63.183  10.344  1.00  0.00    -0.331 N
ATOM     21  H32 UNL     1      25.850  62.455  10.615  1.00  0.00     0.177 HD
ATOM     22  H31 UNL     1      27.518  63.049  10.443  1.00  0.00     0.177 HD
ENDBRANCH   5  20
BRANCH  14  23
HETATM   23  N7  UNL     1      32.385  65.984   6.705  1.00  0.00    -0.234 N
ATOM     24  H72 UNL     1      32.645  66.889   6.315  1.00  0.00     0.174 HD
ATOM     25  H71 UNL     1      32.965  65.175   6.479  1.00  0.00     0.174 HD
ENDBRANCH  14  23
TORSDOF 2
ENDMDL