MODEL 5
REMARK VINA RESULT: -6.268027754      2.386      5.956
REMARK  5 active torsions:
REMARK  status: ('A' for Active; 'I' for Inactive)
REMARK       I    between atoms: C1_4  and  N3_6
REMARK    1  A    between atoms: N3_6  and  O1_8
REMARK    2  A    between atoms: O1_8  and  C2_9
REMARK       I    between atoms: C2_9  and  N4_11
REMARK    3  A    between atoms: N4_11  and  C3_13
REMARK    4  A    between atoms: C3_13  and  C4_14
REMARK       I    between atoms: C4_14  and  N5_16
REMARK    5  A    between atoms: N5_16  and  N6_18
ROOT
HETATM    1  C2  UNL     1      27.726  62.945  11.442  1.00  0.00     0.383 C
HETATM    2  O2  UNL     1      26.995  62.532  10.506  1.00  0.00    -0.236 OA
HETATM    3  N4  UNL     1      28.518  64.115  11.334  1.00  0.00    -0.327 N
ATOM      4  H4  UNL     1      29.091  64.386  12.133  1.00  0.00     0.165 HD
ENDROOT
BRANCH   1   5
HETATM    5  O1  UNL     1      27.704  62.170  12.598  1.00  0.00    -0.179 OA
BRANCH   5   6
HETATM    6  N3  UNL     1      26.902  62.492  13.664  1.00  0.00    -0.228 N
HETATM    7  C1  UNL     1      27.231  63.507  14.604  1.00  0.00     0.206 C
HETATM    8  N1  UNL     1      26.645  63.526  15.747  1.00  0.00    -0.372 N
HETATM    9  N2  UNL     1      28.189  64.516  14.343  1.00  0.00    -0.062 NA
ATOM     10  H12 UNL     1      26.881  64.254  16.421  1.00  0.00     0.158 HD
ATOM     11  H11 UNL     1      25.954  62.799  15.935  1.00  0.00     0.158 HD
ATOM     12  H3  UNL     1      26.028  61.980  13.788  1.00  0.00     0.198 HD
ENDBRANCH   5   6
ENDBRANCH   1   5
BRANCH   3  13
HETATM   13  C3  UNL     1      28.555  64.927  10.173  1.00  0.00     0.229 C
BRANCH  13  14
HETATM   14  C4  UNL     1      29.916  64.942   9.584  1.00  0.00     0.253 C
HETATM   15  O3  UNL     1      30.062  64.902   8.318  1.00  0.00    -0.270 OA
HETATM   16  N5  UNL     1      31.049  64.999  10.441  1.00  0.00    -0.275 N
ATOM     17  H5  UNL     1      30.927  65.030  11.454  1.00  0.00     0.189 HD
BRANCH  16  18
HETATM   18  N6  UNL     1      32.322  65.012   9.888  1.00  0.00    -0.343 N
ATOM     19  H62 UNL     1      32.552  65.708   9.178  1.00  0.00     0.176 HD
ATOM     20  H61 UNL     1      33.010  64.325  10.198  1.00  0.00     0.176 HD
ENDBRANCH  16  18
ENDBRANCH  13  14
ENDBRANCH   3  13
TORSDOF 5
ENDMDL