MODEL 4
REMARK VINA RESULT: -6.083373040      1.600      4.261
REMARK  3 active torsions:
REMARK  status: ('A' for Active; 'I' for Inactive)
REMARK    1  A    between atoms: N1_1  and  C1_4
REMARK    2  A    between atoms: C4_13  and  C5_14
REMARK       I    between atoms: C5_14  and  N5_16
REMARK    3  A    between atoms: N5_16  and  N6_18
ROOT
HETATM    1  C1  UNL     1      28.008  65.688   9.300  1.00  0.00     0.122 A
HETATM    2  N2  UNL     1      27.515  65.428  10.545  1.00  0.00    -0.294 N
ATOM      3  H2  UNL     1      26.511  65.521  10.698  1.00  0.00     0.172 HD
HETATM    4  C2  UNL     1      28.280  65.059  11.573  1.00  0.00     0.327 A
HETATM    5  O1  UNL     1      27.793  64.821  12.728  1.00  0.00    -0.247 OA
HETATM    6  N3  UNL     1      29.594  64.948  11.332  1.00  0.00    -0.296 N
ATOM      7  H3  UNL     1      30.202  64.667  12.101  1.00  0.00     0.171 HD
HETATM    8  C3  UNL     1      30.151  65.184  10.145  1.00  0.00     0.139 A
HETATM    9  N4  UNL     1      31.548  65.046   9.971  1.00  0.00    -0.081 NA
HETATM   10  C4  UNL     1      29.345  65.576   9.050  1.00  0.00     0.118 A
ENDROOT
BRANCH  10  11
HETATM   11  C5  UNL     1      29.976  65.824   7.787  1.00  0.00     0.276 C
HETATM   12  O2  UNL     1      29.514  65.174   6.777  1.00  0.00    -0.266 OA
HETATM   13  N5  UNL     1      31.034  66.684   7.507  1.00  0.00    -0.272 N
ATOM     14  H5  UNL     1      31.453  67.233   8.258  1.00  0.00     0.189 HD
BRANCH  13  15
HETATM   15  N6  UNL     1      31.535  66.802   6.172  1.00  0.00    -0.342 N
ATOM     16  H62 UNL     1      31.640  65.957   5.609  1.00  0.00     0.176 HD
ATOM     17  H61 UNL     1      31.781  67.716   5.794  1.00  0.00     0.176 HD
ENDBRANCH  13  15
ENDBRANCH  10  11
BRANCH   1  18
HETATM   18  N1  UNL     1      27.203  66.038   8.364  1.00  0.00    -0.384 N
ATOM     19  H12 UNL     1      26.258  66.349   8.590  1.00  0.00     0.157 HD
ATOM     20  H11 UNL     1      27.517  66.004   7.395  1.00  0.00     0.157 HD
ENDBRANCH   1  18
TORSDOF 3
ENDMDL