MODEL 2
REMARK VINA RESULT: -5.747714842      1.503      1.669
REMARK  6 active torsions:
REMARK  status: ('A' for Active; 'I' for Inactive)
REMARK    1  A    between atoms: N1_1  and  N2_4
REMARK    2  A    between atoms: N2_4  and  C1_6
REMARK    3  A    between atoms: C1_6  and  N3_8
REMARK    4  A    between atoms: N3_8  and  N4_10
REMARK    5  A    between atoms: N4_10  and  C2_12
REMARK    6  A    between atoms: N6_17  and  N7_18
ROOT
HETATM    1  N4  UNL     1      29.768  65.836  11.053  1.00  0.00    -0.129 N
ATOM      2  H4  UNL     1      29.655  66.685  11.607  1.00  0.00     0.205 HD
ENDROOT
BRANCH   1   3
HETATM    3  N3  UNL     1      29.378  64.603  11.590  1.00  0.00    -0.261 N
ATOM      4  H3  UNL     1      29.509  63.755  11.038  1.00  0.00     0.190 HD
BRANCH   3   5
HETATM    5  C1  UNL     1      28.806  64.504  12.886  1.00  0.00     0.205 C
HETATM    6  S1  UNL     1      27.968  65.745  13.535  1.00  0.00    -0.038 SA
BRANCH   5   7
HETATM    7  N2  UNL     1      28.967  63.304  13.629  1.00  0.00    -0.282 N
ATOM      8  H2  UNL     1      29.831  63.166  14.152  1.00  0.00     0.189 HD
BRANCH   7   9
HETATM    9  N1  UNL     1      27.995  62.307  13.675  1.00  0.00    -0.343 N
ATOM     10  H12 UNL     1      27.590  62.002  12.790  1.00  0.00     0.176 HD
ATOM     11  H11 UNL     1      27.680  61.880  14.547  1.00  0.00     0.176 HD
ENDBRANCH   7   9
ENDBRANCH   5   7
ENDBRANCH   3   5
ENDBRANCH   1   3
BRANCH   1  12
HETATM   12  C2  UNL     1      30.321  65.920   9.738  1.00  0.00     0.709 C
HETATM   13  N5  UNL     1      29.639  66.259   8.696  1.00  0.00    -0.222 N
HETATM   14  C3  UNL     1      30.459  66.257   7.508  1.00  0.00     0.160 C
ATOM     15  H5  UNL     1      28.647  66.497   8.710  1.00  0.00     0.177 HD
HETATM   16  C4  UNL     1      31.854  66.385   8.108  1.00  0.00     0.187 C
HETATM   17  N6  UNL     1      31.657  65.658   9.359  1.00  0.00    -0.128 N
BRANCH  17  18
HETATM   18  N7  UNL     1      32.541  64.869  10.068  1.00  0.00    -0.329 N
ATOM     19  H72 UNL     1      32.389  64.319  10.914  1.00  0.00     0.177 HD
ATOM     20  H71 UNL     1      33.521  64.725   9.826  1.00  0.00     0.177 HD
ENDBRANCH  17  18
ENDBRANCH   1  12
TORSDOF 6
ENDMDL