MODEL 3
REMARK VINA RESULT: -6.222095098      1.369      1.391
REMARK  3 active torsions:
REMARK  status: ('A' for Active; 'I' for Inactive)
REMARK       I    between atoms: N2_3  and  C2_5
REMARK       I    between atoms: C2_5  and  N4_9
REMARK    1  A    between atoms: N4_9  and  N5_11
REMARK    2  A    between atoms: C5_16  and  N7_17
REMARK    3  A    between atoms: N7_17  and  N8_19
ROOT
HETATM    1  N1  UNL     1      26.635  63.699  15.332  1.00  0.00    -0.171 NA
HETATM    2  C1  UNL     1      27.053  64.255  14.401  1.00  0.00     0.196 C
HETATM    3  N2  UNL     1      27.572  64.931  13.283  1.00  0.00    -0.125 N
ATOM      4  H2  UNL     1      27.338  65.917  13.165  1.00  0.00     0.197 HD
HETATM    5  C2  UNL     1      28.395  64.325  12.315  1.00  0.00     0.700 C
HETATM    6  N3  UNL     1      28.032  63.253  11.733  1.00  0.00    -0.233 N
ATOM      7  H31 UNL     1      28.629  62.813  11.032  1.00  0.00     0.174 HD
ATOM      8  H32 UNL     1      27.134  62.838  11.978  1.00  0.00     0.174 HD
HETATM    9  N4  UNL     1      29.639  64.900  11.977  1.00  0.00    -0.115 N
ATOM     10  H4  UNL     1      30.420  64.773  12.620  1.00  0.00     0.207 HD
ENDROOT
BRANCH   9  11
HETATM   11  N5  UNL     1      29.857  65.634  10.805  1.00  0.00    -0.204 N
HETATM   12  C3  UNL     1      28.757  66.326  10.161  1.00  0.00     0.191 C
HETATM   13  C4  UNL     1      28.694  65.767   8.746  1.00  0.00     0.161 C
HETATM   14  N6  UNL     1      30.010  65.845   8.151  1.00  0.00    -0.222 N
HETATM   15  C5  UNL     1      31.212  65.855   8.910  1.00  0.00     0.708 C
ATOM     16  H6  UNL     1      30.080  65.896   7.135  1.00  0.00     0.177 HD
HETATM   17  N9  UNL     1      31.106  65.751  10.191  1.00  0.00    -0.114 N
ATOM     18  H9  UNL     1      31.948  65.755  10.765  1.00  0.00     0.207 HD
BRANCH  15  19
HETATM   19  N7  UNL     1      32.437  65.978   8.220  1.00  0.00    -0.138 N
ATOM     20  H7  UNL     1      33.275  66.172   8.768  1.00  0.00     0.205 HD
BRANCH  19  21
HETATM   21  N8  UNL     1      32.577  65.851   6.839  1.00  0.00    -0.331 N
ATOM     22  H82 UNL     1      31.849  65.331   6.348  1.00  0.00     0.177 HD
ATOM     23  H81 UNL     1      33.351  66.241   6.301  1.00  0.00     0.177 HD
ENDBRANCH  19  21
ENDBRANCH  15  19
ENDBRANCH   9  11
TORSDOF 3
ENDMDL