MODEL 2
REMARK VINA RESULT: -6.672068885      1.210      3.183
REMARK  3 active torsions:
REMARK  status: ('A' for Active; 'I' for Inactive)
REMARK    1  A    between atoms: N1_1  and  C1_4
REMARK    2  A    between atoms: C4_13  and  C5_14
REMARK       I    between atoms: C5_14  and  N5_16
REMARK    3  A    between atoms: N5_16  and  N6_18
ROOT
HETATM    1  C1  UNL     1      30.210  65.270  10.368  1.00  0.00     0.131 A
HETATM    2  N2  UNL     1      31.567  65.143  10.323  1.00  0.00    -0.282 N
ATOM      3  H2  UNL     1      32.048  64.702  11.108  1.00  0.00     0.188 HD
HETATM    4  N3  UNL     1      32.278  65.572   9.299  1.00  0.00    -0.263 N
ATOM      5  H3  UNL     1      33.291  65.457   9.305  1.00  0.00     0.190 HD
HETATM    6  C2  UNL     1      31.684  66.158   8.246  1.00  0.00     0.285 A
HETATM    7  O1  UNL     1      32.330  66.581   7.249  1.00  0.00    -0.265 OA
HETATM    8  C3  UNL     1      30.317  66.294   8.276  1.00  0.00     0.135 A
HETATM    9  N4  UNL     1      29.668  66.914   7.167  1.00  0.00    -0.095 NA
HETATM   10  C4  UNL     1      29.517  65.856   9.339  1.00  0.00     0.108 A
ENDROOT
BRANCH  10  11
HETATM   11  C5  UNL     1      28.077  66.043   9.280  1.00  0.00     0.275 C
HETATM   12  O2  UNL     1      27.532  66.513  10.347  1.00  0.00    -0.266 OA
HETATM   13  N5  UNL     1      27.211  65.782   8.229  1.00  0.00    -0.272 N
ATOM     14  H5  UNL     1      27.576  65.407   7.353  1.00  0.00     0.189 HD
BRANCH  13  15
HETATM   15  N6  UNL     1      25.824  66.032   8.362  1.00  0.00    -0.342 N
ATOM     16  H62 UNL     1      25.463  66.949   8.098  1.00  0.00     0.176 HD
ATOM     17  H61 UNL     1      25.198  65.308   8.715  1.00  0.00     0.176 HD
ENDBRANCH  13  15
ENDBRANCH  10  11
BRANCH   1  18
HETATM   18  N1  UNL     1      29.596  64.828  11.397  1.00  0.00    -0.384 N
ATOM     19  H12 UNL     1      30.111  64.577  12.240  1.00  0.00     0.157 HD
ATOM     20  H11 UNL     1      28.581  64.737  11.350  1.00  0.00     0.157 HD
ENDBRANCH   1  18
TORSDOF 3
ENDMDL