MODEL 3
REMARK VINA RESULT: -5.837885521      1.197      4.827
REMARK  3 active torsions:
REMARK  status: ('A' for Active; 'I' for Inactive)
REMARK       I    between atoms: C1_4  and  N3_6
REMARK    1  A    between atoms: N3_6  and  C2_8
REMARK    2  A    between atoms: C2_8  and  N4_9
REMARK    3  A    between atoms: N4_9  and  C3_11
ROOT
HETATM    1  C2  UNL     1      28.951  65.397  10.073  1.00  0.00     0.156 C
HETATM    2  C6  UNL     1      29.011  66.427  11.167  1.00  0.00     0.287 C
HETATM    3  N7  UNL     1      28.093  67.238  10.360  1.00  0.00    -0.067 N
ATOM      4  H71 UNL     1      28.435  67.950   9.715  1.00  0.00     0.277 HD
ATOM      5  H72 UNL     1      27.500  67.953  10.781  1.00  0.00     0.277 HD
HETATM    6  C7  UNL     1      27.540  65.962   9.877  1.00  0.00     0.287 C
ENDROOT
BRANCH   1   7
HETATM    7  N3  UNL     1      29.849  65.652   9.001  1.00  0.00    -0.335 N
HETATM    8  C1  UNL     1      31.249  65.587   9.186  1.00  0.00     0.183 C
HETATM    9  N1  UNL     1      31.750  64.836  10.094  1.00  0.00    -0.374 N
HETATM   10  N2  UNL     1      32.107  66.357   8.363  1.00  0.00    -0.064 NA
ATOM     11  H12 UNL     1      32.761  64.788  10.228  1.00  0.00     0.158 HD
ATOM     12  H11 UNL     1      31.132  64.281  10.686  1.00  0.00     0.158 HD
ATOM     13  H3  UNL     1      29.477  65.887   8.080  1.00  0.00     0.164 HD
ENDBRANCH   1   7
BRANCH   1  14
HETATM   14  N4  UNL     1      28.928  64.030  10.498  1.00  0.00    -0.333 N
ATOM     15  H4  UNL     1      29.475  63.318  10.014  1.00  0.00     0.165 HD
BRANCH  14  16
HETATM   16  C3  UNL     1      28.113  63.698  11.619  1.00  0.00     0.173 C
HETATM   17  N5  UNL     1      26.833  63.533  11.653  1.00  0.00    -0.361 N
HETATM   18  C4  UNL     1      26.356  63.204  12.967  1.00  0.00     0.142 C
ATOM     19  H5  UNL     1      26.228  63.625  10.837  1.00  0.00     0.162 HD
HETATM   20  C5  UNL     1      27.621  62.848  13.713  1.00  0.00     0.142 C
HETATM   21  N6  UNL     1      28.636  63.494  12.920  1.00  0.00    -0.361 N
ATOM     22  H6  UNL     1      29.569  63.758  13.239  1.00  0.00     0.162 HD
ENDBRANCH  14  16
ENDBRANCH   1  14
TORSDOF 3
ENDMDL