MODEL 3
REMARK VINA RESULT: -8.338197891      1.466      2.158
REMARK  6 active torsions:
REMARK  status: ('A' for Active; 'I' for Inactive)
REMARK    1  A    between atoms: N1_1  and  C1_4
REMARK    2  A    between atoms: C2_9  and  N4_10
REMARK    3  A    between atoms: C4_12  and  N5_13
REMARK    4  A    between atoms: C4_12  and  C5_17
REMARK    5  A    between atoms: C5_17  and  N6_18
REMARK    6  A    between atoms: C14_31  and  N9_32
ROOT
HETATM    1  N4  UNL     1      28.484  64.700  10.743  1.00  0.00    -0.300 N
HETATM    2  C3  UNL     1      27.983  63.361  11.127  1.00  0.00     0.196 C
HETATM    3  C4  UNL     1      27.877  63.509  12.599  1.00  0.00     0.240 C
HETATM    4  N7  UNL     1      27.568  64.935  12.769  1.00  0.00    -0.329 N
ATOM      5  H7  UNL     1      27.143  65.356  13.595  1.00  0.00     0.164 HD
HETATM    6  C12 UNL     1      27.917  65.560  11.718  1.00  0.00     0.194 C
HETATM    7  N8  UNL     1      27.701  66.985  11.622  1.00  0.00    -0.063 NA
ENDROOT
BRANCH   1   8
HETATM    8  C2  UNL     1      29.284  65.088   9.659  1.00  0.00     0.166 A
HETATM    9  N3  UNL     1      28.666  65.616   8.557  1.00  0.00    -0.281 N
HETATM   10  N2  UNL     1      29.339  66.000   7.486  1.00  0.00    -0.282 N
ATOM     11  H3  UNL     1      27.651  65.715   8.562  1.00  0.00     0.188 HD
HETATM   12  C1  UNL     1      30.673  65.904   7.392  1.00  0.00     0.143 A
ATOM     13  H2  UNL     1      28.821  66.386   6.697  1.00  0.00     0.188 HD
HETATM   14  C14 UNL     1      31.382  65.384   8.448  1.00  0.00     0.114 A
HETATM   15  C13 UNL     1      30.652  64.982   9.576  1.00  0.00     0.191 A
HETATM   16  F1  UNL     1      31.312  64.447  10.631  1.00  0.00    -0.199 F
BRANCH  12  17
HETATM   17  N1  UNL     1      31.282  66.300   6.321  1.00  0.00    -0.383 N
ATOM     18  H12 UNL     1      30.773  66.793   5.587  1.00  0.00     0.157 HD
ATOM     19  H11 UNL     1      32.278  66.119   6.200  1.00  0.00     0.157 HD
ENDBRANCH  12  17
BRANCH  14  20
HETATM   20  N9  UNL     1      32.666  65.253   8.432  1.00  0.00    -0.393 N
ATOM     21  H92 UNL     1      33.152  65.111   7.547  1.00  0.00     0.156 HD
ATOM     22  H91 UNL     1      33.236  65.288   9.277  1.00  0.00     0.156 HD
ENDBRANCH  14  20
ENDBRANCH   1   8
BRANCH   3  23
HETATM   23  N5  UNL     1      29.151  63.332  13.241  1.00  0.00    -0.049 N
ATOM     24  H53 UNL     1      29.051  63.263  14.254  1.00  0.00     0.277 HD
ATOM     25  H52 UNL     1      29.535  62.405  13.056  1.00  0.00     0.277 HD
ATOM     26  H51 UNL     1      29.808  64.067  12.979  1.00  0.00     0.277 HD
ENDBRANCH   3  23
BRANCH   3  27
HETATM   27  C5  UNL     1      26.753  62.787  13.249  1.00  0.00     0.335 C
BRANCH  27  28
HETATM   28  N6  UNL     1      25.993  63.400  14.257  1.00  0.00     0.092 N
HETATM   29  C6  UNL     1      24.578  63.233  14.193  1.00  0.00     0.272 C
HETATM   30  C7  UNL     1      23.899  63.401  15.541  1.00  0.00     0.030 C
HETATM   31  C8  UNL     1      24.397  64.645  16.269  1.00  0.00     0.002 C
HETATM   32  C9  UNL     1      25.405  64.179  17.286  1.00  0.00     0.002 C
HETATM   33  C10 UNL     1      26.724  64.038  16.534  1.00  0.00     0.030 C
HETATM   34  C11 UNL     1      26.538  62.926  15.544  1.00  0.00     0.272 C
ENDBRANCH  27  28
ENDBRANCH   3  27
TORSDOF 6
ENDMDL