MODEL 3
REMARK VINA RESULT: -7.824754434      2.171      7.508
REMARK  6 active torsions:
REMARK  status: ('A' for Active; 'I' for Inactive)
REMARK    1  A    between atoms: C2_2  and  N1_3
REMARK    2  A    between atoms: C5_10  and  C6_11
REMARK    3  A    between atoms: C7_14  and  N5_15
REMARK    4  A    between atoms: C8_20  and  N7_21
REMARK    5  A    between atoms: N7_21  and  C9_23
REMARK    6  A    between atoms: C13_31  and  N9_32
ROOT
HETATM    1  C6  UNL     1      27.668  65.137  12.076  1.00  0.00     0.122 A
HETATM    2  N4  UNL     1      26.426  64.893  11.672  1.00  0.00    -0.186 N
ATOM      3  H4  UNL     1      25.699  64.689  12.359  1.00  0.00     0.184 HD
HETATM    4  C7  UNL     1      26.116  64.912  10.333  1.00  0.00     0.678 A
HETATM    5  N6  UNL     1      27.043  65.172   9.439  1.00  0.00    -0.174 N
ATOM      6  H6  UNL     1      26.777  65.177   8.454  1.00  0.00     0.186 HD
HETATM    7  C8  UNL     1      28.341  65.435   9.758  1.00  0.00     0.158 A
HETATM    8  C12 UNL     1      28.632  65.411  11.093  1.00  0.00     0.190 A
HETATM    9  F1  UNL     1      29.910  65.665  11.473  1.00  0.00    -0.200 F
ENDROOT
BRANCH   1  10
HETATM   10  C5  UNL     1      28.072  65.136  13.451  1.00  0.00     0.108 A
HETATM   11  N3  UNL     1      27.813  66.281  14.162  1.00  0.00    -0.334 N
HETATM   12  C4  UNL     1      28.144  66.395  15.447  1.00  0.00     0.152 A
ATOM     13  H3  UNL     1      27.357  67.064  13.694  1.00  0.00     0.168 HD
HETATM   14  N2  UNL     1      27.984  67.406  16.311  1.00  0.00    -0.335 N
HETATM   15  C14 UNL     1      28.763  65.381  16.148  1.00  0.00     0.155 A
HETATM   16  C3  UNL     1      28.492  67.024  17.512  1.00  0.00     0.186 A
ATOM     17  H2  UNL     1      27.555  68.308  16.103  1.00  0.00     0.168 HD
HETATM   18  N1  UNL     1      28.977  65.773  17.423  1.00  0.00    -0.326 N
HETATM   19  N10 UNL     1      29.021  64.267  15.477  1.00  0.00    -0.324 N
HETATM   20  C13 UNL     1      28.685  64.138  14.152  1.00  0.00     0.130 A
ATOM     21  H10 UNL     1      29.479  63.491  15.954  1.00  0.00     0.169 HD
BRANCH  18  22
HETATM   22  C2  UNL     1      29.609  64.982  18.478  1.00  0.00     0.127 C
HETATM   23  C1  UNL     1      28.673  64.805  19.654  1.00  0.00     0.027 C
ENDBRANCH  18  22
BRANCH  20  24
HETATM   24  N9  UNL     1      28.969  63.031  13.582  1.00  0.00    -0.384 N
ATOM     25  H92 UNL     1      28.435  62.210  13.864  1.00  0.00     0.157 HD
ATOM     26  H91 UNL     1      29.705  62.991  12.877  1.00  0.00     0.157 HD
ENDBRANCH  20  24
ENDBRANCH   1  10
BRANCH   4  27
HETATM   27  N5  UNL     1      24.883  64.665   9.998  1.00  0.00    -0.234 N
ATOM     28  H52 UNL     1      24.139  65.352  10.124  1.00  0.00     0.174 HD
ATOM     29  H51 UNL     1      24.678  63.748   9.600  1.00  0.00     0.174 HD
ENDBRANCH   4  27
BRANCH   7  30
HETATM   30  N7  UNL     1      29.166  65.674   8.830  1.00  0.00    -0.365 N
ATOM     31  H7  UNL     1      29.107  66.609   8.427  1.00  0.00     0.161 HD
BRANCH  30  32
HETATM   32  C9  UNL     1      30.155  64.838   8.270  1.00  0.00     0.134 C
HETATM   33  C10 UNL     1      30.291  64.960   6.771  1.00  0.00     0.259 C
HETATM   34  N8  UNL     1      31.027  66.214   7.009  1.00  0.00    -0.071 N
HETATM   35  C11 UNL     1      31.493  65.598   8.234  1.00  0.00     0.259 C
ATOM     36  H82 UNL     1      31.676  66.593   6.319  1.00  0.00     0.277 HD
ATOM     37  H81 UNL     1      30.555  67.118   7.010  1.00  0.00     0.277 HD
ENDBRANCH  30  32
ENDBRANCH   7  30
TORSDOF 6
ENDMDL