MODEL 2
REMARK VINA RESULT: -7.841941796      2.215      3.155
REMARK  7 active torsions:
REMARK  status: ('A' for Active; 'I' for Inactive)
REMARK    1  A    between atoms: C3_5  and  N2_6
REMARK    2  A    between atoms: N2_6  and  C4_8
REMARK    3  A    between atoms: C4_8  and  C5_9
REMARK    4  A    between atoms: C5_9  and  N3_10
REMARK    5  A    between atoms: N3_10  and  C6_12
REMARK    6  A    between atoms: C9_26  and  N8_27
REMARK    7  A    between atoms: N8_27  and  O2_29
ROOT
HETATM    1  C1  UNL     1      27.685  65.187   7.745  1.00  0.00     0.070 C
HETATM    2  C2  UNL     1      28.403  64.927   9.017  1.00  0.00     0.047 A
HETATM    3  N1  UNL     1      27.797  64.547  10.149  1.00  0.00    -0.194 N
ATOM      4  H1  UNL     1      26.784  64.428  10.147  1.00  0.00     0.184 HD
HETATM    5  C3  UNL     1      28.485  64.314  11.306  1.00  0.00     0.680 A
HETATM    6  N7  UNL     1      29.815  64.478  11.284  1.00  0.00    -0.173 N
ATOM      7  H7  UNL     1      30.342  64.308  12.141  1.00  0.00     0.186 HD
HETATM    8  C9  UNL     1      30.482  64.855  10.184  1.00  0.00     0.163 A
HETATM    9  C10 UNL     1      29.772  65.087   9.022  1.00  0.00     0.113 A
HETATM   10  C11 UNL     1      30.459  65.495   7.826  1.00  0.00     0.105 C
HETATM   11  N9  UNL     1      31.003  65.800   6.872  1.00  0.00    -0.191 NA
ENDROOT
BRANCH   8  12
HETATM   12  N8  UNL     1      31.763  64.995  10.233  1.00  0.00    -0.251 N
ATOM     13  H8  UNL     1      32.168  65.928  10.311  1.00  0.00     0.196 HD
BRANCH  12  14
HETATM   14  O2  UNL     1      32.583  63.903  10.180  1.00  0.00    -0.288 OA
ATOM     15  H2  UNL     1      33.516  64.006  10.030  1.00  0.00     0.244 HD
ENDBRANCH  12  14
ENDBRANCH   8  12
BRANCH   5  16
HETATM   16  N2  UNL     1      27.856  63.956  12.346  1.00  0.00    -0.221 N
ATOM     17  H2  UNL     1      27.043  64.499  12.634  1.00  0.00     0.178 HD
BRANCH  16  18
HETATM   18  C4  UNL     1      28.233  62.829  13.133  1.00  0.00     0.182 C
BRANCH  18  19
HETATM   19  C5  UNL     1      27.048  62.180  13.833  1.00  0.00     0.083 C
BRANCH  19  20
HETATM   20  N3  UNL     1      25.971  61.909  12.992  1.00  0.00    -0.350 N
ATOM     21  H3  UNL     1      26.123  61.239  12.238  1.00  0.00     0.166 HD
BRANCH  20  22
HETATM   22  C6  UNL     1      24.800  62.436  13.089  1.00  0.00     0.177 A
HETATM   23  N4  UNL     1      24.132  62.016  14.216  1.00  0.00    -0.317 N
HETATM   24  C7  UNL     1      22.916  62.379  14.590  1.00  0.00     0.160 A
ATOM     25  H4  UNL     1      24.622  61.359  14.823  1.00  0.00     0.169 HD
HETATM   26  N5  UNL     1      22.371  61.927  15.671  1.00  0.00    -0.379 N
HETATM   27  S1  UNL     1      22.120  63.478  13.551  1.00  0.00     0.025 SA
ATOM     28  H52 UNL     1      22.846  61.271  16.291  1.00  0.00     0.158 HD
ATOM     29  H51 UNL     1      21.434  62.206  15.959  1.00  0.00     0.158 HD
HETATM   30  N6  UNL     1      23.059  63.895  12.224  1.00  0.00    -0.287 N
HETATM   31  C8  UNL     1      24.282  63.306  12.183  1.00  0.00     0.295 A
ATOM     32  H6  UNL     1      22.736  64.541  11.504  1.00  0.00     0.177 HD
HETATM   33  O1  UNL     1      24.969  63.648  11.158  1.00  0.00    -0.263 OA
ENDBRANCH  20  22
ENDBRANCH  19  20
ENDBRANCH  18  19
ENDBRANCH  16  18
ENDBRANCH   5  16
TORSDOF 7
ENDMDL