MODEL 2
REMARK VINA RESULT: -7.922726364      3.236      3.845
REMARK  6 active torsions:
REMARK  status: ('A' for Active; 'I' for Inactive)
REMARK    1  A    between atoms: C2_2  and  N1_5
REMARK       I    between atoms: N1_5  and  C5_7
REMARK    2  A    between atoms: C5_7  and  C6_9
REMARK       I    between atoms: C6_9  and  N2_11
REMARK    3  A    between atoms: N2_11  and  N3_13
REMARK    4  A    between atoms: N3_13  and  C7_15
REMARK    5  A    between atoms: C8_18  and  N5_19
REMARK    6  A    between atoms: C13_26  and  N7_27
ROOT
HETATM    1  C7  UNL     1      28.445  64.371  12.315  1.00  0.00     0.163 A
HETATM    2  N4  UNL     1      29.377  64.414  11.326  1.00  0.00    -0.173 N
ATOM      3  H4  UNL     1      30.273  63.963  11.507  1.00  0.00     0.186 HD
HETATM    4  C8  UNL     1      29.212  64.996  10.141  1.00  0.00     0.683 A
HETATM    5  N6  UNL     1      28.028  65.587   9.908  1.00  0.00    -0.175 N
ATOM      6  H6  UNL     1      27.876  66.042   9.007  1.00  0.00     0.186 HD
HETATM    7  C13 UNL     1      27.039  65.602  10.813  1.00  0.00     0.143 A
HETATM    8  C14 UNL     1      27.250  64.976  12.054  1.00  0.00     0.136 A
HETATM    9  N8  UNL     1      26.152  64.981  12.974  1.00  0.00    -0.094 NA
ENDROOT
BRANCH   1  10
HETATM   10  N3  UNL     1      28.711  63.740  13.534  1.00  0.00    -0.280 N
ATOM     11  H3  UNL     1      28.947  62.747  13.513  1.00  0.00     0.188 HD
BRANCH  10  12
HETATM   12  N2  UNL     1      28.676  64.364  14.764  1.00  0.00    -0.260 N
HETATM   13  C6  UNL     1      27.729  63.970  15.768  1.00  0.00     0.327 C
HETATM   14  O2  UNL     1      26.943  63.020  15.477  1.00  0.00    -0.261 OA
ATOM     15  H2  UNL     1      29.334  65.119  14.963  1.00  0.00     0.190 HD
BRANCH  13  16
HETATM   16  C5  UNL     1      27.641  64.604  17.071  1.00  0.00     0.311 C
HETATM   17  N1  UNL     1      28.786  64.586  17.958  1.00  0.00    -0.345 N
ATOM     18  H1  UNL     1      29.647  64.131  17.658  1.00  0.00     0.163 HD
HETATM   19  O1  UNL     1      26.623  65.180  17.493  1.00  0.00    -0.262 OA
BRANCH  17  20
HETATM   20  C2  UNL     1      28.724  65.203  19.259  1.00  0.00     0.022 C
HETATM   21  C1  UNL     1      28.430  66.692  19.149  1.00  0.00     0.037 C
HETATM   22  C3  UNL     1      27.680  64.582  20.140  1.00  0.00     0.037 C
HETATM   23  C4  UNL     1      30.125  65.082  19.878  1.00  0.00     0.037 C
ENDBRANCH  17  20
ENDBRANCH  13  16
ENDBRANCH  10  12
ENDBRANCH   1  10
BRANCH   4  24
HETATM   24  N5  UNL     1      30.217  65.027   9.146  1.00  0.00    -0.217 N
HETATM   25  C9  UNL     1      29.990  65.068   7.709  1.00  0.00     0.141 C
HETATM   26  C10 UNL     1      31.266  65.607   7.157  1.00  0.00     0.022 C
HETATM   27  C11 UNL     1      32.299  65.669   8.227  1.00  0.00     0.022 C
HETATM   28  C12 UNL     1      31.636  65.018   9.414  1.00  0.00     0.141 C
ENDBRANCH   4  24
BRANCH   7  29
HETATM   29  N7  UNL     1      25.911  66.188  10.554  1.00  0.00    -0.383 N
ATOM     30  H72 UNL     1      25.861  66.933   9.859  1.00  0.00     0.157 HD
ATOM     31  H71 UNL     1      25.055  65.911  11.036  1.00  0.00     0.157 HD
ENDBRANCH   7  29
TORSDOF 6
ENDMDL