MODEL 2
REMARK VINA RESULT: -8.029197231      2.286      8.076
REMARK  6 active torsions:
REMARK  status: ('A' for Active; 'I' for Inactive)
REMARK    1  A    between atoms: C2_2  and  N1_3
REMARK    2  A    between atoms: C2_2  and  C3_7
REMARK    3  A    between atoms: C3_7  and  N2_8
REMARK    4  A    between atoms: N2_8  and  C4_10
REMARK    5  A    between atoms: C7_15  and  C8_16
REMARK    6  A    between atoms: C11_22  and  N6_23
ROOT
HETATM    1  C8  UNL     1      28.402  64.434  10.592  1.00  0.00     0.117 A
HETATM    2  N4  UNL     1      29.698  64.671  10.231  1.00  0.00    -0.339 N
ATOM      3  H4  UNL     1      30.443  64.474  10.900  1.00  0.00     0.167 HD
HETATM    4  C9  UNL     1      30.017  65.148   9.039  1.00  0.00     0.158 A
HETATM    5  C10 UNL     1      31.391  65.403   8.647  1.00  0.00     0.121 C
HETATM    6  N5  UNL     1      32.481  65.597   8.356  1.00  0.00    -0.190 NA
HETATM    7  C11 UNL     1      29.038  65.429   8.105  1.00  0.00     0.139 A
HETATM    8  N7  UNL     1      27.749  65.213   8.412  1.00  0.00    -0.315 N
ATOM      9  H7  UNL     1      27.009  65.412   7.739  1.00  0.00     0.170 HD
HETATM   10  C12 UNL     1      27.459  64.719   9.652  1.00  0.00     0.219 A
HETATM   11  F1  UNL     1      26.160  64.533   9.880  1.00  0.00    -0.184 F
ENDROOT
BRANCH   7  12
HETATM   12  N6  UNL     1      29.386  65.898   6.940  1.00  0.00    -0.383 N
ATOM     13  H62 UNL     1      30.281  65.653   6.518  1.00  0.00     0.157 HD
ATOM     14  H61 UNL     1      28.750  66.523   6.445  1.00  0.00     0.157 HD
ENDBRANCH   7  12
BRANCH   1  15
HETATM   15  C7  UNL     1      28.139  63.905  11.932  1.00  0.00     0.069 A
HETATM   16  C6  UNL     1      28.016  64.854  12.958  1.00  0.00     0.064 A
HETATM   17  C5  UNL     1      27.770  64.453  14.248  1.00  0.00     0.084 A
HETATM   18  N3  UNL     1      27.610  65.164  15.399  1.00  0.00    -0.189 N
HETATM   19  C14 UNL     1      27.644  63.112  14.533  1.00  0.00     0.144 A
HETATM   20  C4  UNL     1      27.391  64.280  16.378  1.00  0.00     0.679 A
ATOM     21  H3  UNL     1      27.651  66.179  15.495  1.00  0.00     0.184 HD
HETATM   22  N9  UNL     1      27.408  63.039  15.865  1.00  0.00    -0.184 N
ATOM     23  H9  UNL     1      27.267  62.178  16.393  1.00  0.00     0.184 HD
HETATM   24  C13 UNL     1      27.763  62.174  13.533  1.00  0.00     0.275 A
HETATM   25  N8  UNL     1      28.007  62.637  12.274  1.00  0.00    -0.319 N
HETATM   26  O1  UNL     1      27.653  60.944  13.770  1.00  0.00    -0.266 OA
ATOM     27  H8  UNL     1      28.096  61.943  11.533  1.00  0.00     0.169 HD
BRANCH  20  28
HETATM   28  N2  UNL     1      27.193  64.569  17.614  1.00  0.00    -0.224 N
ATOM     29  H2  UNL     1      26.569  63.967  18.151  1.00  0.00     0.177 HD
BRANCH  28  30
HETATM   30  C3  UNL     1      27.792  65.680  18.284  1.00  0.00     0.170 C
BRANCH  30  31
HETATM   31  C2  UNL     1      28.296  65.311  19.667  1.00  0.00     0.197 C
HETATM   32  C1  UNL     1      27.153  64.712  20.455  1.00  0.00     0.041 C
BRANCH  31  33
HETATM   33  N1  UNL     1      29.329  64.327  19.551  1.00  0.00    -0.074 N
ATOM     34  H13 UNL     1      29.914  64.467  18.728  1.00  0.00     0.274 HD
ATOM     35  H12 UNL     1      30.055  64.436  20.259  1.00  0.00     0.274 HD
ATOM     36  H11 UNL     1      28.896  63.403  19.571  1.00  0.00     0.274 HD
ENDBRANCH  31  33
ENDBRANCH  30  31
ENDBRANCH  28  30
ENDBRANCH  20  28
ENDBRANCH   1  15
TORSDOF 6
ENDMDL