MODEL 3
REMARK VINA RESULT: -7.233389160      3.086      4.152
REMARK  6 active torsions:
REMARK  status: ('A' for Active; 'I' for Inactive)
REMARK    1  A    between atoms: C2_2  and  N1_3
REMARK    2  A    between atoms: C2_2  and  C11_26
REMARK    3  A    between atoms: C4_8  and  N3_9
REMARK    4  A    between atoms: C7_12  and  N4_13
REMARK    5  A    between atoms: C10_20  and  N5_21
REMARK    6  A    between atoms: C13_29  and  O1_30
ROOT
HETATM    1  N1  UNL     1      26.564  66.205  12.290  1.00  0.00    -0.216 N
ATOM      2  H1  UNL     1      27.438  66.485  12.734  1.00  0.00     0.178 HD
HETATM    3  C3  UNL     1      26.715  65.800  11.115  1.00  0.00     0.682 A
HETATM    4  N2  UNL     1      28.000  65.789  10.631  1.00  0.00    -0.174 N
ATOM      5  H2  UNL     1      28.756  66.106  11.237  1.00  0.00     0.186 HD
HETATM    6  C4  UNL     1      28.297  65.378   9.392  1.00  0.00     0.162 A
HETATM    7  C9  UNL     1      27.294  64.941   8.538  1.00  0.00     0.204 A
HETATM    8  F1  UNL     1      27.655  64.536   7.293  1.00  0.00    -0.198 F
HETATM    9  C10 UNL     1      26.005  64.950   9.014  1.00  0.00     0.157 A
HETATM   10  N6  UNL     1      25.757  65.376  10.288  1.00  0.00    -0.174 N
ATOM     11  H6  UNL     1      24.794  65.370  10.623  1.00  0.00     0.186 HD
ENDROOT
BRANCH   1  12
HETATM   12  C2  UNL     1      25.447  66.356  13.123  1.00  0.00     0.147 C
HETATM   13  C1  UNL     1      25.306  67.707  13.698  1.00  0.00     0.039 C
BRANCH  12  14
HETATM   14  C11 UNL     1      25.331  65.216  14.077  1.00  0.00     0.061 A
HETATM   15  C12 UNL     1      26.450  64.674  14.740  1.00  0.00     0.105 A
HETATM   16  N7  UNL     1      27.803  65.137  14.708  1.00  0.00    -0.097 NA
HETATM   17  C13 UNL     1      26.014  63.594  15.477  1.00  0.00     0.107 A
HETATM   18  C14 UNL     1      24.663  63.512  15.243  1.00  0.00     0.129 A
HETATM   19  N8  UNL     1      24.267  64.482  14.407  1.00  0.00    -0.358 N
HETATM   20  C15 UNL     1      22.905  64.645  13.921  1.00  0.00     0.155 C
BRANCH  17  21
HETATM   21  O1  UNL     1      26.761  62.734  16.306  1.00  0.00    -0.357 OA
ATOM     22  H1  UNL     1      26.712  61.788  16.377  1.00  0.00     0.217 HD
ENDBRANCH  17  21
ENDBRANCH  12  14
ENDBRANCH   1  12
BRANCH   6  23
HETATM   23  N3  UNL     1      29.647  65.355   8.959  1.00  0.00    -0.362 N
HETATM   24  C5  UNL     1      30.706  64.951   9.891  1.00  0.00     0.127 C
HETATM   25  C6  UNL     1      32.008  65.137   9.195  1.00  0.00     0.054 C
HETATM   26  C7  UNL     1      31.700  65.757   7.860  1.00  0.00     0.203 C
HETATM   27  C8  UNL     1      30.224  65.657   7.681  1.00  0.00     0.157 C
BRANCH  26  28
HETATM   28  N4  UNL     1      32.428  65.018   6.816  1.00  0.00    -0.073 N
ATOM     29  H43 UNL     1      32.710  65.617   6.039  1.00  0.00     0.274 HD
ATOM     30  H42 UNL     1      33.359  64.731   7.118  1.00  0.00     0.274 HD
ATOM     31  H41 UNL     1      31.856  64.230   6.512  1.00  0.00     0.274 HD
ENDBRANCH  26  28
ENDBRANCH   6  23
BRANCH   9  32
HETATM   32  N5  UNL     1      25.059  64.566   8.231  1.00  0.00    -0.382 N
ATOM     33  H52 UNL     1      24.573  63.680   8.369  1.00  0.00     0.157 HD
ATOM     34  H51 UNL     1      24.788  65.177   7.461  1.00  0.00     0.157 HD
ENDBRANCH   9  32
TORSDOF 6
ENDMDL