MODEL 3
REMARK VINA RESULT: -8.002885977      2.256      6.874
REMARK  5 active torsions:
REMARK  status: ('A' for Active; 'I' for Inactive)
REMARK    1  A    between atoms: C2_4  and  C3_5
REMARK    2  A    between atoms: C2_4  and  C9_26
REMARK    3  A    between atoms: C6_15  and  N5_16
REMARK    4  A    between atoms: C7_21  and  N7_22
REMARK    5  A    between atoms: C9_26  and  C10_28
ROOT
HETATM    1  C3  UNL     1      27.399  64.273  12.249  1.00  0.00     0.081 A
HETATM    2  N2  UNL     1      28.244  64.675  13.290  1.00  0.00    -0.330 N
ATOM      3  H2  UNL     1      29.004  65.303  13.030  1.00  0.00     0.168 HD
HETATM    4  C4  UNL     1      28.182  64.349  14.546  1.00  0.00     0.181 A
HETATM    5 CL1  UNL     1      29.380  64.982  15.717  1.00  0.00    -0.045 Cl
HETATM    6  N3  UNL     1      27.217  63.530  14.976  1.00  0.00    -0.317 N
ATOM      7  H3  UNL     1      27.149  63.250  15.955  1.00  0.00     0.170 HD
HETATM    8  C5  UNL     1      26.341  63.096  14.055  1.00  0.00     0.139 A
HETATM    9  N4  UNL     1      25.275  62.378  14.471  1.00  0.00    -0.176 N
ATOM     10  H4  UNL     1      25.227  62.105  15.452  1.00  0.00     0.186 HD
HETATM   11  C6  UNL     1      24.269  62.005  13.652  1.00  0.00     0.679 A
HETATM   12  N6  UNL     1      24.324  62.368  12.362  1.00  0.00    -0.176 N
ATOM     13  H6  UNL     1      23.567  62.098  11.733  1.00  0.00     0.186 HD
HETATM   14  C7  UNL     1      25.371  63.088  11.878  1.00  0.00     0.131 A
HETATM   15  C8  UNL     1      26.404  63.452  12.704  1.00  0.00     0.082 A
ENDROOT
BRANCH   1  16
HETATM   16  C2  UNL     1      27.671  64.817  10.972  1.00  0.00     0.084 C
HETATM   17  N1  UNL     1      27.618  66.145  10.875  1.00  0.00    -0.391 N
HETATM   18  C1  UNL     1      27.341  67.142  11.797  1.00  0.00     0.146 C
ATOM     19  H1  UNL     1      27.822  66.497   9.939  1.00  0.00     0.159 HD
BRANCH  16  20
HETATM   20  C9  UNL     1      28.564  64.377   9.898  1.00  0.00     0.118 C
HETATM   21  N8  UNL     1      29.111  63.009  10.288  1.00  0.00    -0.096 NA
BRANCH  20  22
HETATM   22  C10 UNL     1      29.638  64.987   9.217  1.00  0.00     0.123 C
HETATM   23  N9  UNL     1      30.889  64.815   9.518  1.00  0.00    -0.375 N
HETATM   24  C11 UNL     1      31.935  65.473   8.779  1.00  0.00     0.123 C
ATOM     25  H9  UNL     1      31.135  64.201  10.295  1.00  0.00     0.161 HD
HETATM   26  C12 UNL     1      31.637  65.236   7.298  1.00  0.00     0.039 C
HETATM   27  C13 UNL     1      30.373  65.984   7.000  1.00  0.00     0.123 C
HETATM   28  N10 UNL     1      29.419  65.834   8.070  1.00  0.00    -0.375 N
ATOM     29  H10 UNL     1      28.543  66.354   8.012  1.00  0.00     0.161 HD
ENDBRANCH  20  22
ENDBRANCH  16  20
ENDBRANCH   1  16
BRANCH  14  30
HETATM   30  N7  UNL     1      25.241  63.618  10.721  1.00  0.00    -0.384 N
ATOM     31  H72 UNL     1      25.113  64.625  10.621  1.00  0.00     0.157 HD
ATOM     32  H71 UNL     1      25.070  62.996   9.932  1.00  0.00     0.157 HD
ENDBRANCH  14  30
BRANCH  11  33
HETATM   33  N5  UNL     1      23.307  61.320  14.154  1.00  0.00    -0.234 N
ATOM     34  H52 UNL     1      22.835  60.566  13.656  1.00  0.00     0.174 HD
ATOM     35  H51 UNL     1      23.003  61.545  15.101  1.00  0.00     0.174 HD
ENDBRANCH  11  33
TORSDOF 5
ENDMDL