MODEL 3
REMARK VINA RESULT: -7.924547657      1.254      1.296
REMARK  4 active torsions:
REMARK  status: ('A' for Active; 'I' for Inactive)
REMARK    1  A    between atoms: C2_2  and  N1_4
REMARK    2  A    between atoms: N1_4  and  C4_6
REMARK    3  A    between atoms: C7_14  and  N4_15
REMARK    4  A    between atoms: N4_15  and  C8_17
REMARK       I    between atoms: N5_20  and  C11_21
REMARK       I    between atoms: C11_21  and  N6_22
REMARK       I    between atoms: C11_21  and  N7_26
ROOT
HETATM    1  C4  UNL     1      29.410  64.709   9.950  1.00  0.00     0.681 A
HETATM    2  N2  UNL     1      29.657  64.033  11.102  1.00  0.00    -0.176 N
ATOM      3  H2  UNL     1      30.436  63.378  11.170  1.00  0.00     0.186 HD
HETATM    4  C5  UNL     1      28.845  64.254  12.150  1.00  0.00     0.132 A
HETATM    5  N3  UNL     1      29.034  63.643  13.259  1.00  0.00    -0.384 N
ATOM      6  H31 UNL     1      28.418  63.811  14.054  1.00  0.00     0.157 HD
ATOM      7  H32 UNL     1      29.817  62.991  13.310  1.00  0.00     0.157 HD
HETATM    8  C6  UNL     1      27.782  65.141  12.081  1.00  0.00     0.096 A
HETATM    9  C7  UNL     1      26.975  65.326  13.209  1.00  0.00     0.122 A
HETATM   10  N8  UNL     1      25.965  66.200  13.068  1.00  0.00    -0.318 N
ATOM     11  H8  UNL     1      25.344  66.376  13.857  1.00  0.00     0.170 HD
HETATM   12  C12 UNL     1      25.755  66.849  11.909  1.00  0.00     0.182 A
HETATM   13 CL1  UNL     1      24.424  67.991  11.748  1.00  0.00    -0.045 Cl
HETATM   14  N9  UNL     1      26.541  66.663  10.827  1.00  0.00    -0.317 N
ATOM     15  H9  UNL     1      26.355  67.171   9.962  1.00  0.00     0.170 HD
HETATM   16  C13 UNL     1      27.563  65.807  10.901  1.00  0.00     0.141 A
HETATM   17  N10 UNL     1      28.391  65.576   9.845  1.00  0.00    -0.175 N
ATOM     18  H10 UNL     1      28.236  66.067   8.964  1.00  0.00     0.186 HD
ENDROOT
BRANCH   9  19
HETATM   19  N4  UNL     1      27.234  64.676  14.266  1.00  0.00    -0.345 N
ATOM     20  H4  UNL     1      27.500  63.696  14.172  1.00  0.00     0.163 HD
BRANCH  19  21
HETATM   21  C8  UNL     1      27.178  65.227  15.572  1.00  0.00     0.329 C
HETATM   22  C9  UNL     1      28.272  64.801  16.525  1.00  0.00     0.088 C
HETATM   23  C10 UNL     1      27.183  64.980  17.564  1.00  0.00     0.284 C
HETATM   24  N5  UNL     1      26.216  64.756  16.503  1.00  0.00     0.169 N
HETATM   25  C11 UNL     1      25.803  63.397  16.467  1.00  0.00     0.614 C
HETATM   26  N6  UNL     1      25.189  63.001  15.208  1.00  0.00    -0.024 N
HETATM   27  N7  UNL     1      24.741  63.231  17.468  1.00  0.00    -0.024 N
ATOM     28  H63 UNL     1      24.410  63.619  14.978  1.00  0.00     0.279 HD
ATOM     29  H62 UNL     1      25.810  63.208  14.425  1.00  0.00     0.279 HD
ATOM     30  H61 UNL     1      24.893  62.026  15.181  1.00  0.00     0.279 HD
ATOM     31  H73 UNL     1      25.023  63.537  18.400  1.00  0.00     0.279 HD
ATOM     32  H72 UNL     1      23.969  63.885  17.342  1.00  0.00     0.279 HD
ATOM     33  H71 UNL     1      24.445  62.256  17.442  1.00  0.00     0.279 HD
ENDBRANCH  19  21
ENDBRANCH   9  19
BRANCH   1  34
HETATM   34  N1  UNL     1      30.210  64.468   8.976  1.00  0.00    -0.222 N
ATOM     35  H1  UNL     1      30.484  63.511   8.756  1.00  0.00     0.178 HD
BRANCH  34  36
HETATM   36  C2  UNL     1      30.715  65.571   8.197  1.00  0.00     0.091 C
HETATM   37  C1  UNL     1      30.256  65.401   6.752  1.00  0.00     0.032 C
HETATM   38  C3  UNL     1      32.238  65.462   8.195  1.00  0.00     0.032 C
ENDBRANCH  34  36
ENDBRANCH   1  34
TORSDOF 4
ENDMDL