MODEL 5
REMARK VINA RESULT: -7.561922900      1.846      3.316
REMARK  7 active torsions:
REMARK  status: ('A' for Active; 'I' for Inactive)
REMARK    1  A    between atoms: C2_2  and  N1_3
REMARK    2  A    between atoms: N1_3  and  C4_5
REMARK    3  A    between atoms: N2_8  and  C7_9
REMARK    4  A    between atoms: C9_15  and  N5_16
REMARK    5  A    between atoms: C10_21  and  N7_22
REMARK    6  A    between atoms: N7_22  and  O1_24
REMARK    7  A    between atoms: C12_27  and  N8_28
ROOT
HETATM    1  C7  UNL     1      28.553  63.907  11.541  1.00  0.00     0.683 A
HETATM    2  N3  UNL     1      27.956  64.342  10.410  1.00  0.00    -0.175 N
ATOM      3  H3  UNL     1      26.940  64.281  10.358  1.00  0.00     0.186 HD
HETATM    4  C8  UNL     1      28.605  64.847   9.352  1.00  0.00     0.154 A
HETATM    5  N4  UNL     1      27.960  65.270   8.243  1.00  0.00    -0.175 N
ATOM      6  H4  UNL     1      26.943  65.197   8.219  1.00  0.00     0.186 HD
HETATM    7  C9  UNL     1      28.584  65.782   7.168  1.00  0.00     0.679 A
HETATM    8  N6  UNL     1      29.923  65.868   7.223  1.00  0.00    -0.174 N
ATOM      9  H6  UNL     1      30.431  66.251   6.425  1.00  0.00     0.186 HD
HETATM   10  C10 UNL     1      30.611  65.459   8.305  1.00  0.00     0.158 A
HETATM   11  C11 UNL     1      29.960  64.932   9.408  1.00  0.00     0.099 A
HETATM   12  C12 UNL     1      30.601  64.499  10.545  1.00  0.00     0.132 A
HETATM   13  N9  UNL     1      29.902  63.995  11.592  1.00  0.00    -0.176 N
ATOM     14  H9  UNL     1      30.398  63.679  12.426  1.00  0.00     0.186 HD
ENDROOT
BRANCH   1  15
HETATM   15  N2  UNL     1      27.805  63.378  12.627  1.00  0.00    -0.215 N
HETATM   16  C6  UNL     1      28.339  63.069  13.937  1.00  0.00     0.143 C
HETATM   17  C5  UNL     1      27.098  63.401  14.787  1.00  0.00     0.047 C
HETATM   18  C4  UNL     1      26.069  62.655  14.009  1.00  0.00     0.098 C
HETATM   19  C13 UNL     1      26.393  63.071  12.582  1.00  0.00     0.166 C
BRANCH  18  20
HETATM   20  N1  UNL     1      24.746  62.777  14.380  1.00  0.00    -0.411 N
HETATM   21  C3  UNL     1      24.429  63.948  15.113  1.00  0.00     0.143 C
BRANCH  20  22
HETATM   22  C2  UNL     1      23.705  62.094  13.759  1.00  0.00     0.112 C
HETATM   23  C1  UNL     1      22.407  62.023  14.577  1.00  0.00     0.026 C
ENDBRANCH  20  22
ENDBRANCH  18  20
ENDBRANCH   1  15
BRANCH  12  24
HETATM   24  N8  UNL     1      31.883  64.594  10.563  1.00  0.00    -0.384 N
ATOM     25  H82 UNL     1      32.441  64.556   9.710  1.00  0.00     0.157 HD
ATOM     26  H81 UNL     1      32.324  64.713  11.475  1.00  0.00     0.157 HD
ENDBRANCH  12  24
BRANCH   7  27
HETATM   27  N5  UNL     1      27.943  66.180   6.116  1.00  0.00    -0.234 N
ATOM     28  H52 UNL     1      28.317  66.930   5.535  1.00  0.00     0.174 HD
ATOM     29  H51 UNL     1      27.056  65.768   5.827  1.00  0.00     0.174 HD
ENDBRANCH   7  27
BRANCH  10  30
HETATM   30  N7  UNL     1      31.902  65.544   8.351  1.00  0.00    -0.252 N
ATOM     31  H7  UNL     1      32.366  66.076   9.088  1.00  0.00     0.196 HD
BRANCH  30  32
HETATM   32  O1  UNL     1      32.634  64.898   7.381  1.00  0.00    -0.288 OA
ATOM     33  H1  UNL     1      32.255  64.131   6.967  1.00  0.00     0.244 HD
ENDBRANCH  30  32
ENDBRANCH  10  30
TORSDOF 7
ENDMDL