MODEL 1
REMARK VINA RESULT: -7.602229239      0.000      0.000
REMARK  8 active torsions:
REMARK  status: ('A' for Active; 'I' for Inactive)
REMARK    1  A    between atoms: C3_3  and  C4_4
REMARK    2  A    between atoms: C5_5  and  C6_6
REMARK    3  A    between atoms: N1_7  and  N2_9
REMARK    4  A    between atoms: N2_9  and  C7_11
REMARK    5  A    between atoms: C8_14  and  N4_15
REMARK    6  A    between atoms: C10_21  and  N6_22
REMARK    7  A    between atoms: N7_25  and  C11_26
REMARK    8  A    between atoms: C12_28  and  N8_29
ROOT
HETATM    1  C1  UNL     1      25.326  66.237  21.483  1.00  0.00     0.112 C
HETATM    2  C2  UNL     1      26.018  65.835  20.252  1.00  0.00    -0.106 C
HETATM    3  C3  UNL     1      26.584  65.524  19.231  1.00  0.00    -0.079 C
ENDROOT
BRANCH   3   4
HETATM    4  C4  UNL     1      27.251  65.174  18.016  1.00  0.00     0.066 C
HETATM    5  C5  UNL     1      26.659  64.458  17.088  1.00  0.00     0.027 C
BRANCH   5   6
HETATM    6  C6  UNL     1      27.287  64.076  15.840  1.00  0.00     0.108 C
HETATM    7  N1  UNL     1      27.379  62.854  15.454  1.00  0.00    -0.298 N
ATOM      8  H1  UNL     1      26.992  62.126  16.053  1.00  0.00     0.186 HD
BRANCH   7   9
HETATM    9  N2  UNL     1      27.979  62.476  14.258  1.00  0.00    -0.132 N
ATOM     10  H2  UNL     1      28.878  61.995  14.284  1.00  0.00     0.205 HD
BRANCH   9  11
HETATM   11  C7  UNL     1      27.425  62.720  13.108  1.00  0.00     0.700 A
HETATM   12  N3  UNL     1      26.274  62.089  12.817  1.00  0.00    -0.173 N
HETATM   13  C8  UNL     1      25.699  62.336  11.633  1.00  0.00     0.146 A
ATOM     14  H3  UNL     1      25.851  61.439  13.480  1.00  0.00     0.186 HD
HETATM   15  C9  UNL     1      26.236  63.212  10.698  1.00  0.00     0.138 A
HETATM   16  N5  UNL     1      25.883  63.636   9.471  1.00  0.00    -0.184 N
HETATM   17  C14 UNL     1      27.416  63.839  11.032  1.00  0.00     0.173 A
HETATM   18  C10 UNL     1      26.799  64.509   9.017  1.00  0.00     0.682 A
ATOM     19  H5  UNL     1      25.049  63.339   8.964  1.00  0.00     0.184 HD
HETATM   20  N7  UNL     1      27.744  64.626   9.995  1.00  0.00    -0.135 N
HETATM   21  N9  UNL     1      27.977  63.575  12.229  1.00  0.00    -0.172 N
ATOM     22  H9  UNL     1      28.850  64.039  12.477  1.00  0.00     0.186 HD
BRANCH  13  23
HETATM   23  N4  UNL     1      24.598  61.741  11.339  1.00  0.00    -0.383 N
ATOM     24  H42 UNL     1      24.654  60.847  10.850  1.00  0.00     0.157 HD
ATOM     25  H41 UNL     1      23.715  62.177  11.601  1.00  0.00     0.157 HD
ENDBRANCH  13  23
BRANCH  18  26
HETATM   26  N6  UNL     1      26.830  65.146   7.882  1.00  0.00    -0.234 N
ATOM     27  H62 UNL     1      27.246  64.779   7.026  1.00  0.00     0.174 HD
ATOM     28  H61 UNL     1      26.467  66.072   7.656  1.00  0.00     0.174 HD
ENDBRANCH  18  26
BRANCH  20  29
HETATM   29  C11 UNL     1      28.919  65.471   9.927  1.00  0.00     0.288 C
HETATM   30  O1  UNL     1      29.824  65.149  10.928  1.00  0.00    -0.328 OA
HETATM   31  C12 UNL     1      30.435  64.267  10.070  1.00  0.00     0.359 C
HETATM   32  C13 UNL     1      29.952  65.051   8.901  1.00  0.00     0.275 C
HETATM   33  F1  UNL     1      30.746  66.104   8.498  1.00  0.00    -0.240 F
BRANCH  31  34
HETATM   34  N8  UNL     1      31.870  64.189  10.238  1.00  0.00    -0.050 N
ATOM     35  H83 UNL     1      32.108  63.979  11.207  1.00  0.00     0.277 HD
ATOM     36  H82 UNL     1      32.241  63.354   9.787  1.00  0.00     0.277 HD
ATOM     37  H81 UNL     1      32.366  65.021   9.919  1.00  0.00     0.277 HD
ENDBRANCH  31  34
ENDBRANCH  20  29
ENDBRANCH   9  11
ENDBRANCH   7   9
ENDBRANCH   5   6
ENDBRANCH   3   4
TORSDOF 8
ENDMDL