MODEL 4
REMARK VINA RESULT: -6.690440142      1.117      1.117
REMARK  6 active torsions:
REMARK  status: ('A' for Active; 'I' for Inactive)
REMARK    1  A    between atoms: C2_2  and  N1_4
REMARK    2  A    between atoms: N1_4  and  C3_6
REMARK    3  A    between atoms: C3_6  and  C5_8
REMARK       I    between atoms: C5_8  and  N2_10
REMARK    4  A    between atoms: N2_10  and  C6_12
REMARK    5  A    between atoms: C7_17  and  S2_18
REMARK    6  A    between atoms: S2_18  and  N5_19
ROOT
HETATM    1  C6  UNL     1      36.028  -2.770  12.968  1.00  0.00     0.192 A
HETATM    2  N3  UNL     1      35.993  -3.708  13.921  1.00  0.00    -0.279 N
ATOM      3  H3  UNL     1      36.468  -3.532  14.806  1.00  0.00     0.189 HD
HETATM    4  N4  UNL     1      35.366  -4.851  13.751  1.00  0.00    -0.273 N
ATOM      5  H4  UNL     1      35.368  -5.526  14.517  1.00  0.00     0.189 HD
HETATM    6  C7  UNL     1      34.717  -5.174  12.607  1.00  0.00     0.241 A
HETATM    7  N6  UNL     1      34.745  -4.263  11.637  1.00  0.00    -0.294 N
ATOM      8  H6  UNL     1      34.270  -4.476  10.759  1.00  0.00     0.171 HD
HETATM    9  C8  UNL     1      35.362  -3.086  11.755  1.00  0.00     0.293 A
HETATM   10  O4  UNL     1      35.371  -2.227  10.825  1.00  0.00    -0.264 OA
ENDROOT
BRANCH   1  11
HETATM   11  N2  UNL     1      36.437  -1.613  13.111  1.00  0.00    -0.306 N
HETATM   12  C5  UNL     1      37.574  -0.961  13.469  1.00  0.00     0.245 C
HETATM   13  O1  UNL     1      38.250  -1.241  14.526  1.00  0.00    -0.271 OA
ATOM     14  H2  UNL     1      35.698  -0.944  12.895  1.00  0.00     0.170 HD
BRANCH  12  15
HETATM   15  C3  UNL     1      38.092   0.181  12.607  1.00  0.00     0.170 C
HETATM   16  C4  UNL     1      39.489  -0.282  12.171  1.00  0.00     0.042 C
BRANCH  15  17
HETATM   17  N1  UNL     1      38.205   1.342  13.475  1.00  0.00    -0.372 N
ATOM     18  H1  UNL     1      38.579   1.119  14.397  1.00  0.00     0.161 HD
BRANCH  17  19
HETATM   19  C2  UNL     1      37.918   2.666  13.317  1.00  0.00     0.070 C
HETATM   20  C1  UNL     1      36.580   3.148  13.844  1.00  0.00     0.081 C
HETATM   21  S1  UNL     1      38.884   3.774  12.649  1.00  0.00    -0.066 SA
ENDBRANCH  17  19
ENDBRANCH  15  17
ENDBRANCH  12  15
ENDBRANCH   1  11
BRANCH   6  22
HETATM   22  S2  UNL     1      33.888  -6.661  12.377  1.00  0.00     0.290 S
HETATM   23  O2  UNL     1      34.760  -7.511  11.446  1.00  0.00    -0.198 OA
HETATM   24  O3  UNL     1      33.755  -7.427  13.635  1.00  0.00    -0.198 OA
BRANCH  22  25
HETATM   25  N5  UNL     1      32.345  -6.444  11.625  1.00  0.00    -0.322 N
ATOM     26  H52 UNL     1      32.013  -5.540  11.291  1.00  0.00     0.169 HD
ATOM     27  H51 UNL     1      31.821  -7.316  11.558  1.00  0.00     0.169 HD
ENDBRANCH  22  25
ENDBRANCH   6  22
TORSDOF 6
ENDMDL