MODEL 3
REMARK VINA RESULT: -5.665727962      2.319      8.385
REMARK  6 active torsions:
REMARK  status: ('A' for Active; 'I' for Inactive)
REMARK    1  A    between atoms: N1_2  and  C3_4
REMARK    2  A    between atoms: C3_4  and  C4_5
REMARK       I    between atoms: C4_5  and  N2_7
REMARK    3  A    between atoms: N2_7  and  N3_9
REMARK    4  A    between atoms: N3_9  and  C5_11
REMARK    5  A    between atoms: C5_11  and  N4_13
REMARK    6  A    between atoms: N4_13  and  N5_15
ROOT
HETATM    1  C5  UNL     1      36.660  -1.604  12.600  1.00  0.00     0.205 C
HETATM    2  S1  UNL     1      38.028  -2.415  12.267  1.00  0.00    -0.038 SA
ENDROOT
BRANCH   1   3
HETATM    3  N3  UNL     1      36.617  -0.208  12.543  1.00  0.00    -0.272 N
ATOM      4  H3  UNL     1      36.473   0.229  11.632  1.00  0.00     0.189 HD
BRANCH   3   5
HETATM    5  N2  UNL     1      36.757   0.614  13.638  1.00  0.00    -0.266 N
HETATM    6  C4  UNL     1      36.838   2.026  13.515  1.00  0.00     0.264 C
HETATM    7  O1  UNL     1      36.782   2.536  12.385  1.00  0.00    -0.270 OA
ATOM      8  H2  UNL     1      36.804   0.196  14.568  1.00  0.00     0.190 HD
BRANCH   6   9
HETATM    9  C3  UNL     1      36.988   2.878  14.706  1.00  0.00     0.375 C
BRANCH   9  10
HETATM   10  N1  UNL     1      38.142   2.536  15.511  1.00  0.00     0.088 N
HETATM   11  C1  UNL     1      39.104   3.630  15.561  1.00  0.00     0.310 C
HETATM   12  C2  UNL     1      37.744   2.150  16.856  1.00  0.00     0.310 C
ENDBRANCH   9  10
ENDBRANCH   6   9
ENDBRANCH   3   5
ENDBRANCH   1   3
BRANCH   1  13
HETATM   13  N4  UNL     1      35.502  -2.341  12.959  1.00  0.00    -0.274 N
ATOM     14  H4  UNL     1      34.573  -1.998  12.713  1.00  0.00     0.189 HD
BRANCH  13  15
HETATM   15  N5  UNL     1      35.654  -3.537  13.652  1.00  0.00    -0.286 N
HETATM   16  C6  UNL     1      35.333  -4.645  13.085  1.00  0.00     0.106 C
HETATM   17  C7  UNL     1      35.507  -5.911  13.852  1.00  0.00     0.219 C
HETATM   18  N6  UNL     1      34.830  -4.802  11.805  1.00  0.00    -0.365 N
HETATM   19  S2  UNL     1      34.654  -7.081  12.795  1.00  0.00     0.167 S
HETATM   20  O2  UNL     1      35.373  -8.385  12.718  1.00  0.00    -0.226 OA
HETATM   21  O3  UNL     1      33.212  -7.218  13.170  1.00  0.00    -0.226 OA
HETATM   22  C8  UNL     1      34.826  -6.143  11.285  1.00  0.00     0.262 C
ATOM     23  H6  UNL     1      34.481  -4.012  11.262  1.00  0.00     0.161 HD
ATOM     24  H5  UNL     1      36.018  -3.535  14.605  1.00  0.00     0.188 HD
ENDBRANCH  13  15
ENDBRANCH   1  13
TORSDOF 6
ENDMDL