MODEL 3
REMARK VINA RESULT: -6.158446867      2.476      2.912
REMARK  5 active torsions:
REMARK  status: ('A' for Active; 'I' for Inactive)
REMARK    1  A    between atoms: C2_2  and  C4_10
REMARK    2  A    between atoms: N1_3  and  N2_5
REMARK       I    between atoms: C4_10  and  N5_12
REMARK    3  A    between atoms: N5_12  and  C5_14
REMARK    4  A    between atoms: C8_19  and  S1_20
REMARK    5  A    between atoms: S1_20  and  N7_21
ROOT
HETATM    1  C5  UNL     1      36.720  -4.504  13.867  1.00  0.00     0.153 A
HETATM    2  N6  UNL     1      37.203  -5.711  13.577  1.00  0.00    -0.338 N
ATOM      3  H6  UNL     1      38.184  -5.939  13.742  1.00  0.00     0.168 HD
HETATM    4  C6  UNL     1      36.378  -6.602  13.070  1.00  0.00     0.037 A
HETATM    5  C7  UNL     1      36.793  -8.023  12.691  1.00  0.00     0.070 C
HETATM    6  C8  UNL     1      35.079  -6.228  12.874  1.00  0.00     0.145 A
HETATM    7  S2  UNL     1      35.081  -4.615  13.423  1.00  0.00    -0.038 SA
ENDROOT
BRANCH   1   8
HETATM    8  N5  UNL     1      37.387  -3.484  14.379  1.00  0.00    -0.302 N
HETATM    9  C4  UNL     1      38.096  -3.645  15.600  1.00  0.00     0.271 C
HETATM   10  O1  UNL     1      38.645  -4.742  15.902  1.00  0.00    -0.266 OA
ATOM     11  H5  UNL     1      37.393  -2.584  13.899  1.00  0.00     0.171 HD
BRANCH   9  12
HETATM   12  C2  UNL     1      38.177  -2.513  16.500  1.00  0.00     0.089 C
HETATM   13  C1  UNL     1      39.273  -2.450  17.489  1.00  0.00     0.076 C
HETATM   14  N1  UNL     1      37.304  -1.575  16.439  1.00  0.00    -0.298 N
ATOM     15  H1  UNL     1      36.563  -1.655  15.743  1.00  0.00     0.187 HD
BRANCH  14  16
HETATM   16  N2  UNL     1      37.305  -0.461  17.259  1.00  0.00    -0.276 N
HETATM   17  C3  UNL     1      37.566   0.710  16.808  1.00  0.00     0.215 C
HETATM   18  N3  UNL     1      37.552   1.808  17.697  1.00  0.00    -0.065 NA
HETATM   19  N4  UNL     1      37.864   0.882  15.438  1.00  0.00    -0.065 NA
ATOM     20  H2  UNL     1      37.092  -0.575  18.250  1.00  0.00     0.189 HD
ENDBRANCH  14  16
ENDBRANCH   9  12
ENDBRANCH   1   8
BRANCH   6  21
HETATM   21  S1  UNL     1      33.742  -7.190  12.216  1.00  0.00     0.265 S
HETATM   22  O2  UNL     1      32.556  -6.293  12.072  1.00  0.00    -0.200 OA
HETATM   23  O3  UNL     1      33.458  -8.259  13.238  1.00  0.00    -0.200 OA
BRANCH  21  24
HETATM   24  N7  UNL     1      34.163  -7.910  10.730  1.00  0.00    -0.324 N
ATOM     25  H72 UNL     1      34.958  -7.608  10.165  1.00  0.00     0.169 HD
ATOM     26  H71 UNL     1      33.525  -8.667  10.487  1.00  0.00     0.169 HD
ENDBRANCH  21  24
ENDBRANCH   6  21
TORSDOF 5
ENDMDL