MODEL 2
REMARK VINA RESULT: -5.918555540      0.817      1.271
REMARK  7 active torsions:
REMARK  status: ('A' for Active; 'I' for Inactive)
REMARK    1  A    between atoms: C2_2  and  N1_3
REMARK    2  A    between atoms: C2_2  and  C3_7
REMARK       I    between atoms: C3_7  and  N2_9
REMARK    3  A    between atoms: N2_9  and  C4_11
REMARK    4  A    between atoms: C6_15  and  C7_16
REMARK    5  A    between atoms: C8_21  and  N6_22
REMARK       I    between atoms: N6_22  and  C9_24
REMARK    6  A    between atoms: C9_24  and  C10_26
REMARK       I    between atoms: C10_26  and  N7_28
REMARK    7  A    between atoms: N7_28  and  O5_30
ROOT
HETATM    1  C4  UNL     1      35.849  -1.950  12.546  1.00  0.00     0.095 A
HETATM    2  C5  UNL     1      35.308  -2.419  11.370  1.00  0.00     0.123 A
HETATM    3  N3  UNL     1      35.085  -3.754  11.191  1.00  0.00    -0.346 N
ATOM      4  H3  UNL     1      34.683  -4.066  10.307  1.00  0.00     0.167 HD
HETATM    5  C6  UNL     1      35.370  -4.671  12.121  1.00  0.00     0.173 A
HETATM    6  N5  UNL     1      35.896  -4.239  13.268  1.00  0.00    -0.322 N
ATOM      7  H5  UNL     1      36.123  -4.917  13.994  1.00  0.00     0.169 HD
HETATM    8  C8  UNL     1      36.134  -2.938  13.494  1.00  0.00     0.138 A
ENDROOT
BRANCH   1   9
HETATM    9  N2  UNL     1      36.116  -0.597  12.828  1.00  0.00    -0.321 N
HETATM   10  C3  UNL     1      37.178   0.198  12.339  1.00  0.00     0.252 C
HETATM   11  O1  UNL     1      38.077  -0.183  11.557  1.00  0.00    -0.271 OA
ATOM     12  H2  UNL     1      35.465  -0.133  13.461  1.00  0.00     0.169 HD
BRANCH  10  13
HETATM   13  C2  UNL     1      37.188   1.631  12.836  1.00  0.00     0.271 C
HETATM   14  C1  UNL     1      38.615   2.073  13.090  1.00  0.00     0.050 C
BRANCH  13  15
HETATM   15  N1  UNL     1      36.420   1.649  14.063  1.00  0.00    -0.067 N
ATOM     16  H13 UNL     1      36.569   0.803  14.614  1.00  0.00     0.275 HD
ATOM     17  H12 UNL     1      36.785   2.330  14.727  1.00  0.00     0.275 HD
ATOM     18  H11 UNL     1      35.431   1.804  13.868  1.00  0.00     0.275 HD
ENDBRANCH  13  15
ENDBRANCH  10  13
ENDBRANCH   1   9
BRANCH   8  19
HETATM   19  N6  UNL     1      36.645  -2.547  14.615  1.00  0.00    -0.303 N
HETATM   20  C9  UNL     1      37.977  -2.868  14.908  1.00  0.00     0.317 C
HETATM   21  O3  UNL     1      38.239  -3.784  15.713  1.00  0.00    -0.262 OA
ATOM     22  H6  UNL     1      36.084  -2.012  15.278  1.00  0.00     0.171 HD
BRANCH  20  23
HETATM   23  C10 UNL     1      39.048  -2.123  14.264  1.00  0.00     0.334 C
HETATM   24  O4  UNL     1      39.399  -1.015  14.745  1.00  0.00    -0.260 OA
HETATM   25  N7  UNL     1      39.715  -2.602  13.110  1.00  0.00    -0.225 N
HETATM   26  C11 UNL     1      39.392  -3.863  12.474  1.00  0.00     0.189 C
BRANCH  25  27
HETATM   27  O5  UNL     1      40.702  -1.848  12.574  1.00  0.00    -0.285 OA
ATOM     28  H5  UNL     1      41.039  -2.083  11.718  1.00  0.00     0.245 HD
ENDBRANCH  25  27
ENDBRANCH  20  23
ENDBRANCH   8  19
BRANCH   5  29
HETATM   29  C7  UNL     1      35.121  -6.093  11.901  1.00  0.00     0.298 C
HETATM   30  N4  UNL     1      35.730  -7.097  12.694  1.00  0.00    -0.054 NA
HETATM   31  O2  UNL     1      34.349  -6.476  10.986  1.00  0.00    -0.268 OA
ENDBRANCH   5  29
TORSDOF 7
ENDMDL