MODEL 2
REMARK VINA RESULT: -6.485815956      1.629      1.694
REMARK  5 active torsions:
REMARK  status: ('A' for Active; 'I' for Inactive)
REMARK    1  A    between atoms: N1_3  and  S1_5
REMARK    2  A    between atoms: S1_5  and  N2_6
REMARK    3  A    between atoms: S1_5  and  C3_10
REMARK       I    between atoms: N5_16  and  C5_18
REMARK    4  A    between atoms: C5_18  and  C6_20
REMARK    5  A    between atoms: C6_20  and  N6_21
REMARK       I    between atoms: N6_21  and  C7_23
ROOT
HETATM    1  C1  UNL     1      37.704  -8.155  11.918  1.00  0.00     0.037 C
HETATM    2  C2  UNL     1      36.535  -7.941  12.078  1.00  0.00     0.008 C
HETATM    3  N1  UNL     1      35.164  -7.679  12.243  1.00  0.00    -0.255 N
ATOM      4  H1  UNL     1      34.590  -8.356  12.744  1.00  0.00     0.188 HD
ENDROOT
BRANCH   3   5
HETATM    5  S1  UNL     1      34.492  -6.384  11.683  1.00  0.00     0.168 S
HETATM    6  O1  UNL     1      34.796  -6.364  10.190  1.00  0.00    -0.221 OA
BRANCH   5   7
HETATM    7  N2  UNL     1      32.782  -6.453  11.809  1.00  0.00    -0.339 N
ATOM      8  H22 UNL     1      32.199  -5.634  11.981  1.00  0.00     0.167 HD
ATOM      9  H21 UNL     1      32.434  -7.405  11.689  1.00  0.00     0.167 HD
ENDBRANCH   5   7
BRANCH   5  10
HETATM   10  C3  UNL     1      35.156  -4.942  12.413  1.00  0.00     0.188 A
HETATM   11  N3  UNL     1      34.864  -4.496  13.627  1.00  0.00    -0.282 N
HETATM   12  N4  UNL     1      35.400  -3.437  14.068  1.00  0.00    -0.278 N
ATOM     13  H3  UNL     1      34.203  -5.010  14.209  1.00  0.00     0.188 HD
HETATM   14  C4  UNL     1      36.263  -2.776  13.297  1.00  0.00     0.168 A
ATOM     15  H4  UNL     1      35.174  -3.094  15.001  1.00  0.00     0.189 HD
HETATM   16  N5  UNL     1      36.911  -1.676  13.575  1.00  0.00    -0.305 N
HETATM   17  S2  UNL     1      36.270  -3.760  11.887  1.00  0.00    -0.021 SA
HETATM   18  C5  UNL     1      37.786  -1.146  12.593  1.00  0.00     0.241 C
ATOM     19  H5  UNL     1      36.789  -1.209  14.475  1.00  0.00     0.171 HD
HETATM   20  O2  UNL     1      38.386  -1.962  11.848  1.00  0.00    -0.271 OA
BRANCH  18  21
HETATM   21  C6  UNL     1      37.954   0.317  12.488  1.00  0.00     0.227 C
BRANCH  21  22
HETATM   22  N6  UNL     1      36.923   0.968  13.261  1.00  0.00    -0.337 N
HETATM   23  C7  UNL     1      36.757   2.375  13.133  1.00  0.00     0.329 C
HETATM   24  N7  UNL     1      35.751   3.005  13.885  1.00  0.00    -0.040 NA
HETATM   25  O3  UNL     1      37.488   3.044  12.367  1.00  0.00    -0.251 OA
ATOM     26  H6  UNL     1      36.324   0.429  13.886  1.00  0.00     0.164 HD
ENDBRANCH  21  22
ENDBRANCH  18  21
ENDBRANCH   5  10
ENDBRANCH   3   5
TORSDOF 5
ENDMDL