MODEL 3
REMARK VINA RESULT: -6.461983616      1.682      1.997
REMARK  6 active torsions:
REMARK  status: ('A' for Active; 'I' for Inactive)
REMARK       I    between atoms: C2_2  and  N1_4
REMARK    1  A    between atoms: N1_4  and  C3_6
REMARK    2  A    between atoms: C3_6  and  C4_7
REMARK    3  A    between atoms: C3_6  and  C6_10
REMARK       I    between atoms: C6_10  and  N2_12
REMARK    4  A    between atoms: N2_12  and  C7_14
REMARK    5  A    between atoms: C9_18  and  O4_19
REMARK    6  A    between atoms: C9_18  and  N4_21
ROOT
HETATM    1  N4  UNL     1      38.705   0.367  12.446  1.00  0.00    -0.266 N
HETATM    2  C10 UNL     1      40.090  -0.038  12.345  1.00  0.00     0.171 C
HETATM    3  C11 UNL     1      38.500   1.743  12.849  1.00  0.00     0.186 C
HETATM    4  N5  UNL     1      38.369   2.841  13.193  1.00  0.00    -0.172 NA
ENDROOT
BRANCH   1   5
HETATM    5  C9  UNL     1      37.613  -0.421  12.195  1.00  0.00     0.198 C
HETATM    6  C8  UNL     1      37.066  -1.436  13.061  1.00  0.00     0.188 A
HETATM    7  N3  UNL     1      36.050  -2.313  12.621  1.00  0.00    -0.169 N
HETATM    8  N6  UNL     1      37.387  -1.817  14.275  1.00  0.00    -0.267 N
HETATM    9  C7  UNL     1      35.825  -3.189  13.610  1.00  0.00     0.701 A
ATOM     10  H3  UNL     1      35.575  -2.286  11.719  1.00  0.00     0.186 HD
HETATM   11  N7  UNL     1      36.649  -2.864  14.608  1.00  0.00    -0.130 N
ATOM     12  H7  UNL     1      36.703  -3.354  15.501  1.00  0.00     0.205 HD
ATOM     13  H6  UNL     1      38.091  -1.377  14.866  1.00  0.00     0.189 HD
BRANCH   9  14
HETATM   14  N2  UNL     1      34.961  -4.146  13.588  1.00  0.00    -0.156 N
HETATM   15  C6  UNL     1      34.713  -5.042  12.512  1.00  0.00     0.266 C
HETATM   16  O3  UNL     1      34.841  -4.483  11.386  1.00  0.00    -0.270 OA
ATOM     17  H2  UNL     1      34.398  -4.273  14.429  1.00  0.00     0.187 HD
BRANCH  15  18
HETATM   18  C3  UNL     1      34.313  -6.455  12.648  1.00  0.00     0.247 C
BRANCH  18  19
HETATM   19  N1  UNL     1      34.898  -7.251  11.521  1.00  0.00    -0.342 N
HETATM   20  C2  UNL     1      34.381  -8.410  11.003  1.00  0.00     0.214 C
HETATM   21  C1  UNL     1      35.025  -9.178   9.880  1.00  0.00     0.117 C
HETATM   22  O1  UNL     1      33.296  -8.922  11.450  1.00  0.00    -0.274 OA
ATOM     23  H1  UNL     1      35.758  -6.899  11.102  1.00  0.00     0.163 HD
ENDBRANCH  18  19
BRANCH  18  24
HETATM   24  C4  UNL     1      35.082  -7.097  13.795  1.00  0.00     0.154 C
HETATM   25  C5  UNL     1      34.607  -8.159  14.647  1.00  0.00     0.093 C
HETATM   26  O2  UNL     1      36.219  -6.650  14.004  1.00  0.00    -0.296 OA
ENDBRANCH  18  24
ENDBRANCH  15  18
ENDBRANCH   9  14
BRANCH   5  27
HETATM   27  O4  UNL     1      36.983  -0.272  11.060  1.00  0.00    -0.343 OA
ATOM     28  H4  UNL     1      37.379   0.354  10.464  1.00  0.00     0.219 HD
ENDBRANCH   5  27
ENDBRANCH   1   5
TORSDOF 6
ENDMDL