MODEL 3
REMARK VINA RESULT: -5.558588213      2.323      7.548
REMARK  9 active torsions:
REMARK  status: ('A' for Active; 'I' for Inactive)
REMARK    1  A    between atoms: C2_2  and  N1_3
REMARK    2  A    between atoms: N1_3  and  C3_4
REMARK    3  A    between atoms: C3_4  and  C4_5
REMARK       I    between atoms: C4_5  and  N2_7
REMARK    4  A    between atoms: N2_7  and  N3_9
REMARK    5  A    between atoms: C5_11  and  O2_12
REMARK    6  A    between atoms: C5_11  and  C6_14
REMARK       I    between atoms: C6_14  and  N4_16
REMARK    7  A    between atoms: N4_16  and  N5_17
REMARK       I    between atoms: N5_17  and  C7_19
REMARK    8  A    between atoms: C7_19  and  C8_21
REMARK    9  A    between atoms: C11_24  and  O5_26
ROOT
HETATM    1  N3  UNL     1      38.126   2.876  15.781  1.00  0.00    -0.272 N
ATOM      2  H3  UNL     1      38.908   3.401  15.389  1.00  0.00     0.189 HD
HETATM    3  C5  UNL     1      37.185   2.416  14.936  1.00  0.00     0.241 C
ENDROOT
BRANCH   1   4
HETATM    4  N2  UNL     1      38.094   2.671  17.200  1.00  0.00    -0.267 N
HETATM    5  C4  UNL     1      38.852   3.501  18.054  1.00  0.00     0.254 C
HETATM    6  O1  UNL     1      39.489   4.447  17.558  1.00  0.00    -0.270 OA
ATOM      7  H2  UNL     1      37.522   1.923  17.593  1.00  0.00     0.190 HD
BRANCH   5   8
HETATM    8  C3  UNL     1      38.834   3.164  19.496  1.00  0.00     0.229 C
BRANCH   8   9
HETATM    9  N1  UNL     1      38.254   1.864  19.728  1.00  0.00    -0.357 N
HETATM   10  C11 UNL     1      39.045   0.783  19.814  1.00  0.00     0.109 C
HETATM   11  C12 UNL     1      40.506   0.628  19.677  1.00  0.00     0.097 C
BRANCH   9  12
HETATM   12  C2  UNL     1      36.790   1.737  19.865  1.00  0.00     0.120 C
HETATM   13  C1  UNL     1      36.296   2.192  21.210  1.00  0.00     0.026 C
ENDBRANCH   9  12
BRANCH  10  14
HETATM   14  O5  UNL     1      38.498  -0.411  20.070  1.00  0.00    -0.350 OA
ATOM     15  H5  UNL     1      38.065  -0.557  20.903  1.00  0.00     0.219 HD
ENDBRANCH  10  14
ENDBRANCH   8   9
ENDBRANCH   5   8
ENDBRANCH   1   4
BRANCH   3  16
HETATM   16  O2  UNL     1      36.270   1.709  15.822  1.00  0.00    -0.340 OA
ATOM     17  H2  UNL     1      36.672   0.852  15.901  1.00  0.00     0.219 HD
ENDBRANCH   3  16
BRANCH   3  18
HETATM   18  C6  UNL     1      36.694   2.301  13.622  1.00  0.00     0.387 C
HETATM   19  O3  UNL     1      36.392   3.418  13.058  1.00  0.00    -0.245 OA
HETATM   20  N4  UNL     1      36.565   1.073  13.020  1.00  0.00    -0.275 NA
BRANCH  20  21
HETATM   21  N5  UNL     1      36.417  -0.083  12.357  1.00  0.00    -0.199 N
HETATM   22  C7  UNL     1      37.037  -1.348  12.745  1.00  0.00     0.250 C
HETATM   23  O4  UNL     1      37.752  -1.276  13.774  1.00  0.00    -0.271 OA
ATOM     24  H5  UNL     1      35.830  -0.078  11.524  1.00  0.00     0.205 HD
BRANCH  22  25
HETATM   25  C8  UNL     1      36.748  -2.494  11.940  1.00  0.00     0.080 A
HETATM   26  C9  UNL     1      35.540  -2.759  11.150  1.00  0.00     0.015 A
HETATM   27  C10 UNL     1      35.610  -3.393  12.514  1.00  0.00     0.015 A
ENDBRANCH  22  25
ENDBRANCH  20  21
ENDBRANCH   3  18
TORSDOF 9
ENDMDL