MODEL 5
REMARK VINA RESULT: -6.017342359      2.271      2.959
REMARK  5 active torsions:
REMARK  status: ('A' for Active; 'I' for Inactive)
REMARK    1  A    between atoms: O1_2  and  C2_3
REMARK    2  A    between atoms: C4_6  and  C5_7
REMARK       I    between atoms: C5_7  and  N2_9
REMARK    3  A    between atoms: N2_9  and  N3_11
REMARK       I    between atoms: N3_11  and  C6_13
REMARK    4  A    between atoms: C10_18  and  N4_19
REMARK       I    between atoms: N4_19  and  C11_21
REMARK    5  A    between atoms: N7_26  and  O4_27
ROOT
HETATM    1  C2  UNL     1      38.098  -7.177  12.634  1.00  0.00     0.254 A
HETATM    2  N1  UNL     1      38.511  -5.896  12.697  1.00  0.00    -0.310 N
HETATM    3  C3  UNL     1      39.955  -5.620  12.534  1.00  0.00     0.160 C
HETATM    4  C4  UNL     1      37.624  -4.890  12.927  1.00  0.00     0.117 A
HETATM    5  C8  UNL     1      36.292  -5.225  13.090  1.00  0.00     0.017 A
HETATM    6  C9  UNL     1      35.286  -4.151  13.255  1.00  0.00     0.055 C
HETATM    7  C10 UNL     1      35.850  -6.551  13.030  1.00  0.00     0.147 A
HETATM    8  N7  UNL     1      36.780  -7.486  12.800  1.00  0.00    -0.168 N
ENDROOT
BRANCH   4   9
HETATM    9  C5  UNL     1      38.142  -3.535  12.938  1.00  0.00     0.287 C
HETATM   10  O2  UNL     1      38.546  -3.128  14.099  1.00  0.00    -0.264 OA
HETATM   11  N2  UNL     1      38.237  -2.647  11.846  1.00  0.00    -0.262 N
ATOM     12  H2  UNL     1      37.918  -2.935  10.921  1.00  0.00     0.190 HD
BRANCH  11  13
HETATM   13  N3  UNL     1      38.768  -1.379  12.039  1.00  0.00    -0.268 N
HETATM   14  C6  UNL     1      38.026  -0.231  12.424  1.00  0.00     0.232 C
HETATM   15  C7  UNL     1      38.638   1.095  12.612  1.00  0.00     0.119 C
HETATM   16  O3  UNL     1      36.788  -0.358  12.614  1.00  0.00    -0.272 OA
ATOM     17  H3  UNL     1      39.771  -1.263  11.892  1.00  0.00     0.190 HD
ENDBRANCH  11  13
ENDBRANCH   4   9
BRANCH   1  18
HETATM   18  O1  UNL     1      39.032  -8.154  12.401  1.00  0.00    -0.325 OA
HETATM   19  C1  UNL     1      39.299  -8.820  11.227  1.00  0.00     0.213 C
ENDBRANCH   1  18
BRANCH   7  20
HETATM   20  N4  UNL     1      34.494  -6.872  13.249  1.00  0.00    -0.315 N
HETATM   21  C11 UNL     1      33.575  -7.285  12.255  1.00  0.00     0.187 C
HETATM   22  N5  UNL     1      32.812  -6.353  11.736  1.00  0.00    -0.373 N
HETATM   23  N6  UNL     1      33.420  -8.612  11.811  1.00  0.00    -0.064 NA
ATOM     24  H52 UNL     1      32.925  -5.391  12.058  1.00  0.00     0.158 HD
ATOM     25  H51 UNL     1      32.150  -6.651  11.019  1.00  0.00     0.158 HD
ATOM     26  H4  UNL     1      34.146  -6.799  14.206  1.00  0.00     0.170 HD
ENDBRANCH   7  20
BRANCH   8  27
HETATM   27  O4  UNL     1      36.412  -8.821  12.715  1.00  0.00    -0.278 OA
ATOM     28  H4  UNL     1      35.958  -9.204  13.456  1.00  0.00     0.245 HD
ENDBRANCH   8  27
TORSDOF 5
ENDMDL