MODEL 4
REMARK VINA RESULT: -6.425113311      3.522      7.542
REMARK  4 active torsions:
REMARK  status: ('A' for Active; 'I' for Inactive)
REMARK    1  A    between atoms: C2_2  and  S1_4
REMARK    2  A    between atoms: S1_4  and  N1_7
REMARK    3  A    between atoms: N4_17  and  N5_19
REMARK       I    between atoms: N5_19  and  C7_21
REMARK    4  A    between atoms: C7_21  and  C8_23
ROOT
HETATM    1  N1  UNL     1      36.947   0.010  13.350  1.00  0.00    -0.266 N
ATOM      2  H1  UNL     1      35.930  -0.051  13.366  1.00  0.00     0.180 HD
HETATM    3  C4  UNL     1      37.627  -1.078  13.480  1.00  0.00     0.165 A
HETATM    4  N2  UNL     1      39.041  -1.206  13.485  1.00  0.00    -0.291 N
ATOM      5  H2  UNL     1      39.726  -0.456  13.387  1.00  0.00     0.172 HD
HETATM    6  C5  UNL     1      39.309  -2.591  13.655  1.00  0.00     0.327 A
HETATM    7  O3  UNL     1      40.478  -3.097  13.709  1.00  0.00    -0.247 OA
HETATM    8  N3  UNL     1      38.117  -3.349  13.758  1.00  0.00    -0.290 N
ATOM      9  H3  UNL     1      38.046  -4.358  13.883  1.00  0.00     0.172 HD
HETATM   10  C6  UNL     1      37.043  -2.429  13.652  1.00  0.00     0.170 A
HETATM   11  N4  UNL     1      35.759  -2.688  13.694  1.00  0.00    -0.279 N
ATOM     12  H4  UNL     1      35.068  -1.943  13.606  1.00  0.00     0.189 HD
ENDROOT
BRANCH  11  13
HETATM   13  N5  UNL     1      35.370  -4.007  13.860  1.00  0.00    -0.260 N
HETATM   14  C7  UNL     1      34.825  -4.792  12.797  1.00  0.00     0.325 C
HETATM   15  O4  UNL     1      34.685  -4.284  11.656  1.00  0.00    -0.261 OA
ATOM     16  H5  UNL     1      35.478  -4.436  14.780  1.00  0.00     0.190 HD
BRANCH  14  17
HETATM   17  C8  UNL     1      34.425  -6.177  13.004  1.00  0.00     0.324 C
HETATM   18  N6  UNL     1      33.128  -6.626  12.651  1.00  0.00    -0.053 NA
HETATM   19  O5  UNL     1      35.250  -6.970  13.502  1.00  0.00    -0.266 OA
ENDBRANCH  14  17
ENDBRANCH  11  13
BRANCH   1  20
HETATM   20  S1  UNL     1      37.661   1.547  13.154  1.00  0.00     0.235 S
HETATM   21  O1  UNL     1      36.787   2.475  12.362  1.00  0.00    -0.205 OA
HETATM   22  O2  UNL     1      38.927   1.389  12.308  1.00  0.00    -0.205 OA
BRANCH  20  23
HETATM   23  C2  UNL     1      38.184   2.277  14.677  1.00  0.00     0.121 C
HETATM   24  C1  UNL     1      37.116   2.076  15.744  1.00  0.00     0.027 C
HETATM   25  C3  UNL     1      38.491   3.732  14.592  1.00  0.00     0.027 C
ENDBRANCH  20  23
ENDBRANCH   1  20
TORSDOF 4
ENDMDL