MODEL 1
REMARK VINA RESULT: -5.390223328      0.000      0.000
REMARK  6 active torsions:
REMARK  status: ('A' for Active; 'I' for Inactive)
REMARK    1  A    between atoms: N1_1  and  S1_4
REMARK    2  A    between atoms: S1_4  and  C1_7
REMARK    3  A    between atoms: C3_9  and  S2_10
REMARK    4  A    between atoms: S2_10  and  N2_11
REMARK    5  A    between atoms: C5_17  and  S3_18
REMARK    6  A    between atoms: S3_18  and  N3_19
ROOT
HETATM    1  C1  UNL     1      36.136  -4.047  12.379  1.00  0.00     0.082 A
HETATM    2  C2  UNL     1      37.277  -4.483  13.028  1.00  0.00     0.050 A
HETATM    3  C3  UNL     1      37.374  -5.802  13.454  1.00  0.00     0.082 A
HETATM    4  C4  UNL     1      36.315  -6.649  13.212  1.00  0.00     0.050 A
HETATM    5  C5  UNL     1      35.162  -6.232  12.563  1.00  0.00     0.082 A
HETATM    6  C6  UNL     1      35.082  -4.903  12.142  1.00  0.00     0.050 A
ENDROOT
BRANCH   1   7
HETATM    7  S1  UNL     1      36.025  -2.385  11.847  1.00  0.00     0.256 S
HETATM    8  O1  UNL     1      35.041  -2.248  10.710  1.00  0.00    -0.201 OA
HETATM    9  O2  UNL     1      35.514  -1.522  12.964  1.00  0.00    -0.201 OA
BRANCH   7  10
HETATM   10  N1  UNL     1      37.585  -1.805  11.392  1.00  0.00    -0.324 N
ATOM     11  H12 UNL     1      37.765  -0.850  11.082  1.00  0.00     0.169 HD
ATOM     12  H11 UNL     1      38.288  -2.540  11.474  1.00  0.00     0.169 HD
ENDBRANCH   7  10
ENDBRANCH   1   7
BRANCH   3  13
HETATM   13  S2  UNL     1      38.803  -6.384  14.278  1.00  0.00     0.256 S
HETATM   14  O3  UNL     1      38.566  -7.753  14.795  1.00  0.00    -0.201 OA
HETATM   15  O4  UNL     1      38.991  -5.478  15.487  1.00  0.00    -0.201 OA
BRANCH  13  16
HETATM   16  N2  UNL     1      40.178  -6.272  13.248  1.00  0.00    -0.324 N
ATOM     17  H22 UNL     1      40.348  -5.497  12.607  1.00  0.00     0.169 HD
ATOM     18  H21 UNL     1      40.784  -7.083  13.374  1.00  0.00     0.169 HD
ENDBRANCH  13  16
ENDBRANCH   3  13
BRANCH   5  19
HETATM   19  S3  UNL     1      33.817  -7.308  12.256  1.00  0.00     0.256 S
HETATM   20  O5  UNL     1      33.461  -8.040  13.517  1.00  0.00    -0.201 OA
HETATM   21  O6  UNL     1      34.264  -8.323  11.238  1.00  0.00    -0.201 OA
BRANCH  19  22
HETATM   22  N3  UNL     1      32.454  -6.415  11.638  1.00  0.00    -0.324 N
ATOM     23  H32 UNL     1      32.534  -5.590  11.044  1.00  0.00     0.169 HD
ATOM     24  H31 UNL     1      31.580  -6.836  11.954  1.00  0.00     0.169 HD
ENDBRANCH  19  22
ENDBRANCH   5  19
TORSDOF 6
ENDMDL