MODEL 3
REMARK VINA RESULT: -5.712752915      1.700      2.196
REMARK  7 active torsions:
REMARK  status: ('A' for Active; 'I' for Inactive)
REMARK    1  A    between atoms: N1_2  and  C3_4
REMARK    2  A    between atoms: C3_4  and  C4_10
REMARK    3  A    between atoms: N2_5  and  N3_7
REMARK    4  A    between atoms: C5_13  and  C6_14
REMARK    5  A    between atoms: N5_15  and  N6_17
REMARK    6  A    between atoms: N9_23  and  O1_24
REMARK    7  A    between atoms: C9_26  and  C10_27
ROOT
HETATM    1  C4  UNL     1      37.955  -0.646  14.046  1.00  0.00     0.113 A
HETATM    2  N4  UNL     1      37.216  -1.802  14.191  1.00  0.00    -0.349 N
ATOM      3  H4  UNL     1      36.593  -1.879  14.996  1.00  0.00     0.166 HD
HETATM    4  C5  UNL     1      37.272  -2.825  13.336  1.00  0.00     0.068 A
HETATM    5  C8  UNL     1      38.128  -2.669  12.268  1.00  0.00     0.154 A
HETATM    6  N9  UNL     1      38.860  -1.561  12.095  1.00  0.00    -0.226 N
HETATM    7  C9  UNL     1      38.794  -0.513  12.984  1.00  0.00     0.157 A
ENDROOT
BRANCH   1   8
HETATM    8  C3  UNL     1      37.811   0.400  15.042  1.00  0.00     0.146 C
HETATM    9  N2  UNL     1      37.025   1.384  14.797  1.00  0.00    -0.290 N
ATOM     10  H2  UNL     1      36.953   2.127  15.491  1.00  0.00     0.188 HD
BRANCH   8  11
HETATM   11  N1  UNL     1      38.534   0.394  16.255  1.00  0.00    -0.373 N
HETATM   12  C1  UNL     1      37.951   0.941  17.480  1.00  0.00     0.150 C
HETATM   13  C2  UNL     1      39.890  -0.138  16.390  1.00  0.00     0.150 C
ENDBRANCH   8  11
BRANCH   9  14
HETATM   14  N3  UNL     1      36.261   1.494  13.630  1.00  0.00    -0.344 N
ATOM     15  H32 UNL     1      36.388   0.772  12.921  1.00  0.00     0.176 HD
ATOM     16  H31 UNL     1      35.597   2.248  13.459  1.00  0.00     0.176 HD
ENDBRANCH   9  14
ENDBRANCH   1   8
BRANCH   7  17
HETATM   17  C10 UNL     1      39.611   0.658  12.779  1.00  0.00     0.286 C
HETATM   18  N10 UNL     1      39.227   1.950  12.402  1.00  0.00    -0.056 NA
HETATM   19  O2  UNL     1      40.887   0.536  12.962  1.00  0.00    -0.269 OA
ENDBRANCH   7  17
BRANCH   4  20
HETATM   20  C6  UNL     1      36.478  -4.040  13.513  1.00  0.00     0.138 C
HETATM   21  N5  UNL     1      35.248  -4.073  13.207  1.00  0.00    -0.308 N
ATOM     22  H5  UNL     1      34.821  -3.227  12.832  1.00  0.00     0.186 HD
BRANCH  21  23
HETATM   23  N6  UNL     1      34.455  -5.199  13.355  1.00  0.00    -0.276 N
HETATM   24  C7  UNL     1      34.129  -6.013  12.434  1.00  0.00     0.215 C
HETATM   25  N7  UNL     1      33.296  -7.117  12.816  1.00  0.00    -0.065 NA
HETATM   26  N8  UNL     1      34.509  -5.937  11.079  1.00  0.00    -0.065 NA
ATOM     27  H6  UNL     1      34.099  -5.393  14.291  1.00  0.00     0.189 HD
ENDBRANCH  21  23
ENDBRANCH   4  20
BRANCH   6  28
HETATM   28  O1  UNL     1      39.718  -1.411  11.019  1.00  0.00    -0.283 OA
ATOM     29  H1  UNL     1      40.407  -0.757  11.013  1.00  0.00     0.245 HD
ENDBRANCH   6  28
TORSDOF 7
ENDMDL