MODEL 2
REMARK VINA RESULT: -6.805963418      2.218      8.008
REMARK  4 active torsions:
REMARK  status: ('A' for Active; 'I' for Inactive)
REMARK    1  A    between atoms: C3_4  and  S1_5
REMARK    2  A    between atoms: S1_5  and  O3_8
REMARK    3  A    between atoms: O3_8  and  N2_9
REMARK    4  A    between atoms: C6_17  and  C7_18
REMARK       I    between atoms: C7_18  and  N6_20
REMARK       I    between atoms: N6_20  and  C8_22
ROOT
HETATM    1  C1  UNL     1      36.643  -5.405  13.938  1.00  0.00     0.157 C
HETATM    2  N1  UNL     1      36.197  -4.300  13.122  1.00  0.00    -0.342 N
HETATM    3  C2  UNL     1      36.830  -3.098  13.263  1.00  0.00     0.119 A
HETATM    4  C3  UNL     1      36.449  -2.011  12.511  1.00  0.00     0.119 A
HETATM    5  C5  UNL     1      35.409  -2.220  11.631  1.00  0.00     0.117 A
HETATM    6  N5  UNL     1      34.809  -3.410  11.517  1.00  0.00    -0.346 N
ATOM      7  H5  UNL     1      34.044  -3.514  10.852  1.00  0.00     0.167 HD
HETATM    8  C6  UNL     1      35.186  -4.491  12.262  1.00  0.00     0.176 A
ENDROOT
BRANCH   4   9
HETATM    9  S1  UNL     1      37.216  -0.450  12.644  1.00  0.00     0.321 S
HETATM   10  O1  UNL     1      38.124  -0.176  11.455  1.00  0.00    -0.191 OA
HETATM   11  O2  UNL     1      38.103  -0.380  13.872  1.00  0.00    -0.191 OA
BRANCH   9  12
HETATM   12  O3  UNL     1      36.060   0.803  12.816  1.00  0.00    -0.145 OA
BRANCH  12  13
HETATM   13  N2  UNL     1      36.211   1.734  13.803  1.00  0.00    -0.223 N
HETATM   14  C4  UNL     1      36.705   2.879  13.516  1.00  0.00     0.222 C
HETATM   15  N3  UNL     1      37.092   3.181  12.190  1.00  0.00    -0.065 NA
HETATM   16  N4  UNL     1      36.859   3.838  14.540  1.00  0.00    -0.065 NA
ATOM     17  H2  UNL     1      35.933   1.518  14.760  1.00  0.00     0.198 HD
ENDBRANCH  12  13
ENDBRANCH   9  12
ENDBRANCH   4   9
BRANCH   8  18
HETATM   18  C7  UNL     1      34.486  -5.763  12.087  1.00  0.00     0.293 C
HETATM   19  O4  UNL     1      33.495  -6.131  12.752  1.00  0.00    -0.264 OA
HETATM   20  N6  UNL     1      34.964  -6.654  11.088  1.00  0.00    -0.275 N
HETATM   21  C8  UNL     1      34.358  -7.914  10.836  1.00  0.00     0.335 C
ATOM     22  H6  UNL     1      35.772  -6.379  10.531  1.00  0.00     0.173 HD
HETATM   23  N7  UNL     1      33.240  -8.295  11.608  1.00  0.00    -0.040 NA
HETATM   24  O5  UNL     1      34.848  -8.636   9.933  1.00  0.00    -0.251 OA
ENDBRANCH   8  18
TORSDOF 4
ENDMDL