MODEL 5
REMARK VINA RESULT: -6.084560667      3.627      8.832
REMARK  7 active torsions:
REMARK  status: ('A' for Active; 'I' for Inactive)
REMARK    1  A    between atoms: N1_1  and  N2_4
REMARK       I    between atoms: N2_4  and  C1_6
REMARK    2  A    between atoms: C1_6  and  C2_8
REMARK    3  A    between atoms: C2_8  and  N3_9
REMARK       I    between atoms: N3_9  and  C3_11
REMARK    4  A    between atoms: C3_11  and  C4_13
REMARK       I    between atoms: C4_13  and  N4_15
REMARK    5  A    between atoms: N4_15  and  C5_17
REMARK    6  A    between atoms: C7_21  and  S1_22
REMARK    7  A    between atoms: S1_22  and  N6_23
ROOT
HETATM    1  C4  UNL     1      35.509  -4.137  12.051  1.00  0.00     0.315 C
HETATM    2  O3  UNL     1      36.548  -4.790  12.342  1.00  0.00    -0.262 OA
HETATM    3  N4  UNL     1      34.245  -4.780  12.176  1.00  0.00    -0.299 N
ATOM      4  H4  UNL     1      33.417  -4.294  12.522  1.00  0.00     0.171 HD
ENDROOT
BRANCH   1   5
HETATM    5  C3  UNL     1      35.655  -2.765  11.604  1.00  0.00     0.310 C
HETATM    6  N3  UNL     1      36.800  -2.033  11.948  1.00  0.00    -0.344 N
ATOM      7  H3  UNL     1      37.532  -2.469  12.509  1.00  0.00     0.163 HD
HETATM    8  O2  UNL     1      34.756  -2.241  10.911  1.00  0.00    -0.262 OA
BRANCH   6   9
HETATM    9  C2  UNL     1      36.946  -0.671  11.514  1.00  0.00     0.227 C
BRANCH   9  10
HETATM   10  C1  UNL     1      36.966   0.322  12.593  1.00  0.00     0.253 C
HETATM   11  N2  UNL     1      37.273  -0.109  13.909  1.00  0.00    -0.275 N
ATOM     12  H2  UNL     1      37.472  -1.094  14.084  1.00  0.00     0.189 HD
HETATM   13  O1  UNL     1      36.714   1.549  12.348  1.00  0.00    -0.270 OA
BRANCH  11  14
HETATM   14  N1  UNL     1      37.303   0.788  14.951  1.00  0.00    -0.343 N
ATOM     15  H12 UNL     1      36.459   0.921  15.508  1.00  0.00     0.176 HD
ATOM     16  H11 UNL     1      38.155   1.309  15.163  1.00  0.00     0.176 HD
ENDBRANCH  11  14
ENDBRANCH   9  10
ENDBRANCH   6   9
ENDBRANCH   1   5
BRANCH   3  17
HETATM   17  C5  UNL     1      34.217  -6.040  11.815  1.00  0.00     0.152 A
HETATM   18  N5  UNL     1      34.630  -6.547  10.663  1.00  0.00    -0.344 N
HETATM   19  C6  UNL     1      34.538  -7.821  10.449  1.00  0.00     0.123 A
ATOM     20  H5  UNL     1      35.019  -5.934   9.946  1.00  0.00     0.167 HD
HETATM   21  C7  UNL     1      34.006  -8.598  11.448  1.00  0.00     0.138 A
HETATM   22  S2  UNL     1      33.668  -7.422  12.647  1.00  0.00    -0.039 SA
BRANCH  21  23
HETATM   23  S1  UNL     1      33.751 -10.341  11.463  1.00  0.00     0.264 S
HETATM   24  O4  UNL     1      34.957 -10.977  12.034  1.00  0.00    -0.200 OA
HETATM   25  O5  UNL     1      32.521 -10.611  12.295  1.00  0.00    -0.200 OA
BRANCH  23  26
HETATM   26  N6  UNL     1      33.414 -10.824   9.856  1.00  0.00    -0.324 N
ATOM     27  H62 UNL     1      32.623 -11.398   9.564  1.00  0.00     0.169 HD
ATOM     28  H61 UNL     1      34.145 -10.434   9.261  1.00  0.00     0.169 HD
ENDBRANCH  23  26
ENDBRANCH  21  23
ENDBRANCH   3  17
TORSDOF 7
ENDMDL