MODEL 5
REMARK VINA RESULT: -6.008919726      4.609      8.478
REMARK  4 active torsions:
REMARK  status: ('A' for Active; 'I' for Inactive)
REMARK    1  A    between atoms: O1_2  and  C2_3
REMARK    2  A    between atoms: C2_3  and  C3_4
REMARK       I    between atoms: N2_6  and  C4_8
REMARK    3  A    between atoms: C4_8  and  C5_10
REMARK    4  A    between atoms: C5_10  and  N4_16
REMARK       I    between atoms: N3_11  and  C6_13
ROOT
HETATM    1  N4  UNL     1      37.029  -1.986  15.524  1.00  0.00    -0.275 N
ATOM      2  H4  UNL     1      36.106  -1.752  15.890  1.00  0.00     0.180 HD
HETATM    3  C8  UNL     1      38.184  -1.606  16.210  1.00  0.00     0.183 C
HETATM    4  N5  UNL     1      39.144  -1.281  16.791  1.00  0.00    -0.172 NA
ENDROOT
BRANCH   1   5
HETATM    5  C5  UNL     1      37.168  -2.721  14.279  1.00  0.00     0.186 C
HETATM    6  N3  UNL     1      38.358  -2.952  13.927  1.00  0.00    -0.308 N
HETATM    7  C6  UNL     1      38.717  -3.640  12.768  1.00  0.00     0.219 C
ATOM      8  H3  UNL     1      39.108  -2.613  14.530  1.00  0.00     0.170 HD
HETATM    9  C7  UNL     1      38.948  -5.108  12.805  1.00  0.00     0.117 C
HETATM   10  O3  UNL     1      38.848  -3.028  11.687  1.00  0.00    -0.274 OA
BRANCH   5  11
HETATM   11  C4  UNL     1      36.001  -3.122  13.556  1.00  0.00     0.291 C
HETATM   12  N2  UNL     1      35.475  -4.421  13.600  1.00  0.00    -0.307 N
HETATM   13  C3  UNL     1      35.038  -4.997  12.545  1.00  0.00     0.171 C
ATOM     14  H2  UNL     1      35.441  -4.916  14.490  1.00  0.00     0.170 HD
HETATM   15  N1  UNL     1      35.108  -4.300  11.277  1.00  0.00    -0.080 NA
HETATM   16  O2  UNL     1      35.380  -2.281  12.820  1.00  0.00    -0.264 OA
BRANCH  13  17
HETATM   17  C2  UNL     1      34.471  -6.361  12.513  1.00  0.00     0.284 C
HETATM   18  N6  UNL     1      35.517  -7.208  11.979  1.00  0.00    -0.362 N
HETATM   19  C9  UNL     1      35.110  -8.262  11.134  1.00  0.00     0.223 C
ATOM     20  H6  UNL     1      36.499  -7.051  12.202  1.00  0.00     0.158 HD
HETATM   21  C10 UNL     1      33.686  -8.632  11.213  1.00  0.00     0.250 C
HETATM   22  O4  UNL     1      33.272  -9.817  11.165  1.00  0.00    -0.270 OA
HETATM   23  N7  UNL     1      32.768  -7.525  11.353  1.00  0.00    -0.268 N
HETATM   24  N8  UNL     1      33.363  -6.296  11.592  1.00  0.00    -0.070 NA
ATOM     25  H7  UNL     1      31.757  -7.640  11.281  1.00  0.00     0.185 HD
BRANCH  17  26
HETATM   26  O1  UNL     1      34.177  -6.793  13.752  1.00  0.00    -0.345 OA
HETATM   27  C1  UNL     1      34.849  -7.799  14.334  1.00  0.00     0.206 C
ENDBRANCH  17  26
ENDBRANCH  13  17
ENDBRANCH   5  11
ENDBRANCH   1   5
TORSDOF 4
ENDMDL