MODEL 3
REMARK VINA RESULT: -5.656213075      3.379      5.754
REMARK  6 active torsions:
REMARK  status: ('A' for Active; 'I' for Inactive)
REMARK    1  A    between atoms: O1_2  and  C2_3
REMARK    2  A    between atoms: C2_3  and  C3_5
REMARK    3  A    between atoms: C3_5  and  N1_7
REMARK    4  A    between atoms: C6_10  and  C7_11
REMARK    5  A    between atoms: C7_11  and  N2_12
REMARK    6  A    between atoms: C7_11  and  C8_16
REMARK       I    between atoms: C8_16  and  N3_18
REMARK       I    between atoms: N3_18  and  C9_20
REMARK       I    between atoms: N4_23  and  C11_24
ROOT
HETATM    1  N1  UNL     1      37.699   4.126  14.243  1.00  0.00    -0.240 N
HETATM    2  C5  UNL     1      36.591   3.325  13.895  1.00  0.00     0.267 C
HETATM    3  O3  UNL     1      35.476   3.547  13.389  1.00  0.00    -0.269 OA
HETATM    4  C6  UNL     1      37.341   2.159  14.388  1.00  0.00     0.244 C
HETATM    5  N4  UNL     1      38.087   3.125  15.142  1.00  0.00    -0.243 N
HETATM    6  C11 UNL     1      38.907   3.183  16.311  1.00  0.00     0.204 C
HETATM    7  N5  UNL     1      38.371   3.047  17.473  1.00  0.00    -0.372 N
ATOM      8  H51 UNL     1      38.956   3.088  18.307  1.00  0.00     0.158 HD
ATOM      9  H52 UNL     1      37.362   2.899  17.527  1.00  0.00     0.158 HD
HETATM   10  N6  UNL     1      40.308   3.388  16.235  1.00  0.00    -0.062 NA
ENDROOT
BRANCH   4  11
HETATM   11  C7  UNL     1      38.134   1.373  13.377  1.00  0.00     0.308 C
BRANCH  11  12
HETATM   12  N2  UNL     1      39.120   0.604  14.150  1.00  0.00    -0.064 N
ATOM     13  H23 UNL     1      38.812   0.381  15.096  1.00  0.00     0.275 HD
ATOM     14  H22 UNL     1      39.231  -0.358  13.827  1.00  0.00     0.275 HD
ATOM     15  H21 UNL     1      39.983   1.146  14.118  1.00  0.00     0.275 HD
ENDBRANCH  11  12
BRANCH  11  16
HETATM   16  C8  UNL     1      37.215   0.363  12.780  1.00  0.00     0.257 C
HETATM   17  O4  UNL     1      36.640   0.689  11.718  1.00  0.00    -0.271 OA
HETATM   18  N3  UNL     1      36.979  -0.899  13.344  1.00  0.00    -0.296 N
HETATM   19  C9  UNL     1      36.100  -1.814  12.735  1.00  0.00     0.220 C
ATOM     20  H3  UNL     1      37.452  -1.158  14.209  1.00  0.00     0.171 HD
HETATM   21  C10 UNL     1      35.352  -1.563  11.479  1.00  0.00     0.117 C
HETATM   22  O5  UNL     1      35.897  -2.966  13.268  1.00  0.00    -0.274 OA
ENDBRANCH  11  16
ENDBRANCH   4  11
BRANCH   1  23
HETATM   23  C3  UNL     1      38.176   5.431  13.819  1.00  0.00     0.207 C
HETATM   24  C4  UNL     1      36.970   6.353  13.600  1.00  0.00     0.045 C
BRANCH  23  25
HETATM   25  C2  UNL     1      38.896   5.397  12.525  1.00  0.00     0.283 C
HETATM   26  O2  UNL     1      38.649   4.463  11.726  1.00  0.00    -0.263 OA
BRANCH  25  27
HETATM   27  O1  UNL     1      39.819   6.352  12.176  1.00  0.00    -0.325 OA
HETATM   28  C1  UNL     1      40.589   6.306  10.989  1.00  0.00     0.213 C
ENDBRANCH  25  27
ENDBRANCH  23  25
ENDBRANCH   1  23
TORSDOF 6
ENDMDL