MODEL 5
REMARK VINA RESULT: -6.095082200      1.953      3.045
REMARK  6 active torsions:
REMARK  status: ('A' for Active; 'I' for Inactive)
REMARK       I    between atoms: N1_2  and  C2_4
REMARK    1  A    between atoms: C2_4  and  C3_6
REMARK       I    between atoms: C3_6  and  N2_8
REMARK    2  A    between atoms: N2_8  and  C4_10
REMARK    3  A    between atoms: C6_12  and  N3_13
REMARK    4  A    between atoms: C8_16  and  S1_17
REMARK    5  A    between atoms: S1_17  and  N4_20
REMARK    6  A    between atoms: N5_23  and  O5_24
ROOT
HETATM    1  C4  UNL     1      35.101  -4.601  11.838  1.00  0.00     0.127 A
HETATM    2  C5  UNL     1      35.774  -4.537  13.038  1.00  0.00     0.082 A
HETATM    3  C6  UNL     1      36.508  -3.402  13.400  1.00  0.00     0.076 A
HETATM    4  C8  UNL     1      36.531  -2.360  12.520  1.00  0.00     0.221 A
HETATM    5  N5  UNL     1      35.850  -2.445  11.321  1.00  0.00    -0.146 N
HETATM    6  N6  UNL     1      35.173  -3.535  11.026  1.00  0.00    -0.258 N
ATOM      7  H6  UNL     1      34.678  -3.571  10.135  1.00  0.00     0.191 HD
ENDROOT
BRANCH   1   8
HETATM    8  N2  UNL     1      34.425  -5.629  11.492  1.00  0.00    -0.304 N
HETATM    9  C3  UNL     1      33.741  -6.485  12.362  1.00  0.00     0.315 C
HETATM   10  O2  UNL     1      32.498  -6.345  12.479  1.00  0.00    -0.262 OA
ATOM     11  H2  UNL     1      34.382  -5.845  10.497  1.00  0.00     0.171 HD
BRANCH   9  12
HETATM   12  C2  UNL     1      34.394  -7.530  13.138  1.00  0.00     0.309 C
HETATM   13  N1  UNL     1      35.631  -8.112  12.748  1.00  0.00    -0.357 N
HETATM   14  C1  UNL     1      36.286  -9.138  13.497  1.00  0.00     0.149 C
ATOM     15  H1  UNL     1      36.074  -7.782  11.890  1.00  0.00     0.162 HD
HETATM   16  O1  UNL     1      33.861  -7.948  14.197  1.00  0.00    -0.262 OA
ENDBRANCH   9  12
ENDBRANCH   1   8
BRANCH   3  17
HETATM   17  N3  UNL     1      37.207  -3.376  14.621  1.00  0.00    -0.392 N
HETATM   18  C7  UNL     1      38.404  -4.159  14.869  1.00  0.00     0.146 C
ATOM     19  H3  UNL     1      36.856  -2.776  15.367  1.00  0.00     0.159 HD
ENDBRANCH   3  17
BRANCH   5  20
HETATM   20  O5  UNL     1      35.877  -1.391  10.435  1.00  0.00    -0.267 OA
ATOM     21  H5  UNL     1      35.909  -0.498  10.758  1.00  0.00     0.247 HD
ENDBRANCH   5  20
BRANCH   4  22
HETATM   22  S1  UNL     1      37.378  -0.901  12.872  1.00  0.00     0.280 S
HETATM   23  O3  UNL     1      37.771  -0.701  14.281  1.00  0.00    -0.199 OA
HETATM   24  O4  UNL     1      36.427   0.266  12.557  1.00  0.00    -0.199 OA
BRANCH  22  25
HETATM   25  N4  UNL     1      38.727  -0.631  11.810  1.00  0.00    -0.318 N
HETATM   26  C9  UNL     1      39.617  -1.767  11.971  1.00  0.00     0.159 C
ATOM     27  H4  UNL     1      38.867   0.169  11.194  1.00  0.00     0.171 HD
ENDBRANCH  22  25
ENDBRANCH   4  22
TORSDOF 6
ENDMDL