MODEL 5
REMARK VINA RESULT: -6.100799799      1.314      1.596
REMARK  8 active torsions:
REMARK  status: ('A' for Active; 'I' for Inactive)
REMARK    1  A    between atoms: C1_2  and  C2_4
REMARK    2  A    between atoms: C2_4  and  N2_5
REMARK    3  A    between atoms: N2_5  and  C3_6
REMARK    4  A    between atoms: C3_6  and  O2_7
REMARK    5  A    between atoms: C3_6  and  C4_9
REMARK       I    between atoms: C4_9  and  N3_11
REMARK    6  A    between atoms: N3_11  and  C5_13
REMARK    7  A    between atoms: C6_18  and  S1_19
REMARK    8  A    between atoms: S1_19  and  N6_20
ROOT
HETATM    1  C5  UNL     1      36.797  -4.161  12.771  1.00  0.00     0.169 A
HETATM    2  N4  UNL     1      35.793  -3.730  12.001  1.00  0.00    -0.278 N
ATOM      3  H4  UNL     1      35.803  -2.786  11.617  1.00  0.00     0.189 HD
HETATM    4  N5  UNL     1      34.830  -4.515  11.757  1.00  0.00    -0.281 N
ATOM      5  H5  UNL     1      34.058  -4.201  11.170  1.00  0.00     0.188 HD
HETATM    6  C6  UNL     1      34.819  -5.739  12.259  1.00  0.00     0.208 A
HETATM    7  S2  UNL     1      36.289  -5.758  13.133  1.00  0.00    -0.020 SA
ENDROOT
BRANCH   1   8
HETATM    8  N3  UNL     1      37.873  -3.498  13.133  1.00  0.00    -0.298 N
HETATM    9  C4  UNL     1      37.808  -2.077  12.954  1.00  0.00     0.312 C
HETATM   10  O3  UNL     1      37.999  -1.646  11.834  1.00  0.00    -0.262 OA
ATOM     11  H3  UNL     1      38.697  -3.963  13.514  1.00  0.00     0.171 HD
BRANCH   9  12
HETATM   12  C3  UNL     1      37.520  -1.259  14.118  1.00  0.00     0.283 C
BRANCH  12  13
HETATM   13  N2  UNL     1      37.648   0.127  14.088  1.00  0.00    -0.384 NA
BRANCH  13  14
HETATM   14  C2  UNL     1      37.773   1.467  14.059  1.00  0.00     0.256 C
BRANCH  14  15
HETATM   15  C1  UNL     1      36.680   2.243  13.441  1.00  0.00     0.283 C
HETATM   16  N1  UNL     1      37.054   2.996  12.269  1.00  0.00    -0.056 NA
HETATM   17  O1  UNL     1      35.532   2.280  13.852  1.00  0.00    -0.269 OA
ENDBRANCH  14  15
ENDBRANCH  13  14
ENDBRANCH  12  13
BRANCH  12  18
HETATM   18  O2  UNL     1      37.137  -1.893  15.187  1.00  0.00    -0.331 OA
ATOM     19  H2  UNL     1      37.523  -2.721  15.447  1.00  0.00     0.220 HD
ENDBRANCH  12  18
ENDBRANCH   9  12
ENDBRANCH   1   8
BRANCH   6  20
HETATM   20  S1  UNL     1      33.632  -7.034  12.090  1.00  0.00     0.280 S
HETATM   21  O4  UNL     1      34.145  -7.944  11.006  1.00  0.00    -0.199 OA
HETATM   22  O5  UNL     1      33.364  -7.729  13.366  1.00  0.00    -0.199 OA
BRANCH  20  23
HETATM   23  N6  UNL     1      32.184  -6.271  11.478  1.00  0.00    -0.323 N
ATOM     24  H62 UNL     1      31.253  -6.686  11.437  1.00  0.00     0.169 HD
ATOM     25  H61 UNL     1      32.469  -5.340  11.176  1.00  0.00     0.169 HD
ENDBRANCH  20  23
ENDBRANCH   6  20
TORSDOF 8
ENDMDL