MODEL 1
REMARK VINA RESULT: -6.206003839      0.000      0.000
REMARK  6 active torsions:
REMARK  status: ('A' for Active; 'I' for Inactive)
REMARK    1  A    between atoms: C2_2  and  C3_3
REMARK    2  A    between atoms: C2_2  and  S2_23
REMARK       I    between atoms: C3_3  and  N1_5
REMARK    3  A    between atoms: N1_5  and  C4_7
REMARK    4  A    between atoms: C5_10  and  S1_11
REMARK    5  A    between atoms: C6_17  and  N4_18
REMARK    6  A    between atoms: S2_23  and  N6_24
ROOT
HETATM    1  C4  UNL     1      37.769  -0.945  14.603  1.00  0.00     0.701 A
HETATM    2  N2  UNL     1      37.174   0.230  14.307  1.00  0.00    -0.162 N
ATOM      3  H2  UNL     1      36.156   0.279  14.274  1.00  0.00     0.186 HD
HETATM    4  C5  UNL     1      37.894   1.337  14.053  1.00  0.00     0.254 A
HETATM    5  N3  UNL     1      39.234   1.225  14.107  1.00  0.00    -0.163 N
ATOM      6  H3  UNL     1      39.810   2.046  13.919  1.00  0.00     0.186 HD
HETATM    7  C6  UNL     1      39.837   0.049  14.404  1.00  0.00     0.692 A
HETATM    8  N5  UNL     1      39.107  -1.058  14.657  1.00  0.00    -0.022 N
ATOM      9  H5  UNL     1      39.555  -1.947  14.882  1.00  0.00     0.203 HD
ENDROOT
BRANCH   1  10
HETATM   10  N1  UNL     1      37.063  -1.997  14.843  1.00  0.00    -0.158 N
HETATM   11  C3  UNL     1      37.042  -3.155  14.047  1.00  0.00     0.256 C
HETATM   12  O1  UNL     1      38.028  -3.900  13.957  1.00  0.00    -0.271 OA
ATOM     13  H1  UNL     1      36.474  -1.989  15.676  1.00  0.00     0.187 HD
BRANCH  11  14
HETATM   14  C2  UNL     1      35.804  -3.465  13.308  1.00  0.00     0.217 C
HETATM   15  C1  UNL     1      35.848  -4.935  12.942  1.00  0.00     0.038 C
BRANCH  14  16
HETATM   16  S2  UNL     1      35.810  -2.441  11.847  1.00  0.00     0.237 S
HETATM   17  O5  UNL     1      35.334  -1.065  12.111  1.00  0.00    -0.205 OA
HETATM   18  O6  UNL     1      35.064  -3.132  10.743  1.00  0.00    -0.205 OA
BRANCH  16  19
HETATM   19  N6  UNL     1      37.473  -2.350  11.326  1.00  0.00    -0.328 N
ATOM     20  H62 UNL     1      38.158  -3.105  11.364  1.00  0.00     0.168 HD
ATOM     21  H61 UNL     1      37.611  -1.399  10.982  1.00  0.00     0.168 HD
ENDBRANCH  16  19
ENDBRANCH  14  16
ENDBRANCH  11  14
ENDBRANCH   1  10
BRANCH   4  22
HETATM   22  S1  UNL     1      37.107   2.866  13.666  1.00  0.00     0.173 S
HETATM   23  O2  UNL     1      35.615   2.615  13.763  1.00  0.00    -0.589 OA
HETATM   24  O3  UNL     1      37.421   3.289  12.283  1.00  0.00    -0.589 OA
HETATM   25  O4  UNL     1      37.535   3.968  14.831  1.00  0.00    -0.589 OA
ENDBRANCH   4  22
BRANCH   7  26
HETATM   26  N4  UNL     1      41.122  -0.058  14.455  1.00  0.00    -0.234 N
ATOM     27  H42 UNL     1      41.661   0.796  14.601  1.00  0.00     0.174 HD
ATOM     28  H41 UNL     1      41.587  -0.960  14.354  1.00  0.00     0.174 HD
ENDBRANCH   7  26
TORSDOF 6
ENDMDL