MODEL 2
REMARK VINA RESULT: -6.694079364      3.833      5.898
REMARK  6 active torsions:
REMARK  status: ('A' for Active; 'I' for Inactive)
REMARK       I    between atoms: N1_2  and  C2_4
REMARK    1  A    between atoms: C2_4  and  C3_6
REMARK    2  A    between atoms: C3_6  and  N2_7
REMARK       I    between atoms: N2_7  and  C4_9
REMARK    3  A    between atoms: C4_9  and  C5_11
REMARK       I    between atoms: C5_11  and  N3_13
REMARK    4  A    between atoms: N3_13  and  C6_15
REMARK    5  A    between atoms: C7_20  and  S1_21
REMARK    6  A    between atoms: S1_21  and  N6_22
ROOT
HETATM    1  C5  UNL     1      35.632  -3.344  11.680  1.00  0.00     0.315 C
HETATM    2  O3  UNL     1      34.974  -2.765  10.783  1.00  0.00    -0.262 OA
HETATM    3  N3  UNL     1      36.897  -2.860  12.071  1.00  0.00    -0.298 N
ATOM      4  H3  UNL     1      37.737  -3.424  11.937  1.00  0.00     0.171 HD
ENDROOT
BRANCH   3   5
HETATM    5  C6  UNL     1      36.966  -1.666  12.613  1.00  0.00     0.169 A
HETATM    6  N4  UNL     1      37.259  -1.349  13.876  1.00  0.00    -0.278 N
HETATM    7  N5  UNL     1      37.276  -0.126  14.211  1.00  0.00    -0.281 N
ATOM      8  H4  UNL     1      37.466  -2.077  14.560  1.00  0.00     0.189 HD
HETATM    9  C7  UNL     1      37.006   0.816  13.318  1.00  0.00     0.208 A
ATOM     10  H5  UNL     1      37.497   0.134  15.172  1.00  0.00     0.188 HD
HETATM   11  S2  UNL     1      36.713  -0.122  11.919  1.00  0.00    -0.020 SA
BRANCH   9  12
HETATM   12  S1  UNL     1      36.960   2.572  13.512  1.00  0.00     0.280 S
HETATM   13  O4  UNL     1      37.474   3.199  12.249  1.00  0.00    -0.199 OA
HETATM   14  O5  UNL     1      35.538   2.977  13.694  1.00  0.00    -0.199 OA
BRANCH  12  15
HETATM   15  N6  UNL     1      37.898   3.039  14.860  1.00  0.00    -0.323 N
ATOM     16  H62 UNL     1      38.651   2.476  15.257  1.00  0.00     0.169 HD
ATOM     17  H61 UNL     1      37.593   3.950  15.201  1.00  0.00     0.169 HD
ENDBRANCH  12  15
ENDBRANCH   9  12
ENDBRANCH   3   5
BRANCH   1  18
HETATM   18  C4  UNL     1      35.062  -4.522  12.303  1.00  0.00     0.310 C
HETATM   19  N2  UNL     1      34.216  -5.428  11.612  1.00  0.00    -0.344 N
ATOM     20  H2  UNL     1      34.004  -5.235  10.632  1.00  0.00     0.163 HD
HETATM   21  O2  UNL     1      35.333  -4.742  13.510  1.00  0.00    -0.262 OA
BRANCH  19  22
HETATM   22  C3  UNL     1      33.646  -6.592  12.208  1.00  0.00     0.225 C
BRANCH  22  23
HETATM   23  C2  UNL     1      33.805  -7.836  11.444  1.00  0.00     0.234 C
HETATM   24  N1  UNL     1      34.812  -7.885  10.447  1.00  0.00    -0.364 N
HETATM   25  C1  UNL     1      35.026  -9.074   9.658  1.00  0.00     0.149 C
ATOM     26  H1  UNL     1      35.397  -7.064  10.286  1.00  0.00     0.161 HD
HETATM   27  O1  UNL     1      33.100  -8.858  11.620  1.00  0.00    -0.272 OA
ENDBRANCH  22  23
ENDBRANCH  19  22
ENDBRANCH   1  18
TORSDOF 6
ENDMDL