MODEL 2
REMARK VINA RESULT: -4.928613294      1.563      2.145
REMARK  4 active torsions:
REMARK  status: ('A' for Active; 'I' for Inactive)
REMARK    1  A    between atoms: N1_2  and  S1_4
REMARK    2  A    between atoms: S1_4  and  C3_7
REMARK    3  A    between atoms: C4_8  and  S2_9
REMARK    4  A    between atoms: S2_9  and  N2_10
ROOT
HETATM    1  C3  UNL     1      37.089  -2.047  12.524  1.00  0.00     0.170 A
HETATM    2  C4  UNL     1      36.568  -3.300  12.696  1.00  0.00     0.152 A
HETATM    3  C5  UNL     1      35.423  -3.636  11.982  1.00  0.00     0.139 A
HETATM    4  N3  UNL     1      34.789  -4.730  12.041  1.00  0.00    -0.383 N
ATOM      5  H31 UNL     1      33.950  -4.977  11.517  1.00  0.00     0.157 HD
ATOM      6  H32 UNL     1      35.203  -5.419  12.670  1.00  0.00     0.157 HD
HETATM    7  N4  UNL     1      34.866  -2.708  11.134  1.00  0.00    -0.282 N
ATOM      8  H4  UNL     1      34.028  -2.965  10.613  1.00  0.00     0.188 HD
HETATM    9  N5  UNL     1      35.358  -1.525  10.967  1.00  0.00    -0.264 N
ATOM     10  H5  UNL     1      34.914  -0.867  10.328  1.00  0.00     0.190 HD
HETATM   11  C6  UNL     1      36.442  -1.179  11.635  1.00  0.00     0.284 A
HETATM   12  O5  UNL     1      36.948  -0.037  11.500  1.00  0.00    -0.265 OA
ENDROOT
BRANCH   1  13
HETATM   13  S1  UNL     1      38.464  -1.465  13.400  1.00  0.00     0.250 S
HETATM   14  O1  UNL     1      39.533  -2.448  13.648  1.00  0.00    -0.205 OA
HETATM   15  O2  UNL     1      37.994  -0.854  14.742  1.00  0.00    -0.205 OA
BRANCH  13  16
HETATM   16  N1  UNL     1      39.123  -0.116  12.554  1.00  0.00    -0.215 NA
HETATM   17  C1  UNL     1      39.435   0.983  13.449  1.00  0.00     0.129 C
HETATM   18  C2  UNL     1      40.273  -0.489  11.752  1.00  0.00     0.129 C
ENDBRANCH  13  16
ENDBRANCH   1  13
BRANCH   2  19
HETATM   19  S2  UNL     1      37.303  -4.469  13.714  1.00  0.00     0.262 S
HETATM   20  O3  UNL     1      38.601  -5.043  13.230  1.00  0.00    -0.201 OA
HETATM   21  O4  UNL     1      36.394  -5.656  14.038  1.00  0.00    -0.201 OA
BRANCH  19  22
HETATM   22  N2  UNL     1      37.622  -3.734  15.245  1.00  0.00    -0.324 N
ATOM     23  H22 UNL     1      36.909  -3.408  15.898  1.00  0.00     0.169 HD
ATOM     24  H21 UNL     1      38.632  -3.687  15.376  1.00  0.00     0.169 HD
ENDBRANCH  19  22
ENDBRANCH   2  19
TORSDOF 4
ENDMDL