MODEL 5
REMARK VINA RESULT: -5.874598363      1.178      2.794
REMARK  6 active torsions:
REMARK  status: ('A' for Active; 'I' for Inactive)
REMARK    1  A    between atoms: O1_1  and  C1_3
REMARK    2  A    between atoms: C1_3  and  C2_4
REMARK    3  A    between atoms: C2_4  and  C3_5
REMARK    4  A    between atoms: C3_5  and  N1_6
REMARK    5  A    between atoms: N1_6  and  C4_7
REMARK    6  A    between atoms: N1_6  and  C7_10
ROOT
HETATM    1  C2  UNL     1      13.849  17.218   2.244  1.00  0.00     0.020 C
HETATM    2  C10 UNL     1      15.002  18.125   2.357  1.00  0.00     0.002 C
HETATM    3  C11 UNL     1      15.740  17.224   1.394  1.00  0.00     0.011 C
HETATM    4  C12 UNL     1      14.364  17.298   0.835  1.00  0.00     0.002 C
HETATM    5  C13 UNL     1      14.525  18.778   1.074  1.00  0.00     0.011 C
ENDROOT
BRANCH   1   6
HETATM    6  C1  UNL     1      13.949  15.881   2.926  1.00  0.00     0.179 C
BRANCH   6   7
HETATM    7  O1  UNL     1      14.086  16.055   4.334  1.00  0.00    -0.400 OA
ATOM      8  H1  UNL     1      14.854  15.594   4.648  1.00  0.00     0.209 HD
ENDBRANCH   6   7
ENDBRANCH   1   6
BRANCH   1   9
HETATM    9  C3  UNL     1      12.455  17.767   2.422  1.00  0.00     0.071 C
BRANCH   9  10
HETATM   10  N1  UNL     1      11.383  16.920   2.594  1.00  0.00    -0.383 N
BRANCH  10  11
HETATM   11  C4  UNL     1      10.822  16.305   1.444  1.00  0.00     0.084 A
HETATM   12  C5  UNL     1      11.143  14.792   1.266  1.00  0.00     0.027 A
HETATM   13  C6  UNL     1       9.734  15.305   1.504  1.00  0.00     0.027 A
ENDBRANCH  10  11
BRANCH  10  14
HETATM   14  C7  UNL     1      10.617  16.757   3.760  1.00  0.00     0.084 A
HETATM   15  C8  UNL     1      10.846  17.561   4.993  1.00  0.00     0.027 A
HETATM   16  C9  UNL     1       9.659  17.889   4.169  1.00  0.00     0.027 A
ENDBRANCH  10  14
ENDBRANCH   9  10
ENDBRANCH   1   9
TORSDOF 6
ENDMDL