MODEL 2
REMARK VINA RESULT: -6.314100989      3.999      6.395
REMARK  5 active torsions:
REMARK  status: ('A' for Active; 'I' for Inactive)
REMARK    1  A    between atoms: C3_3  and  O1_4
REMARK    2  A    between atoms: O1_4  and  C4_5
REMARK    3  A    between atoms: C4_5  and  C5_6
REMARK    4  A    between atoms: C4_5  and  C9_10
REMARK    5  A    between atoms: C5_6  and  C6_7
ROOT
HETATM    1  C1  UNL     1      11.739  16.488   4.254  1.00  0.00     0.014 C
HETATM    2  C2  UNL     1      11.859  17.687   4.107  1.00  0.00    -0.091 C
HETATM    3  C3  UNL     1      12.024  19.131   3.924  1.00  0.00     0.260 C
ENDROOT
BRANCH   3   4
HETATM    4  O1  UNL     1      13.381  19.401   3.943  1.00  0.00    -0.374 OA
BRANCH   4   5
HETATM    5  C4  UNL     1      13.787  20.017   2.712  1.00  0.00     0.127 C
BRANCH   5   6
HETATM    6  C5  UNL     1      14.885  19.170   2.208  1.00  0.00     0.037 C
BRANCH   6   7
HETATM    7  C6  UNL     1      14.559  17.909   1.506  1.00  0.00    -0.012 A
HETATM    8  C7  UNL     1      15.827  17.063   1.218  1.00  0.00     0.005 A
HETATM    9  C8  UNL     1      14.879  16.573   2.229  1.00  0.00     0.005 A
ENDBRANCH   6   7
ENDBRANCH   5   6
BRANCH   5  10
HETATM   10  C9  UNL     1      14.123  21.404   3.146  1.00  0.00     0.018 C
HETATM   11  C10 UNL     1      13.039  22.411   3.143  1.00  0.00     0.026 C
HETATM   12  C11 UNL     1      13.446  23.492   4.165  1.00  0.00     0.114 C
HETATM   13  N1  UNL     1      14.749  23.907   3.857  1.00  0.00    -0.421 N
HETATM   14  C12 UNL     1      15.325  23.465   2.647  1.00  0.00     0.114 C
ATOM     15  H1  UNL     1      15.267  24.514   4.493  1.00  0.00     0.153 HD
HETATM   16  C13 UNL     1      15.314  21.987   2.424  1.00  0.00     0.026 C
ENDBRANCH   5  10
ENDBRANCH   4   5
ENDBRANCH   3   4
TORSDOF 5
ENDMDL