MODEL 5
REMARK VINA RESULT: -6.374723146      5.150      7.811
REMARK  5 active torsions:
REMARK  status: ('A' for Active; 'I' for Inactive)
REMARK    1  A    between atoms: C1_2  and  C2_4
REMARK    2  A    between atoms: C4_6  and  C5_7
REMARK    3  A    between atoms: C6_8  and  C7_9
REMARK    4  A    between atoms: C7_9  and  C8_10
REMARK    5  A    between atoms: C8_10  and  N1_11
ROOT
HETATM    1  C5  UNL     1      13.008  23.925   5.227  1.00  0.00    -0.025 C
HETATM    2  C6  UNL     1      12.558  23.469   6.382  1.00  0.00    -0.025 C
ENDROOT
BRANCH   2   3
HETATM    3  C7  UNL     1      11.103  23.468   6.707  1.00  0.00     0.071 C
BRANCH   3   4
HETATM    4  C8  UNL     1      10.671  24.788   7.276  1.00  0.00     0.066 C
BRANCH   4   5
HETATM    5  N1  UNL     1       9.916  25.615   6.452  1.00  0.00    -0.374 N
HETATM    6  C9  UNL     1       9.166  25.115   5.388  1.00  0.00     0.063 C
HETATM    7  C10 UNL     1       9.574  25.994   4.223  1.00  0.00     0.046 C
HETATM    8  C11 UNL     1       9.677  27.355   4.909  1.00  0.00     0.025 C
HETATM    9  C12 UNL     1      10.347  26.951   6.231  1.00  0.00     0.127 C
ENDBRANCH   4   5
ENDBRANCH   3   4
ENDBRANCH   2   3
BRANCH   1  10
HETATM   10  C4  UNL     1      14.412  23.963   4.824  1.00  0.00     0.023 A
HETATM   11  C2  UNL     1      15.170  22.829   4.281  1.00  0.00     0.095 A
HETATM   12  C3  UNL     1      14.713  23.897   3.306  1.00  0.00     0.025 A
BRANCH  11  13
HETATM   13  C1  UNL     1      14.654  21.467   4.111  1.00  0.00     0.177 C
HETATM   14  O1  UNL     1      14.762  20.634   5.039  1.00  0.00    -0.648 OA
HETATM   15  O2  UNL     1      14.029  21.031   2.932  1.00  0.00    -0.648 OA
ENDBRANCH  11  13
ENDBRANCH   1  10
TORSDOF 5
ENDMDL