MODEL 4
REMARK VINA RESULT: -6.323816265      2.340      5.802
REMARK  5 active torsions:
REMARK  status: ('A' for Active; 'I' for Inactive)
REMARK    1  A    between atoms: C1_2  and  C2_4
REMARK    2  A    between atoms: C2_4  and  C7_9
REMARK    3  A    between atoms: C3_5  and  C4_6
REMARK    4  A    between atoms: C7_9  and  C8_10
REMARK    5  A    between atoms: C8_10  and  N1_11
ROOT
HETATM    1  C2  UNL     1      12.335  16.037   2.179  1.00  0.00     0.020 C
HETATM    2  C3  UNL     1      13.426  16.432   1.616  1.00  0.00    -0.008 C
ENDROOT
BRANCH   1   3
HETATM    3  C1  UNL     1      11.178  15.758   1.323  1.00  0.00     0.205 C
HETATM    4  O1  UNL     1      10.856  16.611   0.419  1.00  0.00    -0.644 OA
HETATM    5  O2  UNL     1      10.380  14.653   1.389  1.00  0.00    -0.644 OA
ENDBRANCH   1   3
BRANCH   1   6
HETATM    6  C7  UNL     1      12.198  15.855   3.626  1.00  0.00     0.089 C
BRANCH   6   7
HETATM    7  C8  UNL     1      11.497  16.999   4.339  1.00  0.00     0.063 C
BRANCH   7   8
HETATM    8  N1  UNL     1      10.234  16.624   4.737  1.00  0.00    -0.393 N
HETATM    9  C9  UNL     1       9.783  15.322   4.809  1.00  0.00     0.122 C
HETATM   10  C10 UNL     1       8.865  15.327   6.041  1.00  0.00     0.021 C
HETATM   11  C11 UNL     1       8.980  16.740   6.626  1.00  0.00     0.021 C
HETATM   12  C12 UNL     1       9.371  17.540   5.372  1.00  0.00     0.122 C
ENDBRANCH   7   8
ENDBRANCH   6   7
ENDBRANCH   1   6
BRANCH   2  13
HETATM   13  C4  UNL     1      14.663  16.752   2.333  1.00  0.00     0.009 A
HETATM   14  C5  UNL     1      15.367  18.044   2.070  1.00  0.00     0.009 A
HETATM   15  C6  UNL     1      15.912  16.838   1.454  1.00  0.00     0.009 A
ENDBRANCH   2  13
TORSDOF 5
ENDMDL