MODEL 4
REMARK VINA RESULT: -5.848770348      4.854      6.691
REMARK  6 active torsions:
REMARK  status: ('A' for Active; 'I' for Inactive)
REMARK    1  A    between atoms: C2_2  and  N1_3
REMARK    2  A    between atoms: N1_3  and  C3_4
REMARK    3  A    between atoms: C3_4  and  C4_5
REMARK    4  A    between atoms: C4_5  and  O1_6
REMARK    5  A    between atoms: O1_6  and  C5_7
REMARK    6  A    between atoms: C5_7  and  C6_9
ROOT
HETATM    1  C3  UNL     1      14.653  19.270   1.639  1.00  0.00     0.269 C
ENDROOT
BRANCH   1   2
HETATM    2  N1  UNL     1      14.275  17.857   1.806  1.00  0.00    -0.046 N
HETATM    3  C9  UNL     1      13.526  17.496   0.627  1.00  0.00     0.243 C
HETATM    4  C10 UNL     1      12.274  16.808   1.067  1.00  0.00     0.030 C
HETATM    5  C11 UNL     1      12.290  16.822   2.566  1.00  0.00     0.030 C
HETATM    6  C12 UNL     1      13.388  17.797   2.922  1.00  0.00     0.243 C
BRANCH   2   7
HETATM    7  C2  UNL     1      15.477  17.141   1.948  1.00  0.00     0.192 C
HETATM    8  C1  UNL     1      16.111  16.490   1.002  1.00  0.00     0.038 C
ENDBRANCH   2   7
ENDBRANCH   1   2
BRANCH   1   9
HETATM    9  C4  UNL     1      14.272  19.938   2.945  1.00  0.00     0.207 C
BRANCH   9  10
HETATM   10  O1  UNL     1      13.929  21.294   2.751  1.00  0.00    -0.319 OA
BRANCH  10  11
HETATM   11  C5  UNL     1      14.717  22.294   3.300  1.00  0.00     0.263 C
HETATM   12  O2  UNL     1      15.931  22.034   3.490  1.00  0.00    -0.265 OA
BRANCH  11  13
HETATM   13  C6  UNL     1      14.095  23.602   3.631  1.00  0.00     0.085 A
HETATM   14  C7  UNL     1      13.265  23.615   4.957  1.00  0.00     0.015 A
HETATM   15  C8  UNL     1      14.569  24.306   4.855  1.00  0.00     0.015 A
ENDBRANCH  11  13
ENDBRANCH  10  11
ENDBRANCH   9  10
ENDBRANCH   1   9
TORSDOF 6
ENDMDL