MODEL 5
REMARK VINA RESULT: -6.459824835      2.493      4.538
REMARK  5 active torsions:
REMARK  status: ('A' for Active; 'I' for Inactive)
REMARK       I    between atoms: C1_2  and  N1_3
REMARK    1  A    between atoms: C1_2  and  C10_14
REMARK    2  A    between atoms: N1_3  and  C2_5
REMARK    3  A    between atoms: C4_7  and  C5_8
REMARK    4  A    between atoms: C5_8  and  O2_9
REMARK    5  A    between atoms: O2_9  and  C6_10
ROOT
HETATM    1  C2  UNL     1      11.495  14.910   2.449  1.00  0.00     0.091 A
HETATM    2  C3  UNL     1      11.177  14.347   3.844  1.00  0.00     0.034 A
HETATM    3  C4  UNL     1      10.206  15.190   3.134  1.00  0.00     0.034 A
ENDROOT
BRANCH   1   4
HETATM    4  N1  UNL     1      12.565  15.860   2.459  1.00  0.00    -0.356 N
HETATM    5  C1  UNL     1      12.701  16.805   1.414  1.00  0.00     0.222 C
HETATM    6  O1  UNL     1      11.870  16.824   0.442  1.00  0.00    -0.273 OA
ATOM      7  H1  UNL     1      13.236  15.856   3.228  1.00  0.00     0.162 HD
BRANCH   5   8
HETATM    8  C10 UNL     1      13.792  17.812   1.372  1.00  0.00     0.078 A
HETATM    9  C11 UNL     1      14.947  17.641   2.267  1.00  0.00     0.015 A
HETATM   10  C12 UNL     1      15.108  17.359   0.832  1.00  0.00     0.015 A
ENDBRANCH   5   8
ENDBRANCH   1   4
BRANCH   3  11
HETATM   11  C5  UNL     1       9.951  16.588   3.659  1.00  0.00     0.174 C
BRANCH  11  12
HETATM   12  O2  UNL     1      10.603  16.709   4.892  1.00  0.00    -0.385 OA
BRANCH  12  13
HETATM   13  C6  UNL     1      10.931  18.030   5.079  1.00  0.00     0.121 C
HETATM   14  C7  UNL     1      12.419  18.349   5.003  1.00  0.00     0.032 C
HETATM   15  C8  UNL     1      12.029  19.627   4.268  1.00  0.00     0.005 C
HETATM   16  C9  UNL     1      10.777  18.898   3.822  1.00  0.00     0.032 C
ENDBRANCH  12  13
ENDBRANCH  11  12
ENDBRANCH   3  11
TORSDOF 5
ENDMDL