MODEL 3
REMARK VINA RESULT: -6.319916469      1.493      1.680
REMARK  5 active torsions:
REMARK  status: ('A' for Active; 'I' for Inactive)
REMARK    1  A    between atoms: C2_2  and  C3_3
REMARK    2  A    between atoms: C3_3  and  O1_4
REMARK    3  A    between atoms: C3_3  and  C9_10
REMARK    4  A    between atoms: O1_4  and  C4_5
REMARK       I    between atoms: C9_10  and  N1_12
REMARK    5  A    between atoms: N1_12  and  C10_14
ROOT
HETATM    1  C3  UNL     1      13.873  17.528   1.963  1.00  0.00     0.235 C
ENDROOT
BRANCH   1   2
HETATM    2  C2  UNL     1      15.121  16.713   2.024  1.00  0.00     0.004 C
HETATM    3  C1  UNL     1      15.971  16.611   1.028  1.00  0.00     0.010 C
ENDBRANCH   1   2
BRANCH   1   4
HETATM    4  O1  UNL     1      12.946  16.941   2.793  1.00  0.00    -0.367 OA
BRANCH   4   5
HETATM    5  C4  UNL     1      11.685  17.085   2.263  1.00  0.00     0.123 C
HETATM    6  C5  UNL     1      11.545  16.420   0.914  1.00  0.00     0.032 C
HETATM    7  C6  UNL     1      11.111  15.002   1.181  1.00  0.00     0.002 C
HETATM    8  C7  UNL     1      11.042  14.869   2.698  1.00  0.00     0.002 C
HETATM    9  C8  UNL     1      10.716  16.291   3.115  1.00  0.00     0.032 C
ENDBRANCH   4   5
ENDBRANCH   1   4
BRANCH   1  10
HETATM   10  C9  UNL     1      14.135  18.945   2.323  1.00  0.00     0.250 C
HETATM   11  O2  UNL     1      14.692  19.755   1.508  1.00  0.00    -0.270 OA
HETATM   12  N1  UNL     1      13.768  19.441   3.599  1.00  0.00    -0.354 N
ATOM     13  H1  UNL     1      13.322  18.803   4.257  1.00  0.00     0.162 HD
BRANCH  12  14
HETATM   14  C10 UNL     1      13.993  20.804   4.012  1.00  0.00     0.084 A
HETATM   15  C11 UNL     1      12.896  21.774   3.666  1.00  0.00     0.027 A
HETATM   16  C12 UNL     1      13.084  21.336   5.091  1.00  0.00     0.027 A
ENDBRANCH  12  14
ENDBRANCH   1  10
TORSDOF 5
ENDMDL