MODEL 1
REMARK VINA RESULT: -9.500981072      0.000      0.000
REMARK  17 active torsions:
REMARK  status: ('A' for Active; 'I' for Inactive)
REMARK    1  A    between atoms: C2_2  and  C3_4
REMARK    2  A    between atoms: C3_4  and  N1_5
REMARK    3  A    between atoms: C3_4  and  C4_9
REMARK       I    between atoms: C4_9  and  N2_11
REMARK    4  A    between atoms: N2_11  and  C5_13
REMARK    5  A    between atoms: C7_15  and  C8_16
REMARK    6  A    between atoms: C11_19  and  O3_20
REMARK    7  A    between atoms: C12_22  and  C13_23
REMARK    8  A    between atoms: C13_23  and  C14_24
REMARK    9  A    between atoms: C13_23  and  N5_38
REMARK   10  A    between atoms: C14_24  and  C15_25
REMARK   11  A    between atoms: C16_26  and  O4_27
REMARK   12  A    between atoms: C18_35  and  O6_36
REMARK   13  A    between atoms: N5_38  and  C19_40
REMARK   14  A    between atoms: C20_41  and  N6_42
REMARK   15  A    between atoms: C22_46  and  N7_47
REMARK   16  A    between atoms: C24_51  and  N8_52
REMARK   17  A    between atoms: C25_55  and  O13_56
ROOT
HETATM    1  C13 UNL     1     -39.010  21.994   6.729  1.00  0.00     0.049 C
ENDROOT
BRANCH   1   2
HETATM    2  C12 UNL     1     -39.816  22.152   5.448  1.00  0.00     0.060 A
HETATM    3  C11 UNL     1     -40.745  21.243   5.054  1.00  0.00     0.087 A
HETATM    4  C7  UNL     1     -41.651  21.477   3.976  1.00  0.00    -0.018 A
HETATM    5  C6  UNL     1     -41.574  22.669   3.311  1.00  0.00     0.043 A
HETATM    6  C5  UNL     1     -40.657  23.615   3.664  1.00  0.00     0.070 A
HETATM    7  C25 UNL     1     -39.764  23.363   4.743  1.00  0.00     0.107 A
BRANCH   3   8
HETATM    8  O3  UNL     1     -40.868  20.022   5.668  1.00  0.00    -0.359 OA
ATOM      9  H3  UNL     1     -40.657  20.011   6.594  1.00  0.00     0.217 HD
ENDBRANCH   3   8
BRANCH   4  10
HETATM   10  C8  UNL     1     -42.564  20.383   3.612  1.00  0.00     0.013 C
HETATM   11  C9  UNL     1     -43.395  19.802   4.677  1.00  0.00     0.015 C
HETATM   12  C10 UNL     1     -43.549  20.994   2.569  1.00  0.00     0.015 C
ENDBRANCH   4  10
BRANCH   6  13
HETATM   13  N2  UNL     1     -40.633  24.891   3.039  1.00  0.00    -0.323 N
HETATM   14  C4  UNL     1     -41.582  25.901   3.117  1.00  0.00     0.260 C
HETATM   15  O2  UNL     1     -42.636  25.846   3.735  1.00  0.00    -0.270 OA
ATOM     16  H2  UNL     1     -39.816  25.088   2.460  1.00  0.00     0.169 HD
BRANCH  14  17
HETATM   17  C3  UNL     1     -41.339  27.217   2.384  1.00  0.00     0.343 C
BRANCH  17  18
HETATM   18  C2  UNL     1     -40.206  27.917   3.021  1.00  0.00     0.162 C
HETATM   19  C1  UNL     1     -40.098  29.399   2.924  1.00  0.00     0.093 C
HETATM   20  O1  UNL     1     -39.355  27.308   3.627  1.00  0.00    -0.296 OA
ENDBRANCH  17  18
BRANCH  17  21
HETATM   21  N1  UNL     1     -42.578  27.968   2.551  1.00  0.00    -0.060 N
ATOM     22  H13 UNL     1     -42.838  28.050   3.534  1.00  0.00     0.275 HD
ATOM     23  H12 UNL     1     -42.449  28.958   2.342  1.00  0.00     0.275 HD
ATOM     24  H11 UNL     1     -43.330  27.561   1.995  1.00  0.00     0.275 HD
ENDBRANCH  17  21
ENDBRANCH  14  17
ENDBRANCH   6  13
BRANCH   7  25
HETATM   25  O13 UNL     1     -38.887  24.357   5.022  1.00  0.00    -0.357 OA
ATOM     26  H13 UNL     1     -39.245  25.098   5.496  1.00  0.00     0.217 HD
ENDBRANCH   7  25
ENDBRANCH   1   2
BRANCH   1  27
HETATM   27  C14 UNL     1     -39.077  23.231   7.527  1.00  0.00     0.050 C
BRANCH  27  28
HETATM   28  C15 UNL     1     -39.126  23.229   8.983  1.00  0.00     0.068 A
HETATM   29  C16 UNL     1     -39.814  22.229   9.662  1.00  0.00     0.158 A
HETATM   30  N3  UNL     1     -39.813  22.303  11.012  1.00  0.00    -0.288 N
HETATM   31  C17 UNL     1     -39.205  23.262  11.713  1.00  0.00     0.328 A
ATOM     32  H3  UNL     1     -40.309  21.578  11.529  1.00  0.00     0.172 HD
HETATM   33  O5  UNL     1     -39.226  23.293  12.983  1.00  0.00    -0.247 OA
HETATM   34  N4  UNL     1     -38.533  24.248  11.065  1.00  0.00    -0.288 N
HETATM   35  C18 UNL     1     -38.501  24.227   9.742  1.00  0.00     0.158 A
ATOM     36  H4  UNL     1     -38.063  24.988  11.586  1.00  0.00     0.172 HD
BRANCH  29  37
HETATM   37  O4  UNL     1     -40.473  21.212   9.025  1.00  0.00    -0.345 OA
ATOM     38  H4  UNL     1     -41.105  21.360   8.331  1.00  0.00     0.219 HD
ENDBRANCH  29  37
BRANCH  35  39
HETATM   39  O6  UNL     1     -37.823  25.243   9.047  1.00  0.00    -0.345 OA
ATOM     40  H6  UNL     1     -36.875  25.256   9.102  1.00  0.00     0.219 HD
ENDBRANCH  35  39
ENDBRANCH  27  28
ENDBRANCH   1  27
BRANCH   1  41
HETATM   41  N5  UNL     1     -38.034  21.002   6.634  1.00  0.00    -0.351 N
ATOM     42  H5  UNL     1     -37.886  20.637   5.694  1.00  0.00     0.166 HD
BRANCH  41  43
HETATM   43  C19 UNL     1     -37.214  20.420   7.636  1.00  0.00     0.099 A
HETATM   44  C20 UNL     1     -36.207  21.061   8.288  1.00  0.00     0.134 A
HETATM   45  C21 UNL     1     -35.551  20.452   9.388  1.00  0.00     0.074 A
HETATM   46  C22 UNL     1     -35.904  19.207   9.820  1.00  0.00     0.107 A
HETATM   47  C23 UNL     1     -36.904  18.545   9.171  1.00  0.00     0.074 A
HETATM   48  C24 UNL     1     -37.547  19.150   8.088  1.00  0.00     0.134 A
BRANCH  44  49
HETATM   49  N6  UNL     1     -35.593  22.274   7.886  1.00  0.00    -0.113 N
HETATM   50  O7  UNL     1     -35.164  22.334   6.670  1.00  0.00    -0.532 OA
HETATM   51  O8  UNL     1     -35.411  23.412   8.571  1.00  0.00    -0.532 OA
ENDBRANCH  44  49
BRANCH  46  52
HETATM   52  N7  UNL     1     -35.247  18.597  10.951  1.00  0.00    -0.116 N
HETATM   53  O9  UNL     1     -35.862  17.726  11.597  1.00  0.00    -0.532 OA
HETATM   54  O10 UNL     1     -33.972  18.979  11.282  1.00  0.00    -0.532 OA
ENDBRANCH  46  52
BRANCH  48  55
HETATM   55  N8  UNL     1     -38.517  18.393   7.386  1.00  0.00    -0.113 N
HETATM   56  O11 UNL     1     -38.358  17.276   6.872  1.00  0.00    -0.532 OA
HETATM   57  O12 UNL     1     -39.806  18.911   7.329  1.00  0.00    -0.532 OA
ENDBRANCH  48  55
ENDBRANCH  41  43
ENDBRANCH   1  41
TORSDOF 17
ENDMDL