MODEL 2
REMARK VINA RESULT: -7.739376580      1.428      2.015
REMARK  17 active torsions:
REMARK  status: ('A' for Active; 'I' for Inactive)
REMARK    1  A    between atoms: O1_2  and  C2_3
REMARK    2  A    between atoms: N1_5  and  C4_6
REMARK    3  A    between atoms: C9_13  and  S1_14
REMARK    4  A    between atoms: S1_14  and  C10_15
REMARK    5  A    between atoms: C10_15  and  C11_16
REMARK    6  A    between atoms: C11_16  and  C12_17
REMARK    7  A    between atoms: C12_17  and  C13_18
REMARK    8  A    between atoms: C13_18  and  C14_19
REMARK    9  A    between atoms: C14_19  and  S2_20
REMARK   10  A    between atoms: S2_20  and  N4_21
REMARK   11  A    between atoms: S2_20  and  N5_24
REMARK       I    between atoms: N5_24  and  C15_26
REMARK   12  A    between atoms: N7_29  and  C16_30
REMARK   13  A    between atoms: C17_32  and  S3_33
REMARK   14  A    between atoms: C18_35  and  O4_36
REMARK   15  A    between atoms: C19_38  and  O5_39
REMARK   16  A    between atoms: C21_42  and  O6_43
REMARK   17  A    between atoms: C23_46  and  N8_47
ROOT
HETATM    1  C4  UNL     1     -35.782  22.255  13.726  1.00  0.00     0.068 A
HETATM    2  C5  UNL     1     -37.004  22.467  14.341  1.00  0.00     0.059 A
HETATM    3  C6  UNL     1     -38.076  22.845  13.589  1.00  0.00     0.063 A
HETATM    4  N2  UNL     1     -39.317  23.056  14.242  1.00  0.00    -0.101 NA
HETATM    5  C7  UNL     1     -37.954  23.020  12.217  1.00  0.00     0.045 A
HETATM    6  C8  UNL     1     -38.850  23.379  11.233  1.00  0.00     0.095 A
HETATM    7  N3  UNL     1     -40.217  23.651  11.535  1.00  0.00    -0.098 NA
HETATM    8  C9  UNL     1     -38.201  23.396  10.015  1.00  0.00     0.104 A
HETATM    9  N7  UNL     1     -36.885  23.042  10.242  1.00  0.00    -0.282 N
HETATM   10  C20 UNL     1     -36.748  22.820  11.554  1.00  0.00     0.091 A
HETATM   11  C21 UNL     1     -35.687  22.430  12.381  1.00  0.00     0.120 A
ENDROOT
BRANCH   8  12
HETATM   12  S1  UNL     1     -38.956  23.767   8.489  1.00  0.00    -0.110 SA
BRANCH  12  13
HETATM   13  C10 UNL     1     -39.321  22.615   7.272  1.00  0.00     0.081 C
BRANCH  13  14
HETATM   14  C11 UNL     1     -39.416  22.911   5.834  1.00  0.00     0.010 C
BRANCH  14  15
HETATM   15  C12 UNL     1     -40.558  22.254   5.162  1.00  0.00     0.002 C
BRANCH  15  16
HETATM   16  C13 UNL     1     -40.905  20.925   5.840  1.00  0.00     0.013 C
BRANCH  16  17
HETATM   17  C14 UNL     1     -41.801  20.166   4.877  1.00  0.00     0.107 C
BRANCH  17  18
HETATM   18  S2  UNL     1     -43.021  19.244   5.824  1.00  0.00    -0.033 SA
BRANCH  18  19
HETATM   19  N4  UNL     1     -42.954  19.661   7.322  1.00  0.00    -0.367 NA
ATOM     20  H42 UNL     1     -42.035  19.498   7.733  1.00  0.00     0.165 HD
ATOM     21  H41 UNL     1     -43.642  19.134   7.860  1.00  0.00     0.165 HD
ENDBRANCH  18  19
BRANCH  18  22
HETATM   22  N5  UNL     1     -44.587  19.531   5.120  1.00  0.00    -0.278 N
HETATM   23  C15 UNL     1     -45.765  19.122   5.761  1.00  0.00     0.339 C
HETATM   24  N6  UNL     1     -47.020  19.386   5.135  1.00  0.00    -0.039 NA
HETATM   25  O2  UNL     1     -45.694  18.537   6.866  1.00  0.00    -0.250 OA
ATOM     26  H5  UNL     1     -44.650  20.008   4.221  1.00  0.00     0.179 HD
ENDBRANCH  18  22
ENDBRANCH  17  18
ENDBRANCH  16  17
ENDBRANCH  15  16
ENDBRANCH  14  15
ENDBRANCH  13  14
ENDBRANCH  12  13
ENDBRANCH   8  12
BRANCH   9  27
HETATM   27  C16 UNL     1     -35.890  22.943   9.229  1.00  0.00     0.159 C
HETATM   28  O3  UNL     1     -35.411  21.678   8.992  1.00  0.00    -0.317 OA
HETATM   29  C17 UNL     1     -34.396  21.847   8.073  1.00  0.00     0.235 C
HETATM   30  C18 UNL     1     -34.001  23.293   8.011  1.00  0.00     0.195 C
HETATM   31  C19 UNL     1     -34.785  23.914   9.189  1.00  0.00     0.225 C
BRANCH  29  32
HETATM   32  S3  UNL     1     -34.974  21.191   6.483  1.00  0.00    -0.050 SA
HETATM   33  S4  UNL     1     -36.843  20.240   6.636  1.00  0.00    -0.011 SA
ENDBRANCH  29  32
BRANCH  30  34
HETATM   34  O4  UNL     1     -32.654  23.522   8.141  1.00  0.00    -0.389 OA
ATOM     35  H4  UNL     1     -32.373  23.727   9.024  1.00  0.00     0.210 HD
ENDBRANCH  30  34
BRANCH  31  36
HETATM   36  O5  UNL     1     -35.110  25.195   8.730  1.00  0.00    -0.385 OA
ATOM     37  H5  UNL     1     -34.376  25.769   8.541  1.00  0.00     0.210 HD
ENDBRANCH  31  36
ENDBRANCH   9  27
BRANCH  11  38
HETATM   38  O6  UNL     1     -34.490  22.214  11.763  1.00  0.00    -0.356 OA
ATOM     39  H6  UNL     1     -33.705  22.613  12.119  1.00  0.00     0.218 HD
ENDBRANCH  11  38
BRANCH   1  40
HETATM   40  N1  UNL     1     -34.641  21.900  14.500  1.00  0.00    -0.374 N
HETATM   41  C3  UNL     1     -33.681  22.846  15.012  1.00  0.00     0.157 C
HETATM   42  C2  UNL     1     -33.069  22.163  16.225  1.00  0.00     0.170 C
HETATM   43  C23 UNL     1     -33.084  20.720  15.832  1.00  0.00     0.231 C
HETATM   44  C22 UNL     1     -34.238  20.573  14.907  1.00  0.00     0.158 C
BRANCH  42  45
HETATM   45  O1  UNL     1     -31.737  22.546  16.362  1.00  0.00    -0.387 OA
HETATM   46  C1  UNL     1     -31.607  23.930  16.296  1.00  0.00     0.202 C
ENDBRANCH  42  45
BRANCH  43  47
HETATM   47  N8  UNL     1     -31.816  20.356  15.236  1.00  0.00    -0.071 N
ATOM     48  H83 UNL     1     -31.716  20.727  14.291  1.00  0.00     0.274 HD
ATOM     49  H82 UNL     1     -31.034  20.846  15.671  1.00  0.00     0.274 HD
ATOM     50  H81 UNL     1     -31.695  19.344  15.265  1.00  0.00     0.274 HD
ENDBRANCH  43  47
ENDBRANCH   1  40
TORSDOF 17
ENDMDL