MODEL 2
REMARK VINA RESULT: -8.866461591      1.925      3.834
REMARK  22 active torsions:
REMARK  status: ('A' for Active; 'I' for Inactive)
REMARK    1  A    between atoms: N2_3  and  C2_5
REMARK    2  A    between atoms: C2_5  and  C9_25
REMARK    3  A    between atoms: N3_6  and  O1_8
REMARK    4  A    between atoms: O1_8  and  C3_9
REMARK    5  A    between atoms: C3_9  and  C4_11
REMARK    6  A    between atoms: C4_11  and  O3_12
REMARK    7  A    between atoms: C4_11  and  N4_14
REMARK    8  A    between atoms: N4_14  and  C5_16
REMARK    9  A    between atoms: C7_19  and  O5_20
REMARK   10  A    between atoms: C8_22  and  O6_23
REMARK   11  A    between atoms: C11_28  and  C12_29
REMARK       I    between atoms: C12_29  and  N5_31
REMARK   12  A    between atoms: C13_33  and  C14_34
REMARK   13  A    between atoms: C14_34  and  C15_35
REMARK   14  A    between atoms: C15_35  and  C16_36
REMARK   15  A    between atoms: C16_36  and  C17_37
REMARK   16  A    between atoms: C17_37  and  C18_38
REMARK   17  A    between atoms: C18_38  and  C19_40
REMARK   18  A    between atoms: C20_41  and  C21_42
REMARK   19  A    between atoms: C23_44  and  O9_45
REMARK   20  A    between atoms: C24_47  and  O10_48
REMARK   21  A    between atoms: C25_50  and  O11_51
REMARK   22  A    between atoms: C27_54  and  O12_55
ROOT
HETATM    1  N1  UNL     1     -43.199  19.119   6.567  1.00  0.00    -0.172 NA
HETATM    2  C1  UNL     1     -42.170  19.309   6.077  1.00  0.00     0.183 C
HETATM    3  N2  UNL     1     -40.933  19.546   5.455  1.00  0.00    -0.277 N
ATOM      4  H2  UNL     1     -40.688  18.947   4.666  1.00  0.00     0.179 HD
ENDROOT
BRANCH   3   5
HETATM    5  C2  UNL     1     -40.004  20.531   5.821  1.00  0.00     0.154 C
HETATM    6  N3  UNL     1     -40.004  21.763   5.463  1.00  0.00    -0.239 N
ATOM      7  H3  UNL     1     -39.270  22.389   5.796  1.00  0.00     0.196 HD
BRANCH   6   8
HETATM    8  O1  UNL     1     -40.978  22.234   4.642  1.00  0.00    -0.194 OA
BRANCH   8   9
HETATM    9  C3  UNL     1     -40.793  22.566   3.285  1.00  0.00     0.329 C
HETATM   10  O2  UNL     1     -41.071  21.638   2.496  1.00  0.00    -0.258 OA
BRANCH   9  11
HETATM   11  C4  UNL     1     -40.313  23.911   2.953  1.00  0.00     0.319 C
BRANCH  11  12
HETATM   12  O3  UNL     1     -39.082  24.093   3.650  1.00  0.00    -0.368 OA
ATOM     13  H3  UNL     1     -38.395  24.114   2.994  1.00  0.00     0.212 HD
ENDBRANCH  11  12
BRANCH  11  14
HETATM   14  N4  UNL     1     -41.228  24.920   3.233  1.00  0.00    -0.361 N
ATOM     15  H4  UNL     1     -42.067  24.652   3.746  1.00  0.00     0.158 HD
BRANCH  14  16
HETATM   16  C5  UNL     1     -41.110  26.238   2.884  1.00  0.00     0.250 C
HETATM   17  O4  UNL     1     -40.101  27.045   3.291  1.00  0.00    -0.362 OA
HETATM   18  C6  UNL     1     -40.346  28.273   2.674  1.00  0.00     0.205 C
HETATM   19  C7  UNL     1     -41.856  28.393   2.492  1.00  0.00     0.175 C
HETATM   20  C8  UNL     1     -42.325  27.113   3.176  1.00  0.00     0.197 C
BRANCH  19  21
HETATM   21  O5  UNL     1     -42.163  28.253   1.144  1.00  0.00    -0.391 OA
ATOM     22  H5  UNL     1     -41.911  27.383   0.857  1.00  0.00     0.210 HD
ENDBRANCH  19  21
BRANCH  20  23
HETATM   23  O6  UNL     1     -43.492  26.606   2.663  1.00  0.00    -0.389 OA
ATOM     24  H6  UNL     1     -43.532  25.658   2.689  1.00  0.00     0.210 HD
ENDBRANCH  20  23
ENDBRANCH  14  16
ENDBRANCH  11  14
ENDBRANCH   9  11
ENDBRANCH   8   9
ENDBRANCH   6   8
BRANCH   5  25
HETATM   25  C9  UNL     1     -38.897  20.150   6.729  1.00  0.00     0.085 A
HETATM   26  S1  UNL     1     -38.672  18.592   7.435  1.00  0.00    -0.094 SA
HETATM   27  C10 UNL     1     -37.261  18.902   8.327  1.00  0.00     0.070 A
HETATM   28  C11 UNL     1     -36.996  20.211   8.056  1.00  0.00     0.073 A
HETATM   29  C27 UNL     1     -37.851  20.858   7.222  1.00  0.00     0.102 A
BRANCH  28  30
HETATM   30  C12 UNL     1     -35.797  20.873   8.664  1.00  0.00     0.258 C
HETATM   31  O7  UNL     1     -35.515  20.716   9.881  1.00  0.00    -0.267 OA
HETATM   32  N5  UNL     1     -34.943  21.687   7.916  1.00  0.00    -0.337 N
HETATM   33  C13 UNL     1     -33.662  21.658   7.977  1.00  0.00     0.064 C
ATOM     34  H5  UNL     1     -35.370  22.354   7.272  1.00  0.00     0.168 HD
BRANCH  33  35
HETATM   35  C14 UNL     1     -33.002  20.719   8.888  1.00  0.00     0.044 C
BRANCH  35  36
HETATM   36  C15 UNL     1     -31.600  21.134   9.240  1.00  0.00     0.006 C
BRANCH  36  37
HETATM   37  C16 UNL     1     -31.600  22.522   9.799  1.00  0.00     0.008 C
BRANCH  37  38
HETATM   38  C17 UNL     1     -31.831  22.612  11.264  1.00  0.00     0.083 C
BRANCH  38  39
HETATM   39  C18 UNL     1     -32.973  23.543  11.649  1.00  0.00     0.149 C
HETATM   40  O8  UNL     1     -33.205  23.592  12.880  1.00  0.00    -0.293 OA
BRANCH  39  41
HETATM   41  C19 UNL     1     -33.698  24.285  10.668  1.00  0.00     0.051 C
HETATM   42  C20 UNL     1     -34.877  24.521  10.282  1.00  0.00     0.015 C
BRANCH  42  43
HETATM   43  C21 UNL     1     -36.217  24.169  10.620  1.00  0.00    -0.031 A
HETATM   44  C22 UNL     1     -37.170  24.088   9.585  1.00  0.00     0.051 A
HETATM   45  C23 UNL     1     -38.480  23.803   9.865  1.00  0.00     0.102 A
HETATM   46  C24 UNL     1     -38.882  23.593  11.149  1.00  0.00     0.132 A
HETATM   47  C25 UNL     1     -38.003  23.659  12.198  1.00  0.00     0.102 A
HETATM   48  C26 UNL     1     -36.658  23.954  11.895  1.00  0.00     0.051 A
BRANCH  45  49
HETATM   49  O9  UNL     1     -39.372  23.735   8.812  1.00  0.00    -0.358 OA
ATOM     50  H9  UNL     1     -39.024  23.607   7.937  1.00  0.00     0.217 HD
ENDBRANCH  45  49
BRANCH  46  51
HETATM   51  O10 UNL     1     -40.216  23.309  11.375  1.00  0.00    -0.356 OA
ATOM     52  H10 UNL     1     -40.430  22.677  12.050  1.00  0.00     0.218 HD
ENDBRANCH  46  51
BRANCH  47  53
HETATM   53  O11 UNL     1     -38.400  23.448  13.514  1.00  0.00    -0.358 OA
ATOM     54  H11 UNL     1     -38.245  24.087  14.199  1.00  0.00     0.217 HD
ENDBRANCH  47  53
ENDBRANCH  42  43
ENDBRANCH  39  41
ENDBRANCH  38  39
ENDBRANCH  37  38
ENDBRANCH  36  37
ENDBRANCH  35  36
ENDBRANCH  33  35
ENDBRANCH  28  30
BRANCH  29  55
HETATM   55  O12 UNL     1     -37.669  22.222   6.877  1.00  0.00    -0.358 OA
ATOM     56  H12 UNL     1     -37.683  22.500   5.969  1.00  0.00     0.217 HD
ENDBRANCH  29  55
ENDBRANCH   5  25
ENDBRANCH   3   5
TORSDOF 22
ENDMDL