MODEL 2
REMARK VINA RESULT: -7.476127948      1.714      3.135
REMARK  19 active torsions:
REMARK  status: ('A' for Active; 'I' for Inactive)
REMARK    1  A    between atoms: C3_3  and  C5_5
REMARK    2  A    between atoms: C5_5  and  O2_7
REMARK    3  A    between atoms: O2_7  and  C6_8
REMARK    4  A    between atoms: C6_8  and  C7_9
REMARK    5  A    between atoms: C6_8  and  C10_14
REMARK    6  A    between atoms: C7_9  and  C8_10
REMARK    7  A    between atoms: C8_10  and  O4_12
REMARK    8  A    between atoms: C10_14  and  C11_15
REMARK    9  A    between atoms: C10_14  and  C14_24
REMARK   10  A    between atoms: C13_18  and  N1_19
REMARK   11  A    between atoms: C14_24  and  N3_26
REMARK   12  A    between atoms: N3_26  and  C16_29
REMARK   13  A    between atoms: C19_35  and  S2_36
REMARK   14  A    between atoms: S2_36  and  C20_37
REMARK   15  A    between atoms: C21_38  and  C22_39
REMARK   16  A    between atoms: C22_39  and  O6_41
REMARK   17  A    between atoms: C24_43  and  O7_44
REMARK   18  A    between atoms: C25_46  and  O8_47
REMARK   19  A    between atoms: C25_46  and  O9_49
ROOT
HETATM    1  N3  UNL     1     -38.453  22.925   8.897  1.00  0.00    -0.063 N
ATOM      2  H31 UNL     1     -38.781  23.532   8.145  1.00  0.00     0.278 HD
ATOM      3  H32 UNL     1     -39.341  22.745   9.365  1.00  0.00     0.278 HD
ENDROOT
BRANCH   1   4
HETATM    4  C14 UNL     1     -37.540  23.633   9.773  1.00  0.00     0.194 C
HETATM    5  C15 UNL     1     -38.253  24.858  10.266  1.00  0.00     0.041 C
BRANCH   4   6
HETATM    6  C10 UNL     1     -36.956  22.758  10.834  1.00  0.00     0.096 C
BRANCH   6   7
HETATM    7  C6  UNL     1     -35.586  22.226  10.480  1.00  0.00     0.153 C
BRANCH   7   8
HETATM    8  O2  UNL     1     -34.633  23.270  10.397  1.00  0.00    -0.311 OA
BRANCH   8   9
HETATM    9  C5  UNL     1     -33.898  23.539   9.264  1.00  0.00     0.289 C
HETATM   10  O1  UNL     1     -34.391  24.234   8.341  1.00  0.00    -0.260 OA
BRANCH   9  11
HETATM   11  C3  UNL     1     -32.546  23.014   9.138  1.00  0.00     0.009 C
HETATM   12  C2  UNL     1     -32.006  22.881   7.952  1.00  0.00    -0.018 C
HETATM   13  C1  UNL     1     -30.618  22.345   7.814  1.00  0.00     0.036 C
HETATM   14  C4  UNL     1     -31.771  22.629  10.354  1.00  0.00     0.054 C
ENDBRANCH   9  11
ENDBRANCH   8   9
ENDBRANCH   7   8
BRANCH   7  15
HETATM   15  C7  UNL     1     -35.067  21.250  11.497  1.00  0.00     0.144 C
BRANCH  15  16
HETATM   16  C8  UNL     1     -34.512  20.079  10.768  1.00  0.00     0.260 C
HETATM   17  O3  UNL     1     -33.484  19.445  11.186  1.00  0.00    -0.265 OA
BRANCH  16  18
HETATM   18  O4  UNL     1     -35.063  19.595   9.592  1.00  0.00    -0.326 OA
HETATM   19  C9  UNL     1     -36.113  18.614   9.612  1.00  0.00     0.213 C
ENDBRANCH  16  18
ENDBRANCH  15  16
ENDBRANCH   7  15
ENDBRANCH   6   7
BRANCH   6  20
HETATM   20  C11 UNL     1     -36.898  23.455  12.186  1.00  0.00     0.026 A
HETATM   21  C12 UNL     1     -37.789  23.136  13.181  1.00  0.00     0.078 A
HETATM   22  S1  UNL     1     -37.306  24.165  14.455  1.00  0.00    -0.064 SA
HETATM   23  C13 UNL     1     -36.012  24.937  13.663  1.00  0.00     0.142 A
HETATM   24  N2  UNL     1     -36.007  24.372  12.460  1.00  0.00    -0.340 N
ATOM     25  H2  UNL     1     -35.318  24.651  11.761  1.00  0.00     0.168 HD
BRANCH  23  26
HETATM   26  N1  UNL     1     -35.194  25.869  14.110  1.00  0.00    -0.380 N
ATOM     27  H12 UNL     1     -34.901  26.022  15.075  1.00  0.00     0.158 HD
ATOM     28  H11 UNL     1     -34.708  26.604  13.596  1.00  0.00     0.158 HD
ENDBRANCH  23  26
ENDBRANCH   6  20
ENDBRANCH   4   6
ENDBRANCH   1   4
BRANCH   1  29
HETATM   29  C16 UNL     1     -37.894  21.711   8.371  1.00  0.00     0.227 C
HETATM   30  C17 UNL     1     -36.842  21.965   7.316  1.00  0.00     0.266 C
HETATM   31  N4  UNL     1     -37.073  21.004   6.253  1.00  0.00    -0.072 N
HETATM   32  C18 UNL     1     -38.023  20.044   6.787  1.00  0.00     0.249 C
ATOM     33  H42 UNL     1     -37.373  21.430   5.376  1.00  0.00     0.277 HD
ATOM     34  H41 UNL     1     -36.218  20.577   5.896  1.00  0.00     0.277 HD
HETATM   35  C19 UNL     1     -38.983  21.023   7.515  1.00  0.00     0.110 C
BRANCH  35  36
HETATM   36  S2  UNL     1     -39.624  22.169   6.312  1.00  0.00    -0.118 SA
BRANCH  36  37
HETATM   37  C20 UNL     1     -40.582  21.480   5.008  1.00  0.00     0.043 C
HETATM   38  C21 UNL     1     -40.908  22.215   3.915  1.00  0.00     0.070 C
HETATM   39  C24 UNL     1     -41.720  21.364   3.011  1.00  0.00     0.227 C
HETATM   40  C25 UNL     1     -42.301  20.292   3.917  1.00  0.00     0.236 C
HETATM   41  C26 UNL     1     -41.129  20.134   4.881  1.00  0.00     0.086 C
HETATM   42  N5  UNL     1     -40.809  19.013   5.389  1.00  0.00    -0.397 N
ATOM     43  H52 UNL     1     -40.025  18.907   6.033  1.00  0.00     0.156 HD
ATOM     44  H51 UNL     1     -41.191  18.072   5.299  1.00  0.00     0.156 HD
BRANCH  38  45
HETATM   45  C22 UNL     1     -40.560  23.597   3.626  1.00  0.00     0.293 C
HETATM   46  O5  UNL     1     -39.360  23.859   3.361  1.00  0.00    -0.259 OA
BRANCH  45  47
HETATM   47  O6  UNL     1     -41.476  24.612   3.631  1.00  0.00    -0.323 OA
HETATM   48  C23 UNL     1     -41.268  25.894   3.110  1.00  0.00     0.213 C
ENDBRANCH  45  47
ENDBRANCH  38  45
BRANCH  39  49
HETATM   49  O7  UNL     1     -40.901  20.770   2.084  1.00  0.00    -0.385 OA
ATOM     50  H7  UNL     1     -41.402  20.145   1.573  1.00  0.00     0.210 HD
ENDBRANCH  39  49
BRANCH  40  51
HETATM   51  O8  UNL     1     -43.441  20.709   4.579  1.00  0.00    -0.358 OA
ATOM     52  H8  UNL     1     -43.415  20.526   5.511  1.00  0.00     0.213 HD
ENDBRANCH  40  51
BRANCH  40  53
HETATM   53  O9  UNL     1     -42.557  19.103   3.261  1.00  0.00    -0.358 OA
ATOM     54  H9  UNL     1     -41.769  18.625   3.031  1.00  0.00     0.213 HD
ENDBRANCH  40  53
ENDBRANCH  36  37
ENDBRANCH  35  36
ENDBRANCH   1  29
TORSDOF 19
ENDMDL