MODEL 5
REMARK VINA RESULT: -8.871199157      2.323      3.113
REMARK  14 active torsions:
REMARK  status: ('A' for Active; 'I' for Inactive)
REMARK       I    between atoms: C2_2  and  N1_4
REMARK    1  A    between atoms: N1_4  and  C3_6
REMARK    2  A    between atoms: C5_11  and  S1_12
REMARK    3  A    between atoms: S1_12  and  C6_13
REMARK    4  A    between atoms: C6_13  and  C7_14
REMARK       I    between atoms: C7_14  and  N4_16
REMARK    5  A    between atoms: N4_16  and  C8_18
REMARK    6  A    between atoms: C8_18  and  C10_20
REMARK    7  A    between atoms: C10_20  and  O4_22
REMARK    8  A    between atoms: O4_22  and  C11_23
REMARK    9  A    between atoms: C11_23  and  C12_27
REMARK   10  A    between atoms: C15_31  and  C16_32
REMARK   11  A    between atoms: C17_35  and  N6_36
REMARK   12  A    between atoms: N6_36  and  S2_38
REMARK   13  A    between atoms: S2_38  and  C18_39
REMARK   14  A    between atoms: C20_42  and  O9_43
REMARK       I    between atoms: N7_47  and  C23_49
REMARK       I    between atoms: C23_49  and  N8_50
REMARK       I    between atoms: C23_49  and  N9_54
ROOT
HETATM    1  C3  UNL     1     -37.264  22.770  12.892  1.00  0.00     0.105 A
HETATM    2  C4  UNL     1     -38.048  22.928  11.749  1.00  0.00     0.146 A
HETATM    3  N2  UNL     1     -39.413  23.336  11.923  1.00  0.00    -0.080 NA
HETATM    4  N3  UNL     1     -37.602  22.727  10.504  1.00  0.00    -0.336 N
ATOM      5  H3  UNL     1     -38.225  22.862   9.709  1.00  0.00     0.168 HD
HETATM    6  C5  UNL     1     -36.330  22.347  10.309  1.00  0.00     0.101 A
HETATM    7  C17 UNL     1     -35.529  22.179  11.401  1.00  0.00     0.101 A
HETATM    8  C22 UNL     1     -35.957  22.382  12.731  1.00  0.00     0.091 A
HETATM    9  N7  UNL     1     -35.134  22.185  13.661  1.00  0.00    -0.337 N
ATOM     10  H7  UNL     1     -34.230  21.903  13.282  1.00  0.00     0.163 HD
HETATM   11  C23 UNL     1     -35.086  22.236  15.046  1.00  0.00     0.480 C
HETATM   12  N8  UNL     1     -34.478  23.504  15.520  1.00  0.00    -0.033 N
ATOM     13  H81 UNL     1     -34.442  23.542  16.539  1.00  0.00     0.278 HD
ATOM     14  H82 UNL     1     -34.959  24.316  15.132  1.00  0.00     0.278 HD
ATOM     15  H83 UNL     1     -33.557  23.654  15.108  1.00  0.00     0.278 HD
HETATM   16  N9  UNL     1     -34.242  21.130  15.594  1.00  0.00    -0.033 N
ATOM     17  H91 UNL     1     -34.206  21.167  16.613  1.00  0.00     0.278 HD
ATOM     18  H92 UNL     1     -33.308  21.131  15.185  1.00  0.00     0.278 HD
ATOM     19  H93 UNL     1     -34.556  20.217  15.262  1.00  0.00     0.278 HD
ENDROOT
BRANCH   6  20
HETATM   20  S1  UNL     1     -35.684  22.032   8.669  1.00  0.00    -0.101 SA
BRANCH  20  21
HETATM   21  C6  UNL     1     -36.087  20.399   8.064  1.00  0.00     0.183 C
BRANCH  21  22
HETATM   22  C7  UNL     1     -37.286  20.333   7.207  1.00  0.00     0.228 C
HETATM   23  O2  UNL     1     -37.549  19.307   6.548  1.00  0.00    -0.273 OA
HETATM   24  N4  UNL     1     -38.144  21.489   7.156  1.00  0.00    -0.347 N
ATOM     25  H4  UNL     1     -37.911  22.315   7.708  1.00  0.00     0.163 HD
BRANCH  24  26
HETATM   26  C8  UNL     1     -39.332  21.490   6.328  1.00  0.00     0.180 C
HETATM   27  C9  UNL     1     -39.787  22.919   6.089  1.00  0.00     0.043 C
BRANCH  26  28
HETATM   28  C10 UNL     1     -40.407  20.743   7.084  1.00  0.00     0.287 C
HETATM   29  O3  UNL     1     -40.641  21.089   8.253  1.00  0.00    -0.262 OA
BRANCH  28  30
HETATM   30  O4  UNL     1     -41.093  19.734   6.505  1.00  0.00    -0.259 OA
BRANCH  30  31
HETATM   31  C11 UNL     1     -42.500  19.620   6.412  1.00  0.00     0.158 C
HETATM   32  N5  UNL     1     -43.127  19.298   7.413  1.00  0.00    -0.379 N
ATOM     33  H52 UNL     1     -42.718  19.101   8.326  1.00  0.00     0.158 HD
ATOM     34  H51 UNL     1     -44.141  19.216   7.346  1.00  0.00     0.158 HD
BRANCH  31  35
HETATM   35  C12 UNL     1     -43.090  19.905   5.093  1.00  0.00     0.057 A
HETATM   36  C13 UNL     1     -42.399  20.459   4.026  1.00  0.00     0.043 A
HETATM   37  C14 UNL     1     -43.265  20.550   2.976  1.00  0.00     0.144 A
HETATM   38  O5  UNL     1     -44.408  20.085   3.365  1.00  0.00    -0.315 OA
HETATM   39  C15 UNL     1     -44.351  19.676   4.658  1.00  0.00     0.165 A
BRANCH  39  40
HETATM   40  C16 UNL     1     -45.488  19.131   5.311  1.00  0.00     0.235 C
HETATM   41  O6  UNL     1     -45.382  17.912   5.722  1.00  0.00    -0.642 OA
HETATM   42  O7  UNL     1     -46.694  19.724   5.569  1.00  0.00    -0.642 OA
ENDBRANCH  39  40
ENDBRANCH  31  35
ENDBRANCH  30  31
ENDBRANCH  28  30
ENDBRANCH  26  28
ENDBRANCH  24  26
ENDBRANCH  21  22
ENDBRANCH  20  21
ENDBRANCH   6  20
BRANCH   7  43
HETATM   43  N6  UNL     1     -34.175  21.787  11.148  1.00  0.00    -0.322 N
ATOM     44  H6  UNL     1     -33.433  22.484  11.090  1.00  0.00     0.174 HD
BRANCH  43  45
HETATM   45  S2  UNL     1     -33.823  20.093  10.941  1.00  0.00    -0.012 SA
BRANCH  45  46
HETATM   46  C18 UNL     1     -33.939  19.164  12.455  1.00  0.00     0.048 A
HETATM   47  C19 UNL     1     -32.963  18.912  13.402  1.00  0.00     0.165 A
HETATM   48  O8  UNL     1     -33.466  18.187  14.359  1.00  0.00    -0.299 OA
HETATM   49  C20 UNL     1     -34.737  17.911  14.150  1.00  0.00     0.183 A
HETATM   50  C21 UNL     1     -35.070  18.511  12.958  1.00  0.00     0.086 A
BRANCH  49  51
HETATM   51  O9  UNL     1     -35.546  17.159  14.989  1.00  0.00    -0.341 OA
ATOM     52  H9  UNL     1     -35.493  17.143  15.937  1.00  0.00     0.220 HD
ENDBRANCH  49  51
ENDBRANCH  45  46
ENDBRANCH  43  45
ENDBRANCH   7  43
BRANCH   1  53
HETATM   53  N1  UNL     1     -37.897  23.025  14.134  1.00  0.00    -0.323 N
HETATM   54  C2  UNL     1     -37.916  24.335  14.707  1.00  0.00     0.218 C
HETATM   55  C1  UNL     1     -38.563  24.653  16.001  1.00  0.00     0.117 C
HETATM   56  O1  UNL     1     -37.346  25.268  14.067  1.00  0.00    -0.274 OA
ATOM     57  H1  UNL     1     -38.349  22.257  14.631  1.00  0.00     0.169 HD
ENDBRANCH   1  53
TORSDOF 14
ENDMDL