MODEL 2
REMARK VINA RESULT: -9.124223589      3.789      6.120
REMARK  17 active torsions:
REMARK  status: ('A' for Active; 'I' for Inactive)
REMARK    1  A    between atoms: C3_6  and  C4_7
REMARK    2  A    between atoms: C6_10  and  C7_11
REMARK    3  A    between atoms: C7_11  and  C8_12
REMARK    4  A    between atoms: C7_11  and  C19_30
REMARK    5  A    between atoms: C8_12  and  C9_13
REMARK    6  A    between atoms: C9_13  and  C10_14
REMARK    7  A    between atoms: C10_14  and  C11_15
REMARK    8  A    between atoms: C11_15  and  C12_16
REMARK    9  A    between atoms: C12_16  and  N2_17
REMARK   10  A    between atoms: C13_18  and  C14_19
REMARK   11  A    between atoms: C15_26  and  C16_27
REMARK   12  A    between atoms: C19_30  and  S1_31
REMARK   13  A    between atoms: S1_31  and  C20_32
REMARK   14  A    between atoms: C23_40  and  N8_41
REMARK   15  A    between atoms: C25_47  and  N10_48
REMARK   16  A    between atoms: C26_55  and  O4_56
REMARK   17  A    between atoms: C27_58  and  O5_59
ROOT
HETATM    1  C7  UNL     1     -39.776  22.475   6.415  1.00  0.00     0.071 C
ENDROOT
BRANCH   1   2
HETATM    2  C6  UNL     1     -40.088  23.107   5.108  1.00  0.00     0.128 A
HETATM    3  O1  UNL     1     -40.279  22.399   4.007  1.00  0.00    -0.307 OA
HETATM    4  C5  UNL     1     -40.535  23.223   3.018  1.00  0.00     0.171 A
HETATM    5  C4  UNL     1     -40.507  24.513   3.500  1.00  0.00     0.067 A
HETATM    6  N12 UNL     1     -40.229  24.424   4.798  1.00  0.00    -0.340 N
ATOM      7  H12 UNL     1     -40.138  25.206   5.446  1.00  0.00     0.167 HD
BRANCH   5   8
HETATM    8  C3  UNL     1     -40.754  25.713   2.666  1.00  0.00     0.268 C
HETATM    9  N1  UNL     1     -40.290  26.898   3.362  1.00  0.00    -0.056 N
HETATM   10  C2  UNL     1     -40.882  27.969   2.579  1.00  0.00     0.214 C
ATOM     11  H12 UNL     1     -39.279  26.960   3.479  1.00  0.00     0.278 HD
ATOM     12  H11 UNL     1     -40.506  26.923   4.358  1.00  0.00     0.278 HD
HETATM   13  C1  UNL     1     -40.903  29.269   3.354  1.00  0.00     0.043 C
HETATM   14  C27 UNL     1     -42.264  27.463   2.282  1.00  0.00     0.179 C
HETATM   15  C26 UNL     1     -42.222  25.973   2.516  1.00  0.00     0.185 C
BRANCH  14  16
HETATM   16  O5  UNL     1     -43.232  28.002   3.127  1.00  0.00    -0.391 OA
ATOM     17  H5  UNL     1     -43.832  27.349   3.465  1.00  0.00     0.210 HD
ENDBRANCH  14  16
BRANCH  15  18
HETATM   18  O4  UNL     1     -42.849  25.616   3.714  1.00  0.00    -0.390 OA
ATOM     19  H4  UNL     1     -43.753  25.905   3.670  1.00  0.00     0.210 HD
ENDBRANCH  15  18
ENDBRANCH   5   8
ENDBRANCH   1   2
BRANCH   1  20
HETATM   20  C8  UNL     1     -39.095  23.412   7.373  1.00  0.00     0.013 C
BRANCH  20  21
HETATM   21  C9  UNL     1     -38.993  22.952   8.777  1.00  0.00     0.001 C
BRANCH  21  22
HETATM   22  C10 UNL     1     -39.267  24.104   9.716  1.00  0.00     0.002 C
BRANCH  22  23
HETATM   23  C11 UNL     1     -38.017  24.747  10.254  1.00  0.00     0.020 C
BRANCH  23  24
HETATM   24  C12 UNL     1     -37.139  23.708  10.959  1.00  0.00     0.132 C
BRANCH  24  25
HETATM   25  N2  UNL     1     -36.057  24.331  11.669  1.00  0.00    -0.315 N
HETATM   26  C13 UNL     1     -34.839  24.632  11.174  1.00  0.00     0.202 A
HETATM   27  N3  UNL     1     -34.163  25.201  12.219  1.00  0.00    -0.278 N
HETATM   28  N4  UNL     1     -34.936  25.237  13.282  1.00  0.00    -0.287 N
ATOM     29  H3  UNL     1     -33.203  25.545  12.180  1.00  0.00     0.189 HD
HETATM   30  C15 UNL     1     -36.120  24.707  12.981  1.00  0.00     0.104 A
ATOM     31  H4  UNL     1     -34.672  25.612  14.194  1.00  0.00     0.188 HD
BRANCH  26  32
HETATM   32  C14 UNL     1     -34.315  24.422   9.830  1.00  0.00     0.246 C
HETATM   33  O2  UNL     1     -34.694  25.105   8.856  1.00  0.00    -0.642 OA
HETATM   34  O3  UNL     1     -33.368  23.436   9.616  1.00  0.00    -0.642 OA
ENDBRANCH  26  32
BRANCH  30  35
HETATM   35  C16 UNL     1     -37.301  24.546  13.880  1.00  0.00     0.055 A
HETATM   36  C17 UNL     1     -37.088  24.359  15.336  1.00  0.00     0.013 A
HETATM   37  C18 UNL     1     -37.360  23.165  14.525  1.00  0.00     0.013 A
ENDBRANCH  30  35
ENDBRANCH  24  25
ENDBRANCH  23  24
ENDBRANCH  22  23
ENDBRANCH  21  22
ENDBRANCH  20  21
ENDBRANCH   1  20
BRANCH   1  38
HETATM   38  C19 UNL     1     -39.019  21.226   6.142  1.00  0.00     0.095 C
BRANCH  38  39
HETATM   39  S1  UNL     1     -39.939  19.731   6.528  1.00  0.00    -0.093 SA
BRANCH  39  40
HETATM   40  C20 UNL     1     -41.576  19.712   5.835  1.00  0.00     0.146 A
HETATM   41  N5  UNL     1     -42.613  19.219   6.546  1.00  0.00    -0.332 N
HETATM   42  C21 UNL     1     -43.874  19.169   6.130  1.00  0.00     0.107 A
ATOM     43  H5  UNL     1     -42.412  18.856   7.478  1.00  0.00     0.168 HD
HETATM   44  C22 UNL     1     -44.885  18.655   6.902  1.00  0.00     0.161 A
HETATM   45  C24 UNL     1     -44.134  19.673   4.849  1.00  0.00     0.122 A
HETATM   46  N6  UNL     1     -44.606  18.150   8.193  1.00  0.00    -0.080 NA
HETATM   47  N7  UNL     1     -46.132  18.632   6.430  1.00  0.00    -0.177 N
HETATM   48  C23 UNL     1     -46.391  19.118   5.192  1.00  0.00     0.677 A
ATOM     49  H7  UNL     1     -46.888  18.251   6.999  1.00  0.00     0.185 HD
HETATM   50  N9  UNL     1     -45.408  19.624   4.429  1.00  0.00    -0.186 N
ATOM     51  H9  UNL     1     -45.637  19.982   3.502  1.00  0.00     0.184 HD
HETATM   52  C25 UNL     1     -43.112  20.182   4.095  1.00  0.00     0.131 A
HETATM   53  N11 UNL     1     -41.860  20.185   4.614  1.00  0.00    -0.321 N
ATOM     54  H11 UNL     1     -41.100  20.565   4.049  1.00  0.00     0.169 HD
BRANCH  48  55
HETATM   55  N8  UNL     1     -47.624  19.064   4.799  1.00  0.00    -0.234 N
ATOM     56  H82 UNL     1     -48.137  18.187   4.714  1.00  0.00     0.174 HD
ATOM     57  H81 UNL     1     -48.068  19.955   4.575  1.00  0.00     0.174 HD
ENDBRANCH  48  55
BRANCH  52  58
HETATM   58  N10 UNL     1     -43.373  20.641   2.921  1.00  0.00    -0.383 N
ATOM     59 2H10 UNL     1     -43.570  20.030   2.128  1.00  0.00     0.157 HD
ATOM     60 1H10 UNL     1     -43.382  21.650   2.777  1.00  0.00     0.157 HD
ENDBRANCH  52  58
ENDBRANCH  39  40
ENDBRANCH  38  39
ENDBRANCH   1  38
TORSDOF 17
ENDMDL