MODEL 5
REMARK VINA RESULT: -8.144012302      3.002      4.874
REMARK  17 active torsions:
REMARK  status: ('A' for Active; 'I' for Inactive)
REMARK    1  A    between atoms: C2_2  and  C3_3
REMARK    2  A    between atoms: C3_3  and  N1_5
REMARK    3  A    between atoms: N1_5  and  N2_7
REMARK       I    between atoms: N2_7  and  C6_9
REMARK    4  A    between atoms: C6_9  and  C7_11
REMARK    5  A    between atoms: C7_11  and  C8_12
REMARK    6  A    between atoms: C7_11  and  N5_21
REMARK    7  A    between atoms: C10_15  and  N3_16
REMARK    8  A    between atoms: C12_23  and  N6_24
REMARK       I    between atoms: N6_24  and  C13_26
REMARK    9  A    between atoms: C13_26  and  C14_28
REMARK   10  A    between atoms: C15_31  and  N7_32
REMARK   11  A    between atoms: N7_32  and  C16_34
REMARK   12  A    between atoms: C16_34  and  O5_35
REMARK   13  A    between atoms: C16_34  and  C17_37
REMARK   14  A    between atoms: C19_39  and  N8_40
REMARK   15  A    between atoms: C21_44  and  N9_45
REMARK   16  A    between atoms: C22_48  and  O10_49
REMARK   17  A    between atoms: C23_51  and  O11_52
ROOT
HETATM    1  N5  UNL     1     -36.456  22.912   9.616  1.00  0.00    -0.314 N
HETATM    2  C11 UNL     1     -37.308  23.312  10.585  1.00  0.00     0.126 A
HETATM    3  C12 UNL     1     -38.615  23.212  10.094  1.00  0.00     0.082 A
HETATM    4  C15 UNL     1     -38.558  22.738   8.800  1.00  0.00     0.110 A
HETATM    5  C23 UNL     1     -37.165  22.569   8.556  1.00  0.00     0.172 A
ENDROOT
BRANCH   1   6
HETATM    6  C7  UNL     1     -35.014  22.862   9.704  1.00  0.00     0.235 C
BRANCH   6   7
HETATM    7  C6  UNL     1     -34.486  23.642  10.817  1.00  0.00     0.261 C
HETATM    8  N2  UNL     1     -34.347  23.092  12.105  1.00  0.00    -0.287 N
ATOM      9  H2  UNL     1     -34.640  22.124  12.234  1.00  0.00     0.184 HD
HETATM   10  O1  UNL     1     -34.129  24.850  10.659  1.00  0.00    -0.269 OA
BRANCH   8  11
HETATM   11  N1  UNL     1     -33.841  23.763  13.225  1.00  0.00    -0.229 NA
HETATM   12  C5  UNL     1     -32.839  22.905  13.862  1.00  0.00     0.137 C
BRANCH  11  13
HETATM   13  C3  UNL     1     -34.840  24.100  14.206  1.00  0.00     0.075 C
HETATM   14  C4  UNL     1     -35.425  25.470  14.060  1.00  0.00     0.028 C
BRANCH  13  15
HETATM   15  C2  UNL     1     -35.889  23.045  14.411  1.00  0.00     0.017 C
HETATM   16  C1  UNL     1     -37.166  23.759  14.862  1.00  0.00     0.006 C
ENDBRANCH  13  15
ENDBRANCH  11  13
ENDBRANCH   8  11
ENDBRANCH   6   7
BRANCH   6  17
HETATM   17  C8  UNL     1     -34.576  21.407   9.820  1.00  0.00     0.050 A
HETATM   18  C9  UNL     1     -33.390  21.004   9.253  1.00  0.00     0.081 A
HETATM   19  S1  UNL     1     -33.353  19.344   9.640  1.00  0.00    -0.064 SA
HETATM   20  C10 UNL     1     -34.822  19.248  10.487  1.00  0.00     0.142 A
HETATM   21  N4  UNL     1     -35.284  20.497  10.440  1.00  0.00    -0.338 N
ATOM     22  H4  UNL     1     -36.172  20.740  10.879  1.00  0.00     0.168 HD
BRANCH  20  23
HETATM   23  N3  UNL     1     -35.388  18.210  11.060  1.00  0.00    -0.380 N
ATOM     24  H32 UNL     1     -36.234  17.723  10.763  1.00  0.00     0.158 HD
ATOM     25  H31 UNL     1     -35.104  17.696  11.893  1.00  0.00     0.158 HD
ENDBRANCH  20  23
ENDBRANCH   6  17
ENDBRANCH   1   6
BRANCH   5  26
HETATM   26  O11 UNL     1     -36.648  22.106   7.358  1.00  0.00    -0.344 OA
ATOM     27  H11 UNL     1     -36.005  22.557   6.822  1.00  0.00     0.219 HD
ENDBRANCH   5  26
BRANCH   3  28
HETATM   28  N6  UNL     1     -39.764  23.618  10.805  1.00  0.00    -0.315 N
HETATM   29  C13 UNL     1     -40.954  22.891  10.892  1.00  0.00     0.322 C
HETATM   30  O2  UNL     1     -41.100  21.792  10.313  1.00  0.00    -0.261 OA
ATOM     31  H6  UNL     1     -39.722  24.512  11.293  1.00  0.00     0.169 HD
BRANCH  29  32
HETATM   32  C14 UNL     1     -42.070  23.442  11.697  1.00  0.00     0.270 C
HETATM   33  O3  UNL     1     -43.101  23.841  11.129  1.00  0.00    -0.640 OA
HETATM   34  O4  UNL     1     -41.944  23.500  13.071  1.00  0.00    -0.640 OA
ENDBRANCH  29  32
ENDBRANCH   3  28
BRANCH   4  35
HETATM   35  N7  UNL     1     -39.529  22.398   7.885  1.00  0.00    -0.355 N
ATOM     36  H7  UNL     1     -40.287  23.076   7.801  1.00  0.00     0.162 HD
BRANCH  35  37
HETATM   37  C16 UNL     1     -39.657  21.275   7.043  1.00  0.00     0.255 C
BRANCH  37  38
HETATM   38  O5  UNL     1     -40.530  20.290   7.646  1.00  0.00    -0.372 OA
ATOM     39  H5  UNL     1     -41.372  20.282   7.207  1.00  0.00     0.212 HD
ENDBRANCH  37  38
BRANCH  37  40
HETATM   40  C17 UNL     1     -40.332  21.591   5.750  1.00  0.00     0.028 A
HETATM   41  C18 UNL     1     -41.334  20.797   5.237  1.00  0.00     0.050 A
HETATM   42  C19 UNL     1     -41.965  21.136   4.047  1.00  0.00     0.106 A
HETATM   43  C20 UNL     1     -41.607  22.265   3.361  1.00  0.00     0.075 A
HETATM   44  C21 UNL     1     -40.600  23.073   3.868  1.00  0.00     0.139 A
HETATM   45  C22 UNL     1     -39.978  22.735   5.040  1.00  0.00     0.109 A
BRANCH  42  46
HETATM   46  N8  UNL     1     -43.000  20.296   3.533  1.00  0.00    -0.116 N
HETATM   47  O6  UNL     1     -43.929  20.796   2.868  1.00  0.00    -0.532 OA
HETATM   48  O7  UNL     1     -42.961  18.957   3.773  1.00  0.00    -0.532 OA
ENDBRANCH  42  46
BRANCH  44  49
HETATM   49  N9  UNL     1     -40.269  24.224   3.121  1.00  0.00    -0.113 N
HETATM   50  O8  UNL     1     -41.038  24.978   2.534  1.00  0.00    -0.532 OA
HETATM   51  O9  UNL     1     -38.908  24.534   3.024  1.00  0.00    -0.532 OA
ENDBRANCH  44  49
BRANCH  45  52
HETATM   52  O10 UNL     1     -38.977  23.502   5.568  1.00  0.00    -0.357 OA
ATOM     53  H10 UNL     1     -38.749  24.294   5.094  1.00  0.00     0.217 HD
ENDBRANCH  45  52
ENDBRANCH  37  40
ENDBRANCH  35  37
ENDBRANCH   4  35
TORSDOF 17
ENDMDL