MODEL 4
REMARK VINA RESULT: -7.614029371      1.998      4.075
REMARK  17 active torsions:
REMARK  status: ('A' for Active; 'I' for Inactive)
REMARK    1  A    between atoms: O1_2  and  C2_3
REMARK       I    between atoms: C2_3  and  N1_5
REMARK    2  A    between atoms: N1_5  and  C3_7
REMARK    3  A    between atoms: C6_11  and  S2_12
REMARK    4  A    between atoms: S2_12  and  C7_13
REMARK    5  A    between atoms: C7_13  and  C8_14
REMARK       I    between atoms: C8_14  and  N2_16
REMARK    6  A    between atoms: N2_16  and  C9_18
REMARK    7  A    between atoms: C9_18  and  C10_19
REMARK    8  A    between atoms: C10_19  and  C11_20
REMARK    9  A    between atoms: C11_20  and  C12_21
REMARK   10  A    between atoms: C12_21  and  C13_22
REMARK   11  A    between atoms: C13_22  and  C14_23
REMARK   12  A    between atoms: C14_23  and  O4_24
REMARK   13  A    between atoms: C15_26  and  C16_27
REMARK   14  A    between atoms: C17_31  and  C18_32
REMARK   15  A    between atoms: C22_39  and  N5_40
REMARK   16  A    between atoms: N5_40  and  N6_42
REMARK   17  A    between atoms: N7_46  and  O7_47
ROOT
HETATM    1  C3  UNL     1     -38.804  23.386   8.366  1.00  0.00     0.148 C
HETATM    2  C4  UNL     1     -37.543  22.848   7.656  1.00  0.00     0.177 C
HETATM    3  S1  UNL     1     -36.146  23.070   8.749  1.00  0.00    -0.112 SA
HETATM    4  C5  UNL     1     -35.927  21.498   9.523  1.00  0.00     0.068 C
HETATM    5  C6  UNL     1     -36.452  20.322   8.872  1.00  0.00     0.040 C
HETATM    6  C15 UNL     1     -37.486  20.319   8.061  1.00  0.00     0.127 C
HETATM    7  N3  UNL     1     -38.153  21.538   7.795  1.00  0.00    -0.346 N
HETATM    8  C17 UNL     1     -39.384  22.213   7.567  1.00  0.00     0.162 C
ENDROOT
BRANCH   8   9
HETATM    9  C18 UNL     1     -39.684  22.627   6.139  1.00  0.00     0.047 C
HETATM   10  C19 UNL     1     -39.093  23.595   5.470  1.00  0.00     0.076 C
HETATM   11  S3  UNL     1     -39.852  23.618   3.849  1.00  0.00    -0.093 SA
HETATM   12  C20 UNL     1     -41.365  22.715   4.415  1.00  0.00     0.260 C
HETATM   13  N4  UNL     1     -41.826  21.801   3.439  1.00  0.00    -0.355 N
HETATM   14  N8  UNL     1     -40.663  21.902   5.411  1.00  0.00    -0.299 N
HETATM   15  C21 UNL     1     -41.954  20.545   4.093  1.00  0.00     0.107 A
ATOM     16  H4  UNL     1     -42.027  22.003   2.459  1.00  0.00     0.162 HD
HETATM   17  C22 UNL     1     -42.539  19.280   3.952  1.00  0.00     0.096 A
HETATM   18  C24 UNL     1     -41.253  20.583   5.292  1.00  0.00     0.166 A
HETATM   19  C23 UNL     1     -42.166  18.587   5.085  1.00  0.00     0.158 A
HETATM   20  N7  UNL     1     -41.407  19.370   5.863  1.00  0.00    -0.214 N
BRANCH  17  21
HETATM   21  N5  UNL     1     -43.348  18.811   2.889  1.00  0.00    -0.304 N
ATOM     22  H5  UNL     1     -43.963  19.457   2.393  1.00  0.00     0.186 HD
BRANCH  21  23
HETATM   23  N6  UNL     1     -43.306  17.468   2.521  1.00  0.00    -0.345 N
ATOM     24  H62 UNL     1     -42.439  16.947   2.650  1.00  0.00     0.176 HD
ATOM     25  H61 UNL     1     -44.135  17.020   2.130  1.00  0.00     0.176 HD
ENDBRANCH  21  23
ENDBRANCH  17  21
BRANCH  20  26
HETATM   26  O7  UNL     1     -40.868  18.975   7.063  1.00  0.00    -0.281 OA
ATOM     27  H7  UNL     1     -41.096  19.357   7.902  1.00  0.00     0.245 HD
ENDBRANCH  20  26
ENDBRANCH   8   9
BRANCH   1  28
HETATM   28  N1  UNL     1     -38.848  23.096   9.765  1.00  0.00    -0.327 N
HETATM   29  C2  UNL     1     -38.785  24.139  10.738  1.00  0.00     0.360 C
HETATM   30  O2  UNL     1     -38.687  25.356  10.347  1.00  0.00    -0.239 OA
ATOM     31  H1  UNL     1     -38.925  22.127  10.073  1.00  0.00     0.165 HD
BRANCH  29  32
HETATM   32  O1  UNL     1     -38.823  23.954  12.084  1.00  0.00    -0.309 OA
HETATM   33  C1  UNL     1     -37.985  23.200  12.892  1.00  0.00     0.215 C
ENDBRANCH  29  32
ENDBRANCH   1  28
BRANCH   6  34
HETATM   34  C16 UNL     1     -37.911  19.050   7.475  1.00  0.00     0.228 C
HETATM   35  O5  UNL     1     -38.016  18.954   6.223  1.00  0.00    -0.643 OA
HETATM   36  O6  UNL     1     -38.193  17.978   8.288  1.00  0.00    -0.643 OA
ENDBRANCH   6  34
BRANCH   5  37
HETATM   37  S2  UNL     1     -35.615  18.748   9.187  1.00  0.00    -0.118 SA
BRANCH  37  38
HETATM   38  C7  UNL     1     -35.789  18.380  10.943  1.00  0.00     0.182 C
BRANCH  38  39
HETATM   39  C8  UNL     1     -34.652  18.990  11.680  1.00  0.00     0.227 C
HETATM   40  O3  UNL     1     -34.715  19.224  12.882  1.00  0.00    -0.273 OA
HETATM   41  N2  UNL     1     -33.434  19.315  10.954  1.00  0.00    -0.360 N
ATOM     42  H2  UNL     1     -33.325  19.139   9.956  1.00  0.00     0.162 HD
BRANCH  41  43
HETATM   43  C9  UNL     1     -32.376  19.918  11.773  1.00  0.00     0.122 C
BRANCH  43  44
HETATM   44  C10 UNL     1     -31.831  21.100  11.017  1.00  0.00     0.020 C
BRANCH  44  45
HETATM   45  C11 UNL     1     -31.922  20.781   9.509  1.00  0.00     0.002 C
BRANCH  45  46
HETATM   46  C12 UNL     1     -30.685  21.337   8.901  1.00  0.00     0.002 C
BRANCH  46  47
HETATM   47  C13 UNL     1     -30.834  22.549   8.049  1.00  0.00     0.026 C
BRANCH  47  48
HETATM   48  C14 UNL     1     -32.220  22.944   7.690  1.00  0.00     0.164 C
BRANCH  48  49
HETATM   49  O4  UNL     1     -32.324  23.736   6.570  1.00  0.00    -0.401 OA
ATOM     50  H4  UNL     1     -33.130  24.236   6.508  1.00  0.00     0.209 HD
ENDBRANCH  48  49
ENDBRANCH  47  48
ENDBRANCH  46  47
ENDBRANCH  45  46
ENDBRANCH  44  45
ENDBRANCH  43  44
ENDBRANCH  41  43
ENDBRANCH  38  39
ENDBRANCH  37  38
ENDBRANCH   5  37
TORSDOF 17
ENDMDL