MODEL 2
REMARK VINA RESULT: -7.351300000      2.725      9.626
REMARK  18 active torsions:
REMARK  status: ('A' for Active; 'I' for Inactive)
REMARK    1  A    between atoms: C2_2  and  C3_3
REMARK    2  A    between atoms: C3_3  and  C5_5
REMARK    3  A    between atoms: C5_5  and  N1_6
REMARK    4  A    between atoms: C5_5  and  C12_31
REMARK    5  A    between atoms: N1_6  and  N2_8
REMARK    6  A    between atoms: C8_13  and  N4_14
REMARK    7  A    between atoms: C9_17  and  N5_18
REMARK    8  A    between atoms: C10_21  and  N6_22
REMARK    9  A    between atoms: N6_22  and  N7_24
REMARK   10  A    between atoms: N7_24  and  O3_26
REMARK       I    between atoms: C12_31  and  N9_33
REMARK   11  A    between atoms: N9_33  and  O5_35
REMARK   12  A    between atoms: O5_35  and  C13_36
REMARK       I    between atoms: C13_36  and  N10_38
REMARK   13  A    between atoms: N10_38  and  N11_40
REMARK       I    between atoms: N11_40  and  C14_42
REMARK       I    between atoms: C14_42  and  N12_44
REMARK   14  A    between atoms: N12_44  and  N13_46
REMARK   15  A    between atoms: C15_48  and  C16_49
REMARK   16  A    between atoms: C18_51  and  O8_52
REMARK   17  A    between atoms: C20_54  and  O9_55
REMARK   18  A    between atoms: C21_57  and  O10_58
ROOT
HETATM    1  C5  UNL     1     -39.200  20.535   7.335  1.00  0.00     0.197 C
ENDROOT
BRANCH   1   2
HETATM    2  C3  UNL     1     -37.751  20.084   7.211  1.00  0.00     0.014 C
HETATM    3  C4  UNL     1     -36.869  21.265   6.817  1.00  0.00     0.012 C
BRANCH   2   4
HETATM    4  C2  UNL     1     -37.205  19.354   8.388  1.00  0.00     0.002 C
HETATM    5  C1  UNL     1     -36.078  20.128   9.072  1.00  0.00     0.005 C
ENDBRANCH   2   4
ENDBRANCH   1   2
BRANCH   1   6
HETATM    6  N1  UNL     1     -39.513  21.164   6.071  1.00  0.00    -0.313 N
ATOM      7  H1  UNL     1     -38.873  21.912   5.803  1.00  0.00     0.181 HD
BRANCH   6   8
HETATM    8  N2  UNL     1     -40.515  20.933   5.176  1.00  0.00    -0.236 N
HETATM    9  C6  UNL     1     -40.364  21.136   3.829  1.00  0.00     0.209 A
HETATM   10  N3  UNL     1     -41.481  20.825   3.182  1.00  0.00    -0.346 N
HETATM   11  C7  UNL     1     -42.388  20.412   4.075  1.00  0.00     0.108 A
ATOM     12  H3  UNL     1     -41.623  20.890   2.174  1.00  0.00     0.167 HD
HETATM   13  C8  UNL     1     -43.689  19.967   3.966  1.00  0.00     0.094 A
HETATM   14  C11 UNL     1     -41.764  20.484   5.331  1.00  0.00     0.158 A
HETATM   15  C9  UNL     1     -44.342  19.601   5.113  1.00  0.00     0.176 A
HETATM   16  C10 UNL     1     -43.747  19.661   6.350  1.00  0.00     0.159 A
HETATM   17  N8  UNL     1     -42.461  20.106   6.421  1.00  0.00    -0.322 N
ATOM     18  H8  UNL     1     -42.008  20.155   7.333  1.00  0.00     0.169 HD
BRANCH  13  19
HETATM   19  N4  UNL     1     -44.234  19.914   2.796  1.00  0.00    -0.395 N
ATOM     20  H42 UNL     1     -44.240  19.071   2.221  1.00  0.00     0.156 HD
ATOM     21  H41 UNL     1     -44.682  20.751   2.422  1.00  0.00     0.156 HD
ENDBRANCH  13  19
BRANCH  15  22
HETATM   22  N5  UNL     1     -45.676  19.139   5.042  1.00  0.00    -0.109 N
HETATM   23  O1  UNL     1     -45.902  17.925   5.275  1.00  0.00    -0.532 OA
HETATM   24  O2  UNL     1     -46.760  19.920   4.731  1.00  0.00    -0.532 OA
ENDBRANCH  15  22
BRANCH  16  25
HETATM   25  N6  UNL     1     -44.430  19.282   7.536  1.00  0.00    -0.264 N
ATOM     26  H6  UNL     1     -44.969  19.963   8.070  1.00  0.00     0.190 HD
BRANCH  25  27
HETATM   27  N7  UNL     1     -44.341  17.949   7.953  1.00  0.00    -0.208 N
ATOM     28  H7  UNL     1     -43.999  17.242   7.302  1.00  0.00     0.215 HD
BRANCH  27  29
HETATM   29  O3  UNL     1     -44.676  17.610   9.112  1.00  0.00    -0.274 OA
ATOM     30  H3  UNL     1     -45.496  17.904   9.491  1.00  0.00     0.246 HD
ENDBRANCH  27  29
ENDBRANCH  25  27
ENDBRANCH  16  25
ENDBRANCH   6   8
ENDBRANCH   1   6
BRANCH   1  31
HETATM   31  C12 UNL     1     -39.377  21.591   8.358  1.00  0.00     0.266 C
HETATM   32  O4  UNL     1     -39.635  21.162   9.544  1.00  0.00    -0.269 OA
HETATM   33  N9  UNL     1     -39.304  22.969   8.239  1.00  0.00    -0.222 N
ATOM     34  H9  UNL     1     -39.113  23.374   7.322  1.00  0.00     0.198 HD
BRANCH  33  35
HETATM   35  O5  UNL     1     -39.478  23.804   9.304  1.00  0.00    -0.177 OA
BRANCH  35  36
HETATM   36  C13 UNL     1     -38.471  24.473   9.996  1.00  0.00     0.401 C
HETATM   37  O6  UNL     1     -37.580  24.999   9.304  1.00  0.00    -0.235 OA
HETATM   38  N10 UNL     1     -38.471  24.543  11.402  1.00  0.00    -0.240 N
ATOM     39  H10 UNL     1     -39.233  24.095  11.910  1.00  0.00     0.192 HD
BRANCH  38  40
HETATM   40  N11 UNL     1     -37.467  25.201  12.138  1.00  0.00    -0.246 N
HETATM   41  C14 UNL     1     -36.437  24.367  12.638  1.00  0.00     0.353 C
HETATM   42  O7  UNL     1     -36.387  23.137  12.449  1.00  0.00    -0.244 OA
HETATM   43  N12 UNL     1     -35.378  24.973  13.416  1.00  0.00    -0.251 N
ATOM     44  H12 UNL     1     -35.380  25.977  13.595  1.00  0.00     0.191 HD
ATOM     45  H11 UNL     1     -37.481  26.208  12.301  1.00  0.00     0.192 HD
BRANCH  43  46
HETATM   46  N13 UNL     1     -34.422  24.222  13.885  1.00  0.00    -0.307 N
HETATM   47  C15 UNL     1     -33.613  23.362  13.755  1.00  0.00     0.118 C
ATOM     48  H13 UNL     1     -34.312  24.528  14.852  1.00  0.00     0.186 HD
BRANCH  47  49
HETATM   49  C16 UNL     1     -33.297  22.549  12.591  1.00  0.00    -0.014 A
HETATM   50  C17 UNL     1     -33.114  23.193  11.354  1.00  0.00     0.052 A
HETATM   51  C18 UNL     1     -32.814  22.494  10.209  1.00  0.00     0.104 A
HETATM   52  C20 UNL     1     -32.699  21.134  10.314  1.00  0.00     0.133 A
HETATM   53  C21 UNL     1     -32.866  20.425  11.501  1.00  0.00     0.104 A
HETATM   54  C23 UNL     1     -33.167  21.180  12.626  1.00  0.00     0.052 A
BRANCH  51  55
HETATM   55  O8  UNL     1     -32.633  23.141   8.975  1.00  0.00    -0.353 OA
HETATM   56  C19 UNL     1     -33.792  23.458   8.232  1.00  0.00     0.210 C
ENDBRANCH  51  55
BRANCH  52  57
HETATM   57  O9  UNL     1     -32.399  20.404   9.184  1.00  0.00    -0.356 OA
ATOM     58  H9  UNL     1     -32.064  19.522   9.285  1.00  0.00     0.218 HD
ENDBRANCH  52  57
BRANCH  53  59
HETATM   59  O10 UNL     1     -32.743  19.077  11.560  1.00  0.00    -0.353 OA
HETATM   60  C22 UNL     1     -32.726  18.317  12.702  1.00  0.00     0.210 C
ENDBRANCH  53  59
ENDBRANCH  47  49
ENDBRANCH  43  46
ENDBRANCH  38  40
ENDBRANCH  35  36
ENDBRANCH  33  35
ENDBRANCH   1  31
TORSDOF 18
ENDMDL