MODEL 2
REMARK VINA RESULT: -8.543583407      2.256      3.883
REMARK  16 active torsions:
REMARK  status: ('A' for Active; 'I' for Inactive)
REMARK    1  A    between atoms: C2_2  and  O1_3
REMARK    2  A    between atoms: O1_3  and  C3_4
REMARK    3  A    between atoms: C3_4  and  C4_6
REMARK    4  A    between atoms: C4_6  and  N1_7
REMARK    5  A    between atoms: C5_8  and  S1_9
REMARK    6  A    between atoms: S1_9  and  C6_10
REMARK    7  A    between atoms: C6_10  and  C7_11
REMARK    8  A    between atoms: C9_13  and  C10_14
REMARK    9  A    between atoms: C10_14  and  C11_15
REMARK   10  A    between atoms: C13_20  and  N4_21
REMARK   11  A    between atoms: N6_28  and  N7_29
REMARK   12  A    between atoms: C16_36  and  C17_37
REMARK       I    between atoms: C17_37  and  N9_39
REMARK   13  A    between atoms: C19_43  and  S4_44
REMARK   14  A    between atoms: S4_44  and  C20_45
REMARK   15  A    between atoms: C20_45  and  C21_46
REMARK   16  A    between atoms: N12_48  and  O4_50
ROOT
HETATM    1  C17 UNL     1     -40.138  24.144   4.073  1.00  0.00     0.283 C
HETATM    2  O3  UNL     1     -39.173  24.267   3.233  1.00  0.00    -0.265 OA
HETATM    3  N9  UNL     1     -41.286  24.945   3.914  1.00  0.00    -0.258 N
ATOM      4  H9  UNL     1     -42.074  24.878   4.557  1.00  0.00     0.181 HD
HETATM    5  C18 UNL     1     -41.297  25.856   2.812  1.00  0.00     0.184 C
HETATM    6  N10 UNL     1     -41.307  26.582   1.919  1.00  0.00    -0.172 NA
ENDROOT
BRANCH   1   7
HETATM    7  C16 UNL     1     -40.029  23.190   5.155  1.00  0.00     0.137 A
HETATM    8  N8  UNL     1     -39.487  23.536   6.350  1.00  0.00    -0.330 N
HETATM    9  C5  UNL     1     -39.501  22.482   7.158  1.00  0.00     0.148 A
ATOM     10  H8  UNL     1     -39.127  24.460   6.590  1.00  0.00     0.168 HD
HETATM   11  N1  UNL     1     -40.058  21.459   6.460  1.00  0.00    -0.310 N
HETATM   12  C19 UNL     1     -40.396  21.881   5.209  1.00  0.00     0.107 A
BRANCH   9  13
HETATM   13  S1  UNL     1     -38.902  22.433   8.840  1.00  0.00    -0.089 SA
BRANCH  13  14
HETATM   14  C6  UNL     1     -37.175  22.873   8.932  1.00  0.00     0.124 C
BRANCH  14  15
HETATM   15  C7  UNL     1     -36.575  22.522  10.231  1.00  0.00    -0.010 A
HETATM   16  C8  UNL     1     -37.088  22.625  11.485  1.00  0.00     0.038 A
HETATM   17  C9  UNL     1     -36.135  22.214  12.445  1.00  0.00     0.039 A
HETATM   18  N6  UNL     1     -35.067  21.874  11.744  1.00  0.00    -0.259 N
HETATM   19  C15 UNL     1     -35.283  22.042  10.409  1.00  0.00     0.110 A
HETATM   20  S3  UNL     1     -34.159  21.725   9.063  1.00  0.00    -0.030 SA
BRANCH  17  21
HETATM   21  C10 UNL     1     -36.390  22.234  13.900  1.00  0.00     0.104 C
BRANCH  21  22
HETATM   22  C11 UNL     1     -36.779  23.521  14.487  1.00  0.00     0.028 A
HETATM   23  C12 UNL     1     -38.086  23.891  14.664  1.00  0.00     0.141 A
HETATM   24  N2  UNL     1     -39.169  23.151  14.116  1.00  0.00    -0.081 NA
HETATM   25  N3  UNL     1     -38.378  25.048  15.301  1.00  0.00    -0.178 N
HETATM   26  C13 UNL     1     -37.363  25.818  15.750  1.00  0.00     0.678 A
ATOM     27  H3  UNL     1     -39.347  25.334  15.440  1.00  0.00     0.185 HD
HETATM   28  N5  UNL     1     -36.090  25.474  15.583  1.00  0.00    -0.181 N
HETATM   29  C14 UNL     1     -35.738  24.335  14.958  1.00  0.00     0.126 A
ATOM     30  H5  UNL     1     -35.359  26.090  15.939  1.00  0.00     0.185 HD
HETATM   31  S2  UNL     1     -34.177  23.918  14.744  1.00  0.00    -0.059 SA
BRANCH  26  32
HETATM   32  N4  UNL     1     -37.637  26.925  16.362  1.00  0.00    -0.234 N
ATOM     33  H42 UNL     1     -38.211  27.623  15.888  1.00  0.00     0.174 HD
ATOM     34  H41 UNL     1     -37.273  27.074  17.304  1.00  0.00     0.174 HD
ENDBRANCH  26  32
ENDBRANCH  21  22
ENDBRANCH  17  21
BRANCH  18  35
HETATM   35  N7  UNL     1     -33.806  21.388  12.160  1.00  0.00    -0.338 N
ATOM     36  H72 UNL     1     -33.756  20.865  13.035  1.00  0.00     0.177 HD
ATOM     37  H71 UNL     1     -32.886  21.467  11.727  1.00  0.00     0.177 HD
ENDBRANCH  18  35
ENDBRANCH  14  15
ENDBRANCH  13  14
ENDBRANCH   9  13
BRANCH  11  38
HETATM   38  C4  UNL     1     -40.236  20.139   7.003  1.00  0.00     0.243 C
BRANCH  38  39
HETATM   39  C3  UNL     1     -39.030  19.316   6.975  1.00  0.00     0.277 C
HETATM   40  O2  UNL     1     -38.574  18.888   5.888  1.00  0.00    -0.263 OA
BRANCH  39  41
HETATM   41  O1  UNL     1     -38.356  18.979   8.128  1.00  0.00    -0.321 OA
BRANCH  41  42
HETATM   42  C2  UNL     1     -36.998  19.188   8.361  1.00  0.00     0.174 C
HETATM   43  C1  UNL     1     -36.481  18.625   9.634  1.00  0.00     0.034 C
ENDBRANCH  41  42
ENDBRANCH  39  41
ENDBRANCH  38  39
ENDBRANCH  11  38
BRANCH  12  44
HETATM   44  S4  UNL     1     -41.150  20.798   4.024  1.00  0.00    -0.102 SA
BRANCH  44  45
HETATM   45  C20 UNL     1     -42.601  19.966   4.647  1.00  0.00     0.155 C
BRANCH  45  46
HETATM   46  C21 UNL     1     -43.784  20.079   3.811  1.00  0.00     0.122 C
HETATM   47  N11 UNL     1     -43.960  21.008   2.750  1.00  0.00    -0.085 NA
HETATM   48  N12 UNL     1     -44.796  19.281   4.016  1.00  0.00    -0.259 N
ATOM     49  H12 UNL     1     -45.632  19.348   3.437  1.00  0.00     0.195 HD
BRANCH  48  50
HETATM   50  O4  UNL     1     -44.720  18.356   5.013  1.00  0.00    -0.289 OA
ATOM     51  H4  UNL     1     -45.506  17.893   5.277  1.00  0.00     0.244 HD
ENDBRANCH  48  50
ENDBRANCH  45  46
ENDBRANCH  44  45
ENDBRANCH  12  44
ENDBRANCH   1   7
TORSDOF 16
ENDMDL