MODEL 5
REMARK VINA RESULT: -9.531065317      1.631      2.109
REMARK  7 active torsions:
REMARK  status: ('A' for Active; 'I' for Inactive)
REMARK    1  A    between atoms: C3_3  and  N1_4
REMARK       I    between atoms: N1_4  and  C4_6
REMARK    2  A    between atoms: C4_6  and  C5_8
REMARK    3  A    between atoms: C5_8  and  C6_9
REMARK    4  A    between atoms: C6_9  and  C7_10
REMARK    5  A    between atoms: C7_10  and  O2_11
REMARK    6  A    between atoms: C13_18  and  C14_19
REMARK    7  A    between atoms: C14_19  and  C16_21
ROOT
HETATM    1  C1  UNL     1      39.042  28.591  36.873  1.00  0.00     0.014 C
HETATM    2  C2  UNL     1      38.827  28.399  35.695  1.00  0.00    -0.098 C
HETATM    3  C3  UNL     1      38.553  28.182  34.275  1.00  0.00     0.216 C
ENDROOT
BRANCH   3   4
HETATM    4  N1  UNL     1      38.954  29.329  33.487  1.00  0.00    -0.350 N
HETATM    5  C4  UNL     1      40.124  29.316  32.690  1.00  0.00     0.227 C
HETATM    6  O1  UNL     1      40.844  28.275  32.664  1.00  0.00    -0.273 OA
ATOM      7  H1  UNL     1      38.377  30.170  33.507  1.00  0.00     0.163 HD
BRANCH   5   8
HETATM    8  C5  UNL     1      40.498  30.496  31.906  1.00  0.00     0.043 C
HETATM    9  C8  UNL     1      41.850  30.341  31.248  1.00  0.00     0.024 C
HETATM   10  C9  UNL     1      42.825  30.612  32.339  1.00  0.00    -0.008 C
HETATM   11  C10 UNL     1      44.138  31.172  31.889  1.00  0.00     0.015 C
HETATM   12  C21 UNL     1      42.169  31.686  33.152  1.00  0.00    -0.004 C
HETATM   13  C11 UNL     1      44.019  32.684  31.916  1.00  0.00    -0.036 C
HETATM   14  C12 UNL     1      43.822  33.142  30.510  1.00  0.00     0.016 C
HETATM   15  C13 UNL     1      45.128  33.334  32.650  1.00  0.00    -0.002 C
HETATM   16  C20 UNL     1      42.748  32.988  32.711  1.00  0.00    -0.002 C
HETATM   17  C18 UNL     1      44.405  34.485  33.374  1.00  0.00     0.006 C
HETATM   18  C19 UNL     1      43.211  33.743  33.936  1.00  0.00     0.006 C
HETATM   19  C22 UNL     1      40.701  31.680  32.803  1.00  0.00     0.024 C
BRANCH   8  20
HETATM   20  C6  UNL     1      39.436  30.785  30.845  1.00  0.00     0.045 C
BRANCH  20  21
HETATM   21  C7  UNL     1      39.870  32.063  30.150  1.00  0.00     0.165 C
BRANCH  21  22
HETATM   22  O2  UNL     1      38.738  32.726  29.703  1.00  0.00    -0.401 OA
ATOM     23  H2  UNL     1      38.747  33.608  30.055  1.00  0.00     0.209 HD
ENDBRANCH  21  22
ENDBRANCH  20  21
ENDBRANCH   8  20
BRANCH  15  24
HETATM   24  C14 UNL     1      46.210  33.972  31.861  1.00  0.00    -0.014 C
HETATM   25  C15 UNL     1      46.921  34.925  32.840  1.00  0.00     0.010 C
BRANCH  24  26
HETATM   26  C16 UNL     1      47.246  33.051  31.292  1.00  0.00     0.000 C
HETATM   27  C17 UNL     1      47.479  33.312  29.820  1.00  0.00     0.005 C
ENDBRANCH  24  26
ENDBRANCH  15  24
ENDBRANCH   5   8
ENDBRANCH   3   4
TORSDOF 7
ENDMDL