MODEL 5
REMARK VINA RESULT: -7.575906838      1.603      2.316
REMARK  10 active torsions:
REMARK  status: ('A' for Active; 'I' for Inactive)
REMARK    1  A    between atoms: C3_3  and  C4_4
REMARK    2  A    between atoms: C4_4  and  N1_7
REMARK       I    between atoms: N1_7  and  C7_9
REMARK    3  A    between atoms: C7_9  and  C8_11
REMARK    4  A    between atoms: N2_14  and  C11_15
REMARK    5  A    between atoms: C11_15  and  N3_17
REMARK    6  A    between atoms: N3_17  and  C12_19
REMARK    7  A    between atoms: C12_19  and  C13_20
REMARK    8  A    between atoms: C13_20  and  C14_21
REMARK    9  A    between atoms: C14_21  and  C15_22
REMARK   10  A    between atoms: C15_22  and  C16_23
ROOT
HETATM    1  C1  UNL     1      48.583  37.412  27.817  1.00  0.00     0.112 C
HETATM    2  C2  UNL     1      48.875  36.178  28.560  1.00  0.00    -0.108 C
HETATM    3  C3  UNL     1      49.107  35.154  29.167  1.00  0.00    -0.076 C
ENDROOT
BRANCH   3   4
HETATM    4  C4  UNL     1      49.373  33.906  29.907  1.00  0.00     0.089 C
HETATM    5  C5  UNL     1      50.295  33.077  29.079  1.00  0.00     0.053 C
HETATM    6  C6  UNL     1      50.085  34.277  31.214  1.00  0.00     0.053 C
BRANCH   4   7
HETATM    7  N1  UNL     1      48.142  33.221  30.152  1.00  0.00    -0.341 N
HETATM    8  C7  UNL     1      47.119  33.776  30.961  1.00  0.00     0.223 C
HETATM    9  O1  UNL     1      47.292  34.905  31.483  1.00  0.00    -0.273 OA
ATOM     10  H1  UNL     1      47.996  32.304  29.731  1.00  0.00     0.164 HD
BRANCH   8  11
HETATM   11  C8  UNL     1      45.848  33.071  31.214  1.00  0.00     0.081 C
HETATM   12  C9  UNL     1      44.825  33.913  31.889  1.00  0.00     0.034 C
HETATM   13  C10 UNL     1      43.618  33.099  32.227  1.00  0.00     0.126 C
HETATM   14  N2  UNL     1      43.292  32.056  31.309  1.00  0.00    -0.358 N
HETATM   15  C18 UNL     1      44.215  31.536  30.311  1.00  0.00     0.126 C
HETATM   16  C19 UNL     1      45.223  32.586  29.896  1.00  0.00     0.034 C
BRANCH  14  17
HETATM   17  C11 UNL     1      41.985  31.466  31.355  1.00  0.00     0.169 C
HETATM   18  S1  UNL     1      41.816  29.844  31.413  1.00  0.00    -0.041 SA
BRANCH  17  19
HETATM   19  N3  UNL     1      40.818  32.262  31.326  1.00  0.00    -0.367 N
ATOM     20  H3  UNL     1      40.679  32.948  32.068  1.00  0.00     0.161 HD
BRANCH  19  21
HETATM   21  C12 UNL     1      39.804  32.147  30.284  1.00  0.00     0.122 C
BRANCH  21  22
HETATM   22  C13 UNL     1      38.473  31.785  30.802  1.00  0.00     0.020 C
BRANCH  22  23
HETATM   23  C14 UNL     1      38.193  30.428  31.283  1.00  0.00     0.002 C
BRANCH  23  24
HETATM   24  C15 UNL     1      37.848  30.100  32.667  1.00  0.00    -0.000 C
BRANCH  24  25
HETATM   25  C16 UNL     1      38.844  30.347  33.730  1.00  0.00    -0.005 C
HETATM   26  C17 UNL     1      39.185  28.992  34.394  1.00  0.00     0.005 C
ENDBRANCH  24  25
ENDBRANCH  23  24
ENDBRANCH  22  23
ENDBRANCH  21  22
ENDBRANCH  19  21
ENDBRANCH  17  19
ENDBRANCH  14  17
ENDBRANCH   8  11
ENDBRANCH   4   7
ENDBRANCH   3   4
TORSDOF 10
ENDMDL