MODEL 4
REMARK VINA RESULT: -8.716617199      3.113      9.701
REMARK  6 active torsions:
REMARK  status: ('A' for Active; 'I' for Inactive)
REMARK       I    between atoms: C1_2  and  N1_3
REMARK       I    between atoms: C1_2  and  N3_15
REMARK    1  A    between atoms: N1_3  and  C2_5
REMARK    2  A    between atoms: C2_5  and  C3_6
REMARK    3  A    between atoms: N2_10  and  C7_11
REMARK    4  A    between atoms: C7_11  and  C8_12
REMARK    5  A    between atoms: N3_15  and  C11_17
REMARK    6  A    between atoms: C11_17  and  C12_18
ROOT
HETATM    1  O1  UNL     1      46.567  32.608  31.589  1.00  0.00    -0.247 OA
HETATM    2  C1  UNL     1      45.832  33.027  30.669  1.00  0.00     0.319 C
HETATM    3  N1  UNL     1      46.516  33.232  29.418  1.00  0.00    -0.341 N
ATOM      4  H1  UNL     1      45.965  33.569  28.629  1.00  0.00     0.164 HD
HETATM    5  N3  UNL     1      44.467  33.278  30.827  1.00  0.00    -0.322 N
ATOM      6  H3  UNL     1      44.028  33.656  29.987  1.00  0.00     0.169 HD
ENDROOT
BRANCH   3   7
HETATM    7  C2  UNL     1      47.900  32.999  29.201  1.00  0.00     0.160 C
BRANCH   7   8
HETATM    8  C3  UNL     1      48.812  34.158  29.408  1.00  0.00     0.240 C
HETATM    9  C4  UNL     1      49.766  33.944  30.563  1.00  0.00     0.039 C
HETATM   10  C5  UNL     1      50.919  33.201  29.960  1.00  0.00     0.032 C
HETATM   11  C6  UNL     1      50.825  33.463  28.486  1.00  0.00     0.273 C
HETATM   12  N2  UNL     1      49.721  34.355  28.275  1.00  0.00     0.095 N
BRANCH  12  13
HETATM   13  C7  UNL     1      50.101  35.756  28.312  1.00  0.00     0.277 C
BRANCH  13  14
HETATM   14  C8  UNL     1      48.938  36.680  28.357  1.00  0.00     0.014 A
HETATM   15  C9  UNL     1      49.023  38.056  28.851  1.00  0.00     0.007 A
HETATM   16  C10 UNL     1      48.994  37.829  27.342  1.00  0.00     0.007 A
ENDBRANCH  13  14
ENDBRANCH  12  13
ENDBRANCH   7   8
ENDBRANCH   3   7
BRANCH   5  17
HETATM   17  C11 UNL     1      43.573  33.124  31.892  1.00  0.00     0.075 C
BRANCH  17  18
HETATM   18  C12 UNL     1      42.743  31.913  32.077  1.00  0.00    -0.007 C
HETATM   19  C13 UNL     1      43.491  30.703  32.448  1.00  0.00     0.019 C
HETATM   20  C14 UNL     1      42.529  29.540  32.788  1.00  0.00    -0.013 C
HETATM   21  C15 UNL     1      41.755  29.301  31.506  1.00  0.00     0.009 C
HETATM   22  C19 UNL     1      41.669  29.913  33.934  1.00  0.00     0.009 C
HETATM   23  C16 UNL     1      40.908  30.513  31.247  1.00  0.00    -0.013 C
HETATM   24  C17 UNL     1      39.997  30.831  32.415  1.00  0.00     0.009 C
HETATM   25  C21 UNL     1      41.792  31.678  30.906  1.00  0.00     0.019 C
HETATM   26  C18 UNL     1      40.870  31.172  33.587  1.00  0.00    -0.013 C
HETATM   27  C20 UNL     1      41.811  32.278  33.267  1.00  0.00     0.019 C
ENDBRANCH  17  18
ENDBRANCH   5  17
TORSDOF 6
ENDMDL