MODEL 2
REMARK VINA RESULT: -8.787303526      3.347      6.265
REMARK  5 active torsions:
REMARK  status: ('A' for Active; 'I' for Inactive)
REMARK    1  A    between atoms: C2_2  and  C3_3
REMARK    2  A    between atoms: N1_8  and  C8_9
REMARK    3  A    between atoms: C8_9  and  C9_10
REMARK    4  A    between atoms: C9_10  and  C10_11
REMARK    5  A    between atoms: C10_11  and  C11_12
ROOT
HETATM    1  C3  UNL     1      45.174  34.163  31.984  1.00  0.00     0.042 C
HETATM    2  C4  UNL     1      45.970  34.834  30.978  1.00  0.00     0.020 C
HETATM    3  C5  UNL     1      46.839  34.029  30.067  1.00  0.00     0.024 C
HETATM    4  C6  UNL     1      46.238  32.825  29.476  1.00  0.00     0.039 C
HETATM    5  C7  UNL     1      45.013  32.272  30.090  1.00  0.00     0.273 C
HETATM    6  N1  UNL     1      45.151  31.771  31.436  1.00  0.00     0.094 N
HETATM    7  C13 UNL     1      45.564  32.769  32.386  1.00  0.00     0.236 C
HETATM    8  C14 UNL     1      46.941  32.636  32.912  1.00  0.00     0.094 C
HETATM    9  C15 UNL     1      48.035  33.033  32.040  1.00  0.00     0.019 A
HETATM   10  N2  UNL     1      49.305  32.829  32.387  1.00  0.00    -0.361 N
ATOM     11  H2  UNL     1      49.606  32.396  33.261  1.00  0.00     0.165 HD
HETATM   12  C16 UNL     1      50.144  33.275  31.417  1.00  0.00     0.027 A
HETATM   13  C17 UNL     1      49.376  33.794  30.395  1.00  0.00     0.063 A
HETATM   14  C18 UNL     1      48.062  33.634  30.802  1.00  0.00    -0.014 A
HETATM   15  C19 UNL     1      49.948  34.347  29.192  1.00  0.00     0.254 C
HETATM   16  O1  UNL     1      49.275  34.811  28.277  1.00  0.00    -0.268 OA
HETATM   17  N3  UNL     1      51.380  34.338  29.096  1.00  0.00    -0.356 N
ATOM     18  H3  UNL     1      51.865  34.991  28.480  1.00  0.00     0.162 HD
HETATM   19  C20 UNL     1      52.124  33.380  29.895  1.00  0.00     0.129 C
HETATM   20  C21 UNL     1      51.615  33.304  31.299  1.00  0.00     0.078 C
ENDROOT
BRANCH   6  21
HETATM   21  C8  UNL     1      43.939  31.127  31.868  1.00  0.00     0.273 C
BRANCH  21  22
HETATM   22  C9  UNL     1      42.782  31.205  30.970  1.00  0.00     0.030 C
BRANCH  22  23
HETATM   23  C10 UNL     1      41.655  31.975  31.604  1.00  0.00     0.001 C
BRANCH  23  24
HETATM   24  C11 UNL     1      41.896  32.059  33.093  1.00  0.00    -0.005 C
HETATM   25  C12 UNL     1      40.782  31.369  33.837  1.00  0.00     0.005 C
ENDBRANCH  23  24
ENDBRANCH  22  23
ENDBRANCH  21  22
ENDBRANCH   6  21
BRANCH   1  26
HETATM   26  C2  UNL     1      45.126  34.982  33.236  1.00  0.00    -0.030 C
HETATM   27  C1  UNL     1      44.103  34.922  34.075  1.00  0.00     0.007 C
ENDBRANCH   1  26
TORSDOF 5
ENDMDL