MODEL 1
REMARK VINA RESULT: -8.774862576      0.000      0.000
REMARK  8 active torsions:
REMARK  status: ('A' for Active; 'I' for Inactive)
REMARK    1  A    between atoms: C2_2  and  C3_3
REMARK    2  A    between atoms: C3_3  and  N1_5
REMARK    3  A    between atoms: C3_3  and  C16_20
REMARK    4  A    between atoms: N1_5  and  C5_7
REMARK    5  A    between atoms: C5_7  and  C6_8
REMARK    6  A    between atoms: C6_8  and  C7_9
REMARK    7  A    between atoms: C16_20  and  O1_21
REMARK    8  A    between atoms: C16_20  and  N3_23
ROOT
HETATM    1  N1  UNL     1      44.680  33.291  31.077  1.00  0.00    -0.386 N
ATOM      2  H1  UNL     1      44.090  34.074  30.796  1.00  0.00     0.159 HD
ENDROOT
BRANCH   1   3
HETATM    3  C3  UNL     1      45.700  33.434  32.138  1.00  0.00     0.090 C
HETATM    4  C4  UNL     1      46.224  32.142  32.571  1.00  0.00     0.047 C
BRANCH   3   5
HETATM    5  C2  UNL     1      44.938  33.999  33.365  1.00  0.00     0.035 C
HETATM    6  C1  UNL     1      43.451  34.037  33.125  1.00  0.00     0.008 C
ENDBRANCH   3   5
BRANCH   3   7
HETATM    7  C16 UNL     1      46.665  34.452  31.807  1.00  0.00     0.142 C
BRANCH   7   8
HETATM    8  O1  UNL     1      46.505  35.648  32.351  1.00  0.00    -0.348 OA
ATOM      9  H1  UNL     1      47.060  36.352  32.037  1.00  0.00     0.219 HD
ENDBRANCH   7   8
BRANCH   7  10
HETATM   10  N3  UNL     1      47.761  34.404  30.969  1.00  0.00    -0.363 N
HETATM   11  C17 UNL     1      49.089  34.470  31.625  1.00  0.00     0.124 C
HETATM   12  C18 UNL     1      49.845  33.200  31.333  1.00  0.00     0.020 C
HETATM   13  C19 UNL     1      49.936  33.094  29.824  1.00  0.00     0.003 C
HETATM   14  C20 UNL     1      48.588  33.000  29.199  1.00  0.00     0.020 C
HETATM   15  C21 UNL     1      47.793  34.284  29.569  1.00  0.00     0.124 C
ENDBRANCH   7  10
ENDBRANCH   3   7
ENDBRANCH   1   3
BRANCH   1  16
HETATM   16  C5  UNL     1      44.563  32.045  30.483  1.00  0.00     0.061 C
BRANCH  16  17
HETATM   17  C6  UNL     1      43.388  31.191  30.438  1.00  0.00     0.084 C
BRANCH  17  18
HETATM   18  C7  UNL     1      42.622  30.872  31.631  1.00  0.00    -0.030 A
HETATM   19  C8  UNL     1      42.996  30.290  32.808  1.00  0.00     0.096 A
HETATM   20  N2  UNL     1      41.966  30.252  33.704  1.00  0.00    -0.368 N
HETATM   21  C9  UNL     1      40.930  30.813  33.113  1.00  0.00     0.015 A
ATOM     22  H2  UNL     1      41.994  29.865  34.646  1.00  0.00     0.165 HD
HETATM   23  C10 UNL     1      41.271  31.210  31.866  1.00  0.00    -0.028 A
HETATM   24  C15 UNL     1      39.568  30.886  33.760  1.00  0.00     0.057 C
HETATM   25  C11 UNL     1      40.405  31.891  30.884  1.00  0.00     0.041 C
HETATM   26  C12 UNL     1      38.940  31.548  31.121  1.00  0.00     0.005 C
HETATM   27  C13 UNL     1      38.798  30.098  31.517  1.00  0.00     0.001 C
HETATM   28  C14 UNL     1      38.648  29.910  33.009  1.00  0.00     0.006 C
ENDBRANCH  17  18
ENDBRANCH  16  17
ENDBRANCH   1  16
TORSDOF 8
ENDMDL