MODEL 2
REMARK VINA RESULT: -8.440810144      1.954      9.557
REMARK  6 active torsions:
REMARK  status: ('A' for Active; 'I' for Inactive)
REMARK    1  A    between atoms: C2_2  and  C3_3
REMARK    2  A    between atoms: C2_2  and  C13_20
REMARK    3  A    between atoms: C3_3  and  N1_4
REMARK       I    between atoms: C4_6  and  N3_8
REMARK       I    between atoms: N3_8  and  C5_10
REMARK    4  A    between atoms: C5_10  and  C6_12
REMARK    5  A    between atoms: C6_12  and  N4_13
REMARK    6  A    between atoms: C13_20  and  C14_21
ROOT
HETATM    1  N1  UNL     1      46.485  33.576  32.779  1.00  0.00    -0.364 N
ATOM      2  H1  UNL     1      46.913  32.655  32.686  1.00  0.00     0.162 HD
HETATM    3  C4  UNL     1      45.224  33.655  32.708  1.00  0.00     0.191 C
HETATM    4  N2  UNL     1      44.591  34.918  32.830  1.00  0.00    -0.063 NA
HETATM    5  N3  UNL     1      44.443  32.504  32.503  1.00  0.00    -0.297 N
ATOM      6  H3  UNL     1      44.902  31.599  32.408  1.00  0.00     0.171 HD
HETATM    7  C5  UNL     1      43.042  32.576  32.427  1.00  0.00     0.263 C
HETATM    8  O1  UNL     1      42.496  33.741  32.562  1.00  0.00    -0.267 OA
ENDROOT
BRANCH   1   9
HETATM    9  C3  UNL     1      47.349  34.704  32.984  1.00  0.00     0.126 C
BRANCH   9  10
HETATM   10  C2  UNL     1      48.564  34.531  32.059  1.00  0.00    -0.000 C
HETATM   11  C1  UNL     1      49.263  33.234  32.377  1.00  0.00     0.011 C
BRANCH  10  12
HETATM   12  C13 UNL     1      48.076  34.664  30.664  1.00  0.00     0.010 C
BRANCH  12  13
HETATM   13  C14 UNL     1      49.084  34.844  29.595  1.00  0.00    -0.014 C
HETATM   14  C15 UNL     1      49.317  33.623  28.726  1.00  0.00     0.005 C
HETATM   15  C16 UNL     1      50.703  33.841  28.101  1.00  0.00     0.000 C
HETATM   16  C17 UNL     1      50.657  35.101  27.280  1.00  0.00     0.000 C
HETATM   17  C18 UNL     1      50.336  36.318  28.147  1.00  0.00     0.000 C
HETATM   18  C19 UNL     1      48.956  36.096  28.773  1.00  0.00     0.005 C
ENDBRANCH  12  13
ENDBRANCH  10  12
ENDBRANCH   9  10
ENDBRANCH   1   9
BRANCH   7  19
HETATM   19  C6  UNL     1      42.154  31.402  32.206  1.00  0.00     0.161 C
BRANCH  19  20
HETATM   20  N4  UNL     1      40.818  31.699  32.511  1.00  0.00    -0.381 N
HETATM   21  C7  UNL     1      40.389  31.435  33.850  1.00  0.00     0.123 C
HETATM   22  C8  UNL     1      39.799  30.058  34.025  1.00  0.00     0.020 C
HETATM   23  C9  UNL     1      39.414  29.378  32.751  1.00  0.00     0.004 C
HETATM   24  C10 UNL     1      38.940  30.359  31.708  1.00  0.00     0.025 C
HETATM   25  C11 UNL     1      39.828  31.539  31.513  1.00  0.00     0.079 C
HETATM   26  C12 UNL     1      40.377  31.493  30.106  1.00  0.00     0.032 C
ENDBRANCH  19  20
ENDBRANCH   7  19
TORSDOF 6
ENDMDL