MODEL 3
REMARK VINA RESULT: -8.793176556      1.081      1.387
REMARK  6 active torsions:
REMARK  status: ('A' for Active; 'I' for Inactive)
REMARK    1  A    between atoms: N1_2  and  C2_3
REMARK    2  A    between atoms: N1_2  and  C17_23
REMARK    3  A    between atoms: C2_3  and  C3_4
REMARK    4  A    between atoms: C3_4  and  C4_5
REMARK    5  A    between atoms: C4_5  and  N2_6
REMARK       I    between atoms: N2_6  and  C5_8
REMARK       I    between atoms: C5_8  and  N3_10
REMARK    6  A    between atoms: N3_10  and  C6_12
ROOT
HETATM    1  N2  UNL     1      45.890  32.216  32.071  1.00  0.00    -0.343 N
ATOM      2  H2  UNL     1      46.340  31.441  31.585  1.00  0.00     0.164 HD
HETATM    3  C5  UNL     1      44.451  32.202  32.218  1.00  0.00     0.316 C
HETATM    4  O1  UNL     1      43.984  33.193  32.824  1.00  0.00    -0.247 OA
HETATM    5  N3  UNL     1      43.687  31.134  31.699  1.00  0.00    -0.334 N
ATOM      6  H3  UNL     1      44.209  30.399  31.221  1.00  0.00     0.165 HD
ENDROOT
BRANCH   1   7
HETATM    7  C4  UNL     1      46.710  33.279  32.584  1.00  0.00     0.126 C
BRANCH   7   8
HETATM    8  C3  UNL     1      48.107  32.819  32.905  1.00  0.00     0.050 C
BRANCH   8   9
HETATM    9  C2  UNL     1      49.105  33.780  32.284  1.00  0.00     0.274 C
BRANCH   9  10
HETATM   10  N1  UNL     1      49.768  33.132  31.186  1.00  0.00     0.088 N
HETATM   11  C1  UNL     1      51.201  33.029  31.393  1.00  0.00     0.310 C
BRANCH  10  12
HETATM   12  C17 UNL     1      49.439  33.635  29.886  1.00  0.00     0.222 C
HETATM   13  C18 UNL     1      48.269  32.979  29.243  1.00  0.00     0.036 C
HETATM   14  C19 UNL     1      47.255  34.090  29.056  1.00  0.00     0.002 C
HETATM   15  C20 UNL     1      48.129  35.292  28.823  1.00  0.00     0.002 C
HETATM   16  C21 UNL     1      49.239  35.124  29.839  1.00  0.00     0.036 C
ENDBRANCH  10  12
ENDBRANCH   9  10
ENDBRANCH   8   9
ENDBRANCH   7   8
ENDBRANCH   1   7
BRANCH   5  17
HETATM   17  C6  UNL     1      42.257  30.961  31.765  1.00  0.00     0.036 C
HETATM   18  C7  UNL     1      41.752  30.132  30.621  1.00  0.00     0.035 C
HETATM   19  C8  UNL     1      40.604  31.051  30.547  1.00  0.00    -0.009 C
HETATM   20  C9  UNL     1      39.333  30.688  31.116  1.00  0.00     0.009 C
HETATM   21  C16 UNL     1      41.457  32.063  31.237  1.00  0.00     0.035 C
HETATM   22  C10 UNL     1      39.057  30.184  32.434  1.00  0.00    -0.013 C
HETATM   23  C11 UNL     1      39.495  30.958  33.636  1.00  0.00     0.014 C
HETATM   24  C14 UNL     1      39.818  29.059  33.017  1.00  0.00     0.014 C
HETATM   25  C12 UNL     1      40.691  30.090  33.660  1.00  0.00    -0.041 C
HETATM   26  C13 UNL     1      40.979  29.681  35.136  1.00  0.00     0.015 C
HETATM   27  C15 UNL     1      41.946  30.457  33.111  1.00  0.00     0.040 C
ENDBRANCH   5  17
TORSDOF 6
ENDMDL