MODEL 3
REMARK VINA RESULT: -7.889953404      2.798      7.351
REMARK  7 active torsions:
REMARK  status: ('A' for Active; 'I' for Inactive)
REMARK    1  A    between atoms: N1_2  and  C3_4
REMARK    2  A    between atoms: C3_4  and  C4_5
REMARK    3  A    between atoms: C4_5  and  C5_6
REMARK    4  A    between atoms: C4_5  and  N3_14
REMARK    5  A    between atoms: C5_6  and  N2_7
REMARK       I    between atoms: N2_7  and  C6_9
REMARK    6  A    between atoms: C6_9  and  C7_11
REMARK    7  A    between atoms: N3_14  and  C10_16
ROOT
HETATM    1  N3  UNL     1      43.627  31.576  30.871  1.00  0.00    -0.409 N
ATOM      2  H3  UNL     1      43.670  30.944  30.072  1.00  0.00     0.154 HD
ENDROOT
BRANCH   1   3
HETATM    3  C4  UNL     1      44.286  32.832  30.869  1.00  0.00     0.123 C
BRANCH   3   4
HETATM    4  C3  UNL     1      44.885  33.119  32.230  1.00  0.00     0.297 C
BRANCH   4   5
HETATM    5  N1  UNL     1      44.798  34.511  32.597  1.00  0.00     0.082 N
HETATM    6  C1  UNL     1      46.143  34.912  33.017  1.00  0.00     0.309 C
HETATM    7  C2  UNL     1      43.976  34.572  33.810  1.00  0.00     0.309 C
ENDBRANCH   4   5
ENDBRANCH   3   4
BRANCH   3   8
HETATM    8  C5  UNL     1      45.371  33.005  29.849  1.00  0.00     0.149 C
BRANCH   8   9
HETATM    9  N2  UNL     1      46.689  32.835  30.408  1.00  0.00    -0.359 N
HETATM   10  C6  UNL     1      47.781  33.572  29.887  1.00  0.00     0.221 C
HETATM   11  O1  UNL     1      47.572  34.367  28.939  1.00  0.00    -0.273 OA
ATOM     12  H2  UNL     1      46.836  32.184  31.179  1.00  0.00     0.162 HD
BRANCH  10  13
HETATM   13  C7  UNL     1      49.155  33.445  30.415  1.00  0.00     0.078 A
HETATM   14  C8  UNL     1      49.589  34.512  31.423  1.00  0.00     0.015 A
HETATM   15  C9  UNL     1      49.375  33.118  31.850  1.00  0.00     0.015 A
ENDBRANCH  10  13
ENDBRANCH   8   9
ENDBRANCH   3   8
ENDBRANCH   1   3
BRANCH   1  16
HETATM   16  C10 UNL     1      42.906  31.250  32.046  1.00  0.00     0.085 C
HETATM   17  C11 UNL     1      42.837  29.812  32.421  1.00  0.00     0.009 C
HETATM   18  C12 UNL     1      42.418  29.788  33.902  1.00  0.00     0.011 C
HETATM   19  C16 UNL     1      41.836  28.988  31.687  1.00  0.00     0.012 C
HETATM   20  C13 UNL     1      41.031  30.400  34.050  1.00  0.00    -0.013 C
HETATM   21  C14 UNL     1      40.080  29.518  33.291  1.00  0.00     0.010 C
HETATM   22  C21 UNL     1      41.085  31.801  33.532  1.00  0.00     0.012 C
HETATM   23  C15 UNL     1      40.453  29.593  31.830  1.00  0.00    -0.006 C
HETATM   24  C17 UNL     1      40.508  30.995  31.306  1.00  0.00    -0.038 C
HETATM   25  C18 UNL     1      39.128  31.605  31.531  1.00  0.00     0.015 C
HETATM   26  C19 UNL     1      40.727  30.967  29.825  1.00  0.00     0.015 C
HETATM   27  C20 UNL     1      41.498  31.833  32.055  1.00  0.00     0.017 C
ENDBRANCH   1  16
TORSDOF 7
ENDMDL