MODEL 4
REMARK VINA RESULT: -8.858458718      2.197      3.784
REMARK  6 active torsions:
REMARK  status: ('A' for Active; 'I' for Inactive)
REMARK    1  A    between atoms: C2_2  and  C3_3
REMARK    2  A    between atoms: C3_3  and  C4_4
REMARK    3  A    between atoms: C4_4  and  C5_5
REMARK    4  A    between atoms: C5_5  and  C6_6
REMARK    5  A    between atoms: C9_9  and  N1_10
REMARK       I    between atoms: N2_13  and  C12_14
REMARK       I    between atoms: C12_14  and  N3_16
REMARK    6  A    between atoms: N3_16  and  C13_18
ROOT
HETATM    1  N1  UNL     1      46.449  32.523  31.850  1.00  0.00     0.112 N
HETATM    2  C10 UNL     1      47.344  32.990  32.844  1.00  0.00     0.295 C
HETATM    3  C11 UNL     1      48.420  33.781  32.127  1.00  0.00     0.159 C
HETATM    4  N2  UNL     1      48.186  33.445  30.743  1.00  0.00    -0.306 N
HETATM    5  C12 UNL     1      49.145  33.312  29.719  1.00  0.00     0.320 C
HETATM    6  O1  UNL     1      48.746  33.018  28.566  1.00  0.00    -0.247 OA
HETATM    7  N3  UNL     1      50.538  33.491  29.921  1.00  0.00    -0.337 N
ATOM      8  H3  UNL     1      50.867  33.730  30.857  1.00  0.00     0.164 HD
HETATM    9  C18 UNL     1      46.730  33.264  30.635  1.00  0.00     0.402 C
ENDROOT
BRANCH   7  10
HETATM   10  C13 UNL     1      51.512  33.351  28.862  1.00  0.00     0.111 C
HETATM   11  C14 UNL     1      52.540  34.438  28.970  1.00  0.00     0.028 C
HETATM   12  C15 UNL     1      53.775  34.018  29.714  1.00  0.00     0.029 C
HETATM   13  C16 UNL     1      54.306  32.777  28.987  1.00  0.00     0.232 C
HETATM   14  N4  UNL     1      53.336  31.732  29.303  1.00  0.00    -0.073 N
HETATM   15  C17 UNL     1      52.049  31.967  28.739  1.00  0.00     0.257 C
ATOM     16  H42 UNL     1      53.689  30.816  29.029  1.00  0.00     0.277 HD
ATOM     17  H41 UNL     1      53.269  31.593  30.312  1.00  0.00     0.277 HD
ENDBRANCH   7  10
BRANCH   1  18
HETATM   18  C9  UNL     1      45.083  32.410  32.198  1.00  0.00     0.225 C
HETATM   19  C8  UNL     1      44.482  33.583  32.922  1.00  0.00     0.036 C
HETATM   20  C7  UNL     1      42.951  33.533  32.767  1.00  0.00     0.007 C
HETATM   21  C6  UNL     1      42.541  32.096  32.814  1.00  0.00    -0.014 C
HETATM   22  C20 UNL     1      42.926  31.433  31.505  1.00  0.00     0.007 C
HETATM   23  C19 UNL     1      44.181  32.139  31.010  1.00  0.00     0.036 C
BRANCH  21  24
HETATM   24  C5  UNL     1      41.114  31.850  33.180  1.00  0.00     0.004 C
BRANCH  24  25
HETATM   25  C4  UNL     1      40.900  30.713  34.146  1.00  0.00     0.000 C
BRANCH  25  26
HETATM   26  C3  UNL     1      39.460  30.252  33.996  1.00  0.00    -0.000 C
BRANCH  26  27
HETATM   27  C2  UNL     1      39.215  29.493  32.735  1.00  0.00    -0.005 C
HETATM   28  C1  UNL     1      38.055  30.044  31.948  1.00  0.00     0.005 C
ENDBRANCH  26  27
ENDBRANCH  25  26
ENDBRANCH  24  25
ENDBRANCH  21  24
ENDBRANCH   1  18
TORSDOF 6
ENDMDL