MODEL 2
REMARK VINA RESULT: -8.485216771      0.199      1.487
REMARK  8 active torsions:
REMARK  status: ('A' for Active; 'I' for Inactive)
REMARK    1  A    between atoms: C2_2  and  C3_3
REMARK    2  A    between atoms: C3_3  and  N1_4
REMARK    3  A    between atoms: N1_4  and  C4_6
REMARK    4  A    between atoms: C4_6  and  N2_8
REMARK    5  A    between atoms: C7_11  and  N3_12
REMARK    6  A    between atoms: N3_12  and  C8_15
REMARK    7  A    between atoms: C8_15  and  C9_16
REMARK    8  A    between atoms: C9_16  and  C10_17
ROOT
HETATM    1  N3  UNL     1      45.474  34.344  32.880  1.00  0.00    -0.069 N
ATOM      2  H31 UNL     1      45.480  35.296  32.515  1.00  0.00     0.277 HD
ATOM      3  H32 UNL     1      45.877  34.523  33.800  1.00  0.00     0.277 HD
ENDROOT
BRANCH   1   4
HETATM    4  C7  UNL     1      46.304  33.490  32.109  1.00  0.00     0.205 C
HETATM    5  C6  UNL     1      47.207  32.598  32.925  1.00  0.00     0.054 C
HETATM    6  C5  UNL     1      48.496  33.436  33.032  1.00  0.00     0.127 C
HETATM    7  N2  UNL     1      48.593  34.111  31.789  1.00  0.00    -0.356 N
HETATM    8  C20 UNL     1      47.216  34.250  31.228  1.00  0.00     0.158 C
BRANCH   7   9
HETATM    9  C4  UNL     1      49.655  34.662  31.069  1.00  0.00     0.170 C
HETATM   10  S1  UNL     1      51.090  33.796  30.963  1.00  0.00    -0.041 SA
BRANCH   9  11
HETATM   11  N1  UNL     1      49.666  35.879  30.411  1.00  0.00    -0.364 N
ATOM     12  H1  UNL     1      49.395  36.691  30.967  1.00  0.00     0.162 HD
BRANCH  11  13
HETATM   13  C3  UNL     1      50.018  36.144  29.016  1.00  0.00     0.148 C
BRANCH  13  14
HETATM   14  C2  UNL     1      48.812  36.708  28.364  1.00  0.00    -0.018 C
HETATM   15  C1  UNL     1      48.874  37.781  27.598  1.00  0.00     0.008 C
ENDBRANCH  13  14
ENDBRANCH  11  13
ENDBRANCH   9  11
ENDBRANCH   7   9
ENDBRANCH   1   4
BRANCH   1  16
HETATM   16  C8  UNL     1      44.150  33.838  32.985  1.00  0.00     0.233 C
BRANCH  16  17
HETATM   17  C9  UNL     1      43.648  33.184  31.751  1.00  0.00     0.037 C
BRANCH  17  18
HETATM   18  C10 UNL     1      42.788  31.974  32.113  1.00  0.00    -0.038 C
HETATM   19  C11 UNL     1      43.581  30.733  32.330  1.00  0.00     0.014 C
HETATM   20  C12 UNL     1      42.597  29.623  32.704  1.00  0.00    -0.013 C
HETATM   21  C13 UNL     1      41.788  29.342  31.468  1.00  0.00     0.009 C
HETATM   22  C17 UNL     1      41.760  30.022  33.890  1.00  0.00     0.009 C
HETATM   23  C14 UNL     1      40.992  30.570  31.142  1.00  0.00    -0.013 C
HETATM   24  C15 UNL     1      40.088  30.885  32.324  1.00  0.00     0.009 C
HETATM   25  C19 UNL     1      41.915  31.737  30.869  1.00  0.00     0.014 C
HETATM   26  C16 UNL     1      40.924  31.221  33.511  1.00  0.00    -0.013 C
HETATM   27  C18 UNL     1      41.905  32.351  33.245  1.00  0.00     0.014 C
ENDBRANCH  17  18
ENDBRANCH  16  17
ENDBRANCH   1  16
TORSDOF 8
ENDMDL