MODEL 1
REMARK VINA RESULT: -8.337487057      0.000      0.000
REMARK  8 active torsions:
REMARK  status: ('A' for Active; 'I' for Inactive)
REMARK    1  A    between atoms: C2_2  and  C3_3
REMARK    2  A    between atoms: C2_2  and  O4_27
REMARK    3  A    between atoms: C3_3  and  C4_4
REMARK    4  A    between atoms: C4_4  and  C5_5
REMARK    5  A    between atoms: C21_22  and  O2_23
REMARK    6  A    between atoms: O4_27  and  C22_28
REMARK       I    between atoms: C22_28  and  N1_30
REMARK    7  A    between atoms: N1_30  and  C23_32
REMARK    8  A    between atoms: C23_32  and  C24_33
ROOT
HETATM    1  C5  UNL     1      37.800  25.146  37.754  1.00  0.00     0.086 C
HETATM    2  C6  UNL     1      37.242  23.898  37.049  1.00  0.00     0.030 C
HETATM    3  C7  UNL     1      36.573  23.097  38.112  1.00  0.00     0.009 C
HETATM    4  C8  UNL     1      37.459  22.362  39.036  1.00  0.00     0.018 C
HETATM    5  C9  UNL     1      38.894  22.725  39.040  1.00  0.00     0.084 C
HETATM    6  C10 UNL     1      39.793  21.808  38.238  1.00  0.00     0.007 C
HETATM    7  C11 UNL     1      40.546  20.850  39.161  1.00  0.00     0.007 C
HETATM    8  C12 UNL     1      40.739  19.501  38.613  1.00  0.00     0.007 C
HETATM    9  C13 UNL     1      40.978  19.380  37.167  1.00  0.00     0.012 C
HETATM   10  C14 UNL     1      40.238  20.374  36.326  1.00  0.00     0.066 C
HETATM   11  C15 UNL     1      41.486  21.115  36.123  1.00  0.00     0.140 C
HETATM   12  O1  UNL     1      41.876  22.208  35.751  1.00  0.00    -0.297 OA
HETATM   13  C16 UNL     1      42.237  19.914  36.589  1.00  0.00     0.018 C
HETATM   14  C17 UNL     1      43.376  20.164  37.508  1.00  0.00     0.023 C
HETATM   15  C18 UNL     1      42.695  19.134  35.348  1.00  0.00     0.023 C
HETATM   16  C19 UNL     1      39.166  21.034  37.170  1.00  0.00     0.005 C
HETATM   17  C20 UNL     1      38.226  21.735  36.262  1.00  0.00     0.038 C
HETATM   18  C21 UNL     1      38.303  23.230  36.266  1.00  0.00     0.123 C
HETATM   19  S1  UNL     1      39.212  24.462  38.664  1.00  0.00     0.024 S
HETATM   20  O3  UNL     1      39.558  25.283  39.868  1.00  0.00    -0.257 OA
ENDROOT
BRANCH   1  21
HETATM   21  C4  UNL     1      38.230  26.181  36.779  1.00  0.00     0.024 C
BRANCH  21  22
HETATM   22  C3  UNL     1      39.682  26.499  36.766  1.00  0.00     0.065 C
BRANCH  22  23
HETATM   23  C2  UNL     1      40.030  27.943  37.011  1.00  0.00     0.049 C
HETATM   24  C1  UNL     1      39.778  28.802  36.058  1.00  0.00     0.046 C
BRANCH  23  25
HETATM   25  O4  UNL     1      40.585  28.179  38.239  1.00  0.00    -0.267 OA
BRANCH  25  26
HETATM   26  C22 UNL     1      40.007  28.483  39.450  1.00  0.00     0.369 C
HETATM   27  O5  UNL     1      38.754  28.500  39.452  1.00  0.00    -0.238 OA
HETATM   28  N1  UNL     1      40.796  28.753  40.589  1.00  0.00    -0.316 N
ATOM     29  H1  UNL     1      41.803  28.687  40.446  1.00  0.00     0.170 HD
BRANCH  28  30
HETATM   30  C23 UNL     1      40.399  29.098  41.885  1.00  0.00     0.066 C
BRANCH  30  31
HETATM   31  C24 UNL     1      40.375  28.107  42.972  1.00  0.00     0.040 C
HETATM   32  C25 UNL     1      39.301  27.087  43.009  1.00  0.00     0.010 C
ENDBRANCH  30  31
ENDBRANCH  28  30
ENDBRANCH  25  26
ENDBRANCH  23  25
ENDBRANCH  22  23
ENDBRANCH  21  22
ENDBRANCH   1  21
BRANCH  18  33
HETATM   33  O2  UNL     1      38.182  23.694  34.930  1.00  0.00    -0.395 OA
ATOM     34  H2  UNL     1      38.341  22.948  34.364  1.00  0.00     0.210 HD
ENDBRANCH  18  33
TORSDOF 8
ENDMDL