MODEL 4
REMARK VINA RESULT: -8.024362172      0.893      1.255
REMARK  7 active torsions:
REMARK  status: ('A' for Active; 'I' for Inactive)
REMARK    1  A    between atoms: C3_3  and  C4_4
REMARK    2  A    between atoms: C6_6  and  C7_7
REMARK    3  A    between atoms: C8_8  and  C9_9
REMARK    4  A    between atoms: N1_16  and  C15_17
REMARK    5  A    between atoms: C15_17  and  C16_18
REMARK    6  A    between atoms: C16_18  and  N2_19
REMARK    7  A    between atoms: N2_19  and  C17_20
REMARK       I    between atoms: N2_19  and  C18_22
ROOT
HETATM    1  C9  UNL     1      48.788  34.580  29.887  1.00  0.00     0.153 C
HETATM    2  C10 UNL     1      47.615  34.647  28.999  1.00  0.00     0.119 C
HETATM    3  C11 UNL     1      46.582  33.602  29.174  1.00  0.00     0.159 C
HETATM    4  O1  UNL     1      45.376  33.999  29.149  1.00  0.00    -0.293 OA
HETATM    5  C12 UNL     1      46.822  32.152  29.370  1.00  0.00     0.005 C
HETATM    6  C13 UNL     1      47.991  31.571  29.458  1.00  0.00    -0.018 C
HETATM    7  C14 UNL     1      48.203  30.135  29.642  1.00  0.00     0.166 C
HETATM    8  N1  UNL     1      46.996  29.336  29.363  1.00  0.00    -0.358 N
HETATM    9  C19 UNL     1      45.758  29.955  29.675  1.00  0.00     0.016 C
HETATM   10  C20 UNL     1      44.784  29.204  30.140  1.00  0.00     0.003 C
HETATM   11  C21 UNL     1      43.456  29.863  30.482  1.00  0.00     0.006 C
HETATM   12  C22 UNL     1      42.632  28.947  31.333  1.00  0.00     0.014 C
HETATM   13  C23 UNL     1      43.927  31.024  31.376  1.00  0.00     0.009 C
HETATM   14  C24 UNL     1      44.670  32.041  30.519  1.00  0.00     0.016 C
HETATM   15  C25 UNL     1      45.553  31.412  29.471  1.00  0.00     0.072 C
HETATM   16  C26 UNL     1      49.315  32.315  29.407  1.00  0.00     0.080 C
HETATM   17  C27 UNL     1      49.721  32.438  27.982  1.00  0.00     0.051 C
HETATM   18  C28 UNL     1      50.333  31.369  30.058  1.00  0.00     0.051 C
HETATM   19  O3  UNL     1      49.345  33.420  30.181  1.00  0.00    -0.367 OA
ENDROOT
BRANCH   8  20
HETATM   20  C15 UNL     1      47.056  28.035  28.827  1.00  0.00     0.084 C
BRANCH  20  21
HETATM   21  C16 UNL     1      48.065  27.100  29.479  1.00  0.00     0.178 C
BRANCH  21  22
HETATM   22  N2  UNL     1      48.542  26.055  28.648  1.00  0.00    -0.295 N
HETATM   23  C18 UNL     1      48.656  24.734  29.148  1.00  0.00     0.190 C
HETATM   24  N3  UNL     1      49.813  24.177  29.151  1.00  0.00    -0.373 N
HETATM   25  N4  UNL     1      47.553  24.006  29.646  1.00  0.00    -0.063 NA
ATOM     26  H32 UNL     1      50.610  24.703  28.793  1.00  0.00     0.158 HD
ATOM     27  H31 UNL     1      49.894  23.227  29.511  1.00  0.00     0.158 HD
BRANCH  22  28
HETATM   28  C17 UNL     1      48.915  26.305  27.313  1.00  0.00     0.357 C
HETATM   29  O2  UNL     1      48.584  25.486  26.421  1.00  0.00    -0.283 OA
ENDBRANCH  22  28
ENDBRANCH  21  22
ENDBRANCH  20  21
ENDBRANCH   8  20
BRANCH   1  30
HETATM   30  C8  UNL     1      49.792  35.557  29.354  1.00  0.00     0.005 C
HETATM   31  C7  UNL     1      49.597  36.210  28.221  1.00  0.00    -0.001 C
BRANCH  31  32
HETATM   32  C6  UNL     1      50.551  37.159  27.684  1.00  0.00     0.006 C
HETATM   33  C4  UNL     1      50.302  38.091  26.803  1.00  0.00    -0.062 C
HETATM   34  C5  UNL     1      48.974  38.327  26.202  1.00  0.00     0.048 C
BRANCH  33  35
HETATM   35  C3  UNL     1      51.412  38.957  26.383  1.00  0.00     0.002 C
HETATM   36  C2  UNL     1      52.527  38.987  27.053  1.00  0.00    -0.030 C
HETATM   37  C1  UNL     1      53.658  39.872  26.621  1.00  0.00     0.036 C
ENDBRANCH  33  35
ENDBRANCH  31  32
ENDBRANCH   1  30
TORSDOF 7
ENDMDL