MODEL 2
REMARK VINA RESULT: -9.295145454      1.020      1.999
REMARK  8 active torsions:
REMARK  status: ('A' for Active; 'I' for Inactive)
REMARK    1  A    between atoms: C10_10  and  O1_11
REMARK    2  A    between atoms: C11_13  and  C12_14
REMARK    3  A    between atoms: C12_14  and  C13_15
REMARK    4  A    between atoms: C13_15  and  C14_16
REMARK    5  A    between atoms: C14_16  and  C15_17
REMARK    6  A    between atoms: C15_17  and  C16_18
REMARK    7  A    between atoms: C18_20  and  C19_21
REMARK    8  A    between atoms: C19_21  and  O2_22
ROOT
HETATM    1  C1  UNL     1      43.021  28.401  30.902  1.00  0.00     0.013 C
HETATM    2  C2  UNL     1      42.423  29.443  30.975  1.00  0.00    -0.106 C
HETATM    3  C3  UNL     1      41.699  30.695  31.039  1.00  0.00     0.033 C
HETATM    4  C4  UNL     1      41.737  31.484  29.778  1.00  0.00     0.030 C
HETATM    5  C5  UNL     1      40.251  30.484  31.522  1.00  0.00     0.013 C
HETATM    6  C6  UNL     1      39.818  31.909  31.698  1.00  0.00     0.007 C
HETATM    7  C7  UNL     1      41.077  32.603  32.241  1.00  0.00     0.014 C
HETATM    8  C8  UNL     1      42.131  31.519  32.260  1.00  0.00     0.001 C
HETATM    9  C9  UNL     1      43.518  31.984  32.209  1.00  0.00     0.019 C
HETATM   10  C10 UNL     1      41.785  30.575  33.372  1.00  0.00     0.132 C
HETATM   11  C11 UNL     1      40.531  29.851  32.865  1.00  0.00     0.021 C
ENDROOT
BRANCH  11  12
HETATM   12  C12 UNL     1      39.395  30.021  33.831  1.00  0.00     0.007 C
BRANCH  12  13
HETATM   13  C13 UNL     1      39.941  30.689  35.073  1.00  0.00     0.001 C
BRANCH  13  14
HETATM   14  C14 UNL     1      40.290  29.675  36.142  1.00  0.00     0.001 C
BRANCH  14  15
HETATM   15  C15 UNL     1      39.317  28.535  36.197  1.00  0.00     0.012 C
BRANCH  15  16
HETATM   16  C16 UNL     1      39.905  27.303  36.851  1.00  0.00     0.059 C
HETATM   17  C17 UNL     1      39.058  26.132  36.541  1.00  0.00     0.024 C
HETATM   18  C18 UNL     1      38.650  25.303  37.716  1.00  0.00    -0.015 C
HETATM   19  C21 UNL     1      39.778  24.436  38.197  1.00  0.00     0.014 C
HETATM   20  C28 UNL     1      38.176  26.186  38.874  1.00  0.00     0.060 C
HETATM   21  C22 UNL     1      39.953  24.541  39.717  1.00  0.00     0.036 C
HETATM   22  C23 UNL     1      40.391  25.940  40.013  1.00  0.00     0.167 A
HETATM   23  O3  UNL     1      40.432  26.264  41.339  1.00  0.00    -0.347 OA
HETATM   24  C27 UNL     1      39.402  26.894  39.391  1.00  0.00     0.151 A
HETATM   25  C24 UNL     1      39.703  27.408  41.546  1.00  0.00     0.159 A
HETATM   26  C25 UNL     1      38.640  27.100  42.605  1.00  0.00     0.078 C
HETATM   27  C26 UNL     1      40.556  28.585  41.991  1.00  0.00     0.078 C
HETATM   28  O4  UNL     1      39.062  27.759  40.395  1.00  0.00    -0.335 OA
HETATM   29  C29 UNL     1      40.066  27.596  38.289  1.00  0.00     0.168 C
HETATM   30  O5  UNL     1      40.830  28.516  38.579  1.00  0.00    -0.294 OA
BRANCH  18  31
HETATM   31  C19 UNL     1      37.451  24.460  37.314  1.00  0.00     0.176 C
BRANCH  31  32
HETATM   32  O2  UNL     1      37.769  23.806  36.133  1.00  0.00    -0.395 OA
HETATM   33  C20 UNL     1      37.110  22.599  36.041  1.00  0.00     0.201 C
ENDBRANCH  31  32
ENDBRANCH  18  31
ENDBRANCH  15  16
ENDBRANCH  14  15
ENDBRANCH  13  14
ENDBRANCH  12  13
ENDBRANCH  11  12
BRANCH  10  34
HETATM   34  O1  UNL     1      42.793  29.704  33.706  1.00  0.00    -0.394 OA
ATOM     35  H1  UNL     1      42.720  29.340  34.580  1.00  0.00     0.210 HD
ENDBRANCH  10  34
TORSDOF 8
ENDMDL