MODEL 1
REMARK VINA RESULT: -6.608070881      0.000      0.000
REMARK  9 active torsions:
REMARK  status: ('A' for Active; 'I' for Inactive)
REMARK    1  A    between atoms: C2_2  and  C3_3
REMARK    2  A    between atoms: C3_3  and  C4_4
REMARK    3  A    between atoms: C4_4  and  C5_6
REMARK    4  A    between atoms: C11_12  and  N1_13
REMARK       I    between atoms: N1_13  and  C12_15
REMARK    5  A    between atoms: C14_18  and  O3_19
REMARK    6  A    between atoms: C15_21  and  C16_22
REMARK    7  A    between atoms: C16_22  and  S1_23
REMARK    8  A    between atoms: S1_23  and  C17_24
REMARK    9  A    between atoms: C17_24  and  C18_25
ROOT
HETATM    1  C5  UNL     1      48.750  23.067  29.299  1.00  0.00    -0.015 C
HETATM    2  C6  UNL     1      48.311  24.267  29.601  1.00  0.00    -0.004 C
HETATM    3  C7  UNL     1      48.964  25.556  30.005  1.00  0.00     0.015 C
HETATM    4  C8  UNL     1      48.651  25.678  31.469  1.00  0.00     0.023 C
HETATM    5  C9  UNL     1      50.414  25.468  29.688  1.00  0.00     0.006 C
HETATM    6  C10 UNL     1      51.185  26.710  29.931  1.00  0.00     0.034 C
HETATM    7  C11 UNL     1      50.431  28.022  29.771  1.00  0.00     0.122 C
HETATM    8  C14 UNL     1      49.283  27.837  28.893  1.00  0.00     0.118 C
HETATM    9  C15 UNL     1      48.223  28.863  28.788  1.00  0.00     0.060 C
HETATM   10  C21 UNL     1      47.117  28.430  29.754  1.00  0.00     0.241 C
HETATM   11  N2  UNL     1      47.111  27.012  29.496  1.00  0.00    -0.062 N
ATOM     12  H21 UNL     1      46.406  26.745  28.809  1.00  0.00     0.278 HD
ATOM     13  H22 UNL     1      46.752  26.475  30.285  1.00  0.00     0.278 HD
HETATM   14  C22 UNL     1      48.432  26.604  29.111  1.00  0.00     0.169 C
HETATM   15  C23 UNL     1      48.304  25.935  27.739  1.00  0.00     0.044 C
HETATM   16  C24 UNL     1      49.506  25.176  27.330  1.00  0.00     0.007 C
HETATM   17  C25 UNL     1      50.580  24.911  28.292  1.00  0.00    -0.009 C
HETATM   18  C26 UNL     1      50.995  23.442  28.319  1.00  0.00     0.010 C
HETATM   19  C27 UNL     1      50.150  22.640  29.281  1.00  0.00     0.042 C
ENDROOT
BRANCH   9  20
HETATM   20  C16 UNL     1      48.539  30.284  28.783  1.00  0.00     0.083 C
BRANCH  20  21
HETATM   21  S1  UNL     1      47.128  31.362  28.430  1.00  0.00    -0.168 SA
BRANCH  21  22
HETATM   22  C17 UNL     1      47.003  32.781  29.493  1.00  0.00     0.077 C
BRANCH  22  23
HETATM   23  C18 UNL     1      45.579  33.161  29.825  1.00  0.00    -0.013 C
HETATM   24  C19 UNL     1      44.737  31.990  30.246  1.00  0.00     0.010 C
HETATM   25  C20 UNL     1      45.650  34.134  30.992  1.00  0.00     0.010 C
ENDBRANCH  22  23
ENDBRANCH  21  22
ENDBRANCH  20  21
ENDBRANCH   9  20
BRANCH   8  26
HETATM   26  O3  UNL     1      49.856  27.798  27.572  1.00  0.00    -0.385 OA
ATOM     27  H3  UNL     1      49.157  27.453  27.027  1.00  0.00     0.210 HD
ENDBRANCH   8  26
BRANCH   7  28
HETATM   28  N1  UNL     1      50.293  28.681  31.022  1.00  0.00    -0.354 N
HETATM   29  C12 UNL     1      51.015  29.906  31.235  1.00  0.00     0.214 C
HETATM   30  C13 UNL     1      50.953  30.684  32.496  1.00  0.00     0.117 C
HETATM   31  O2  UNL     1      51.753  30.378  30.326  1.00  0.00    -0.274 OA
ATOM     32  H1  UNL     1      49.696  28.294  31.753  1.00  0.00     0.163 HD
ENDBRANCH   7  28
BRANCH   1  33
HETATM   33  C4  UNL     1      47.677  22.134  28.963  1.00  0.00     0.155 C
HETATM   34  O1  UNL     1      47.126  21.424  29.879  1.00  0.00    -0.293 OA
BRANCH  33  35
HETATM   35  C3  UNL     1      47.127  21.905  27.621  1.00  0.00     0.083 C
BRANCH  35  36
HETATM   36  C2  UNL     1      47.959  20.790  26.985  1.00  0.00     0.003 C
HETATM   37  C1  UNL     1      48.942  21.329  25.989  1.00  0.00     0.005 C
ENDBRANCH  35  36
ENDBRANCH  33  35
ENDBRANCH   1  33
TORSDOF 9
ENDMDL