MODEL 4
REMARK VINA RESULT: -8.507468958      3.442      7.256
REMARK  8 active torsions:
REMARK  status: ('A' for Active; 'I' for Inactive)
REMARK    1  A    between atoms: C2_2  and  N1_3
REMARK    2  A    between atoms: N1_3  and  C4_5
REMARK    3  A    between atoms: C4_5  and  C5_6
REMARK    4  A    between atoms: C5_6  and  C6_7
REMARK    5  A    between atoms: C15_20  and  C16_21
REMARK    6  A    between atoms: C16_21  and  O3_23
REMARK    7  A    between atoms: C16_21  and  C18_25
REMARK    8  A    between atoms: C23_30  and  O4_31
ROOT
HETATM    1  C6  UNL     1      50.246  24.583  28.588  1.00  0.00    -0.025 A
HETATM    2  C7  UNL     1      51.290  23.528  28.097  1.00  0.00     0.016 C
HETATM    3  C8  UNL     1      50.828  25.874  28.754  1.00  0.00     0.092 A
HETATM    4  C9  UNL     1      52.115  26.300  29.242  1.00  0.00     0.225 C
HETATM    5  O1  UNL     1      53.136  26.295  28.529  1.00  0.00    -0.273 OA
HETATM    6  N2  UNL     1      52.155  26.731  30.590  1.00  0.00    -0.328 N
ATOM      7  H2  UNL     1      53.013  27.167  30.927  1.00  0.00     0.165 HD
HETATM    8  C10 UNL     1      51.043  26.590  31.527  1.00  0.00     0.143 C
HETATM    9  C11 UNL     1      51.547  25.629  32.586  1.00  0.00     0.072 C
HETATM   10  O2  UNL     1      50.757  27.815  32.193  1.00  0.00    -0.319 OA
HETATM   11  C12 UNL     1      50.153  28.816  31.379  1.00  0.00     0.078 A
HETATM   12  C13 UNL     1      50.516  30.139  31.450  1.00  0.00     0.038 A
HETATM   13  C14 UNL     1      49.882  31.063  30.616  1.00  0.00     0.013 A
HETATM   14  C15 UNL     1      48.906  30.661  29.731  1.00  0.00    -0.019 A
HETATM   15  C25 UNL     1      48.585  29.338  29.702  1.00  0.00     0.020 A
HETATM   16  C26 UNL     1      49.191  28.370  30.519  1.00  0.00    -0.024 A
HETATM   17  C27 UNL     1      48.791  26.966  30.490  1.00  0.00     0.051 C
HETATM   18  C28 UNL     1      49.816  26.020  30.853  1.00  0.00     0.051 C
HETATM   19  C29 UNL     1      50.312  24.990  29.924  1.00  0.00     0.017 A
ENDROOT
BRANCH  14  20
HETATM   20  C16 UNL     1      48.262  31.684  28.864  1.00  0.00     0.111 C
HETATM   21  C17 UNL     1      49.326  32.559  28.242  1.00  0.00     0.057 C
BRANCH  20  22
HETATM   22  O3  UNL     1      47.681  30.978  27.802  1.00  0.00    -0.380 OA
ATOM     23  H3  UNL     1      46.815  31.352  27.684  1.00  0.00     0.211 HD
ENDBRANCH  20  22
BRANCH  20  24
HETATM   24  C18 UNL     1      47.203  32.446  29.536  1.00  0.00     0.014 A
HETATM   25  C19 UNL     1      47.442  33.729  30.003  1.00  0.00     0.013 A
HETATM   26  C20 UNL     1      46.499  34.505  30.642  1.00  0.00     0.001 A
HETATM   27  C21 UNL     1      45.239  33.984  30.833  1.00  0.00     0.003 A
HETATM   28  C22 UNL     1      44.962  32.719  30.386  1.00  0.00     0.037 A
HETATM   29  C23 UNL     1      45.918  31.965  29.752  1.00  0.00     0.077 A
BRANCH  29  30
HETATM   30  O4  UNL     1      45.617  30.710  29.316  1.00  0.00    -0.355 OA
HETATM   31  C24 UNL     1      44.847  29.745  29.999  1.00  0.00     0.210 C
ENDBRANCH  29  30
ENDBRANCH  20  24
ENDBRANCH  14  20
BRANCH   1  32
HETATM   32  C5  UNL     1      48.992  24.413  27.779  1.00  0.00     0.040 C
BRANCH  32  33
HETATM   33  C4  UNL     1      47.873  23.793  28.638  1.00  0.00     0.272 C
BRANCH  33  34
HETATM   34  N1  UNL     1      48.000  22.362  28.544  1.00  0.00     0.083 N
HETATM   35  C3  UNL     1      47.160  21.805  27.516  1.00  0.00     0.309 C
BRANCH  34  36
HETATM   36  C2  UNL     1      47.793  21.731  29.823  1.00  0.00     0.267 C
HETATM   37  C1  UNL     1      49.177  21.411  30.380  1.00  0.00     0.037 C
ENDBRANCH  34  36
ENDBRANCH  33  34
ENDBRANCH  32  33
ENDBRANCH   1  32
TORSDOF 8
ENDMDL