MODEL 3
REMARK VINA RESULT: -7.696183515      0.957      2.212
REMARK  11 active torsions:
REMARK  status: ('A' for Active; 'I' for Inactive)
REMARK    1  A    between atoms: C2_2  and  N1_3
REMARK    2  A    between atoms: C3_5  and  N2_6
REMARK    3  A    between atoms: C3_5  and  O4_32
REMARK    4  A    between atoms: N2_6  and  C4_8
REMARK    5  A    between atoms: C4_8  and  C5_9
REMARK    6  A    between atoms: C4_8  and  C12_16
REMARK    7  A    between atoms: C5_9  and  C6_10
REMARK       I    between atoms: C12_16  and  N3_18
REMARK    8  A    between atoms: C16_22  and  C18_24
REMARK    9  A    between atoms: C18_24  and  O2_25
REMARK   10  A    between atoms: O2_25  and  C19_26
REMARK       I    between atoms: C19_26  and  N4_28
REMARK   11  A    between atoms: O4_32  and  C22_33
ROOT
HETATM    1  C4  UNL     1      39.045  26.643  36.900  1.00  0.00     0.177 C
ENDROOT
BRANCH   1   2
HETATM    2  N2  UNL     1      38.504  25.434  36.338  1.00  0.00    -0.343 N
ATOM      3  H2  UNL     1      37.785  25.587  35.631  1.00  0.00     0.164 HD
BRANCH   2   4
HETATM    4  C3  UNL     1      38.786  24.099  36.584  1.00  0.00     0.216 C
HETATM    5  N1  UNL     1      39.647  23.410  35.896  1.00  0.00    -0.357 N
ATOM      6  H1  UNL     1      39.822  22.429  36.113  1.00  0.00     0.163 HD
BRANCH   5   7
HETATM    7  C2  UNL     1      40.360  24.072  34.802  1.00  0.00     0.118 C
HETATM    8  C1  UNL     1      39.764  23.677  33.466  1.00  0.00     0.026 C
ENDBRANCH   5   7
BRANCH   4   9
HETATM    9  O4  UNL     1      38.177  23.389  37.584  1.00  0.00    -0.312 OA
BRANCH   9  10
HETATM   10  C22 UNL     1      37.063  22.589  37.500  1.00  0.00     0.060 C
HETATM   11  C23 UNL     1      35.911  23.283  38.229  1.00  0.00     0.046 C
HETATM   12  C24 UNL     1      37.333  21.304  38.261  1.00  0.00     0.046 C
HETATM   13  C25 UNL     1      36.572  22.232  36.142  1.00  0.00     0.046 C
ENDBRANCH   9  10
ENDBRANCH   4   9
ENDBRANCH   2   4
ENDBRANCH   1   2
BRANCH   1  14
HETATM   14  C5  UNL     1      39.986  27.314  35.959  1.00  0.00     0.039 C
BRANCH  14  15
HETATM   15  C6  UNL     1      39.768  28.740  35.630  1.00  0.00    -0.012 C
HETATM   16  C7  UNL     1      40.788  29.669  36.242  1.00  0.00     0.005 C
HETATM   17  C8  UNL     1      40.856  30.910  35.381  1.00  0.00     0.000 C
HETATM   18  C9  UNL     1      39.541  31.197  34.672  1.00  0.00     0.000 C
HETATM   19  C10 UNL     1      39.224  30.093  33.671  1.00  0.00     0.000 C
HETATM   20  C11 UNL     1      39.977  28.875  34.106  1.00  0.00     0.005 C
ENDBRANCH  14  15
ENDBRANCH   1  14
BRANCH   1  21
HETATM   21  C12 UNL     1      39.766  26.303  38.152  1.00  0.00     0.242 C
HETATM   22  O1  UNL     1      40.333  25.168  38.251  1.00  0.00    -0.271 OA
HETATM   23  N3  UNL     1      39.879  27.168  39.289  1.00  0.00    -0.350 N
HETATM   24  C13 UNL     1      39.212  28.460  39.305  1.00  0.00     0.126 C
HETATM   25  C21 UNL     1      40.664  26.805  40.438  1.00  0.00     0.137 C
HETATM   26  C14 UNL     1      38.453  28.698  40.595  1.00  0.00     0.021 C
HETATM   27  C15 UNL     1      38.510  27.479  41.490  1.00  0.00     0.014 C
HETATM   28  C16 UNL     1      39.959  27.091  41.773  1.00  0.00    -0.006 C
HETATM   29  C17 UNL     1      40.639  28.188  42.499  1.00  0.00     0.019 C
BRANCH  28  30
HETATM   30  C18 UNL     1      39.914  25.802  42.515  1.00  0.00     0.191 C
BRANCH  30  31
HETATM   31  O2  UNL     1      40.561  24.718  42.037  1.00  0.00    -0.303 OA
BRANCH  31  32
HETATM   32  C19 UNL     1      40.251  23.581  41.412  1.00  0.00     0.360 C
HETATM   33  O3  UNL     1      39.177  22.973  41.708  1.00  0.00    -0.239 OA
HETATM   34  N4  UNL     1      41.099  22.993  40.389  1.00  0.00    -0.341 N
HETATM   35  C20 UNL     1      40.730  21.772  39.742  1.00  0.00     0.151 C
ATOM     36  H4  UNL     1      41.969  23.457  40.129  1.00  0.00     0.164 HD
ENDBRANCH  31  32
ENDBRANCH  30  31
ENDBRANCH  28  30
ENDBRANCH   1  21
TORSDOF 11
ENDMDL