MODEL 2
REMARK VINA RESULT: -6.664004311      4.578      6.129
REMARK  11 active torsions:
REMARK  status: ('A' for Active; 'I' for Inactive)
REMARK    1  A    between atoms: C3_3  and  C4_4
REMARK    2  A    between atoms: C4_4  and  O1_5
REMARK    3  A    between atoms: N1_8  and  S1_9
REMARK    4  A    between atoms: S1_9  and  C6_12
REMARK    5  A    between atoms: C16_22  and  C17_23
REMARK    6  A    between atoms: C17_23  and  C18_24
REMARK    7  A    between atoms: C17_23  and  C19_27
REMARK    8  A    between atoms: C18_24  and  O4_25
REMARK    9  A    between atoms: C19_27  and  C20_28
REMARK   10  A    between atoms: C20_28  and  C21_29
REMARK   11  A    between atoms: C21_29  and  C22_30
ROOT
HETATM    1  C1  UNL     1      48.241  23.821  35.094  1.00  0.00     0.112 C
HETATM    2  C2  UNL     1      48.717  24.364  33.827  1.00  0.00    -0.105 C
HETATM    3  C3  UNL     1      49.096  24.812  32.759  1.00  0.00    -0.033 C
ENDROOT
BRANCH   3   4
HETATM    4  C4  UNL     1      49.557  25.333  31.443  1.00  0.00     0.267 C
HETATM    5  C5  UNL     1      49.717  24.173  30.539  1.00  0.00     0.158 C
HETATM    6  N1  UNL     1      48.469  23.669  30.126  1.00  0.00    -0.283 N
HETATM    7  C10 UNL     1      47.631  24.638  29.466  1.00  0.00     0.144 C
HETATM    8  C11 UNL     1      48.441  25.751  28.837  1.00  0.00     0.064 C
HETATM    9  C12 UNL     1      48.748  26.840  29.841  1.00  0.00     0.089 C
HETATM   10  C13 UNL     1      50.057  27.403  29.477  1.00  0.00     0.018 C
HETATM   11  C25 UNL     1      47.679  27.864  29.764  1.00  0.00     0.070 C
HETATM   12  O5  UNL     1      48.843  26.392  31.125  1.00  0.00    -0.325 OA
HETATM   13  C14 UNL     1      50.327  28.658  29.270  1.00  0.00    -0.056 C
HETATM   14  C15 UNL     1      51.722  29.013  28.913  1.00  0.00     0.048 C
HETATM   15  C16 UNL     1      49.287  29.655  29.302  1.00  0.00    -0.050 C
HETATM   16  C24 UNL     1      48.052  29.265  29.535  1.00  0.00    -0.015 C
BRANCH   4  17
HETATM   17  O1  UNL     1      50.879  25.782  31.731  1.00  0.00    -0.351 OA
ATOM     18  H1  UNL     1      50.956  26.560  31.193  1.00  0.00     0.214 HD
ENDBRANCH   4  17
BRANCH   6  19
HETATM   19  S1  UNL     1      48.387  22.129  29.464  1.00  0.00     0.239 S
HETATM   20  O2  UNL     1      49.461  22.033  28.381  1.00  0.00    -0.205 OA
HETATM   21  O3  UNL     1      47.078  21.841  28.773  1.00  0.00    -0.205 OA
BRANCH  19  22
HETATM   22  C6  UNL     1      48.691  20.780  30.559  1.00  0.00     0.072 C
HETATM   23  C7  UNL     1      47.498  20.653  31.490  1.00  0.00     0.033 C
HETATM   24  C8  UNL     1      48.791  19.468  29.749  1.00  0.00     0.033 C
HETATM   25  C9  UNL     1      49.940  20.875  31.352  1.00  0.00     0.033 C
ENDBRANCH  19  22
ENDBRANCH   6  19
BRANCH  15  26
HETATM   26  C17 UNL     1      49.544  31.124  29.032  1.00  0.00     0.042 C
BRANCH  26  27
HETATM   27  C18 UNL     1      48.417  31.719  28.281  1.00  0.00     0.173 C
BRANCH  27  28
HETATM   28  O4  UNL     1      47.948  32.917  28.817  1.00  0.00    -0.400 OA
ATOM     29  H4  UNL     1      47.801  33.598  28.171  1.00  0.00     0.209 HD
ENDBRANCH  27  28
ENDBRANCH  26  27
BRANCH  26  30
HETATM   30  C19 UNL     1      49.718  31.740  30.417  1.00  0.00     0.011 C
BRANCH  30  31
HETATM   31  C20 UNL     1      51.117  32.035  30.813  1.00  0.00     0.001 C
BRANCH  31  32
HETATM   32  C21 UNL     1      51.702  31.225  31.921  1.00  0.00    -0.000 C
BRANCH  32  33
HETATM   33  C22 UNL     1      50.820  30.500  32.848  1.00  0.00    -0.005 C
HETATM   34  C23 UNL     1      50.859  29.015  32.824  1.00  0.00     0.005 C
ENDBRANCH  32  33
ENDBRANCH  31  32
ENDBRANCH  30  31
ENDBRANCH  26  30
ENDBRANCH  15  26
ENDBRANCH   3   4
TORSDOF 11
ENDMDL