MODEL 2
REMARK VINA RESULT: -7.426114106      4.298      7.923
REMARK  8 active torsions:
REMARK  status: ('A' for Active; 'I' for Inactive)
REMARK    1  A    between atoms: C2_2  and  C3_3
REMARK    2  A    between atoms: C3_3  and  C4_4
REMARK    3  A    between atoms: C3_3  and  C7_7
REMARK    4  A    between atoms: C14_15  and  C15_16
REMARK    5  A    between atoms: C15_16  and  C16_17
REMARK       I    between atoms: C16_17  and  N1_19
REMARK    6  A    between atoms: N1_19  and  C17_21
REMARK    7  A    between atoms: C17_21  and  C20_24
REMARK    8  A    between atoms: C20_24  and  O3_25
ROOT
HETATM    1  C7  UNL     1      50.822  31.347  30.807  1.00  0.00     0.204 C
HETATM    2  O1  UNL     1      49.755  30.561  30.601  1.00  0.00    -0.371 OA
HETATM    3  C8  UNL     1      49.693  29.627  29.596  1.00  0.00     0.139 C
HETATM    4  C9  UNL     1      48.308  29.094  29.677  1.00  0.00     0.034 C
HETATM    5  C10 UNL     1      48.000  27.698  29.355  1.00  0.00     0.007 C
HETATM    6  C11 UNL     1      48.496  26.639  30.274  1.00  0.00    -0.014 C
HETATM    7  C12 UNL     1      48.753  25.351  29.529  1.00  0.00     0.010 C
HETATM    8  C13 UNL     1      49.661  27.091  31.103  1.00  0.00    -0.001 C
HETATM    9  C14 UNL     1      50.232  25.866  31.846  1.00  0.00    -0.001 C
HETATM   10  C21 UNL     1      51.446  26.518  32.487  1.00  0.00     0.006 C
HETATM   11  C22 UNL     1      51.860  27.640  31.548  1.00  0.00     0.007 C
HETATM   12  C23 UNL     1      50.873  27.513  30.391  1.00  0.00     0.009 C
HETATM   13  C24 UNL     1      50.828  28.671  29.501  1.00  0.00     0.055 C
HETATM   14  C25 UNL     1      50.977  28.204  28.034  1.00  0.00     0.027 C
HETATM   15  C26 UNL     1      52.074  29.446  29.715  1.00  0.00     0.208 C
HETATM   16  O4  UNL     1      53.177  28.944  29.415  1.00  0.00    -0.288 OA
HETATM   17  C27 UNL     1      52.057  30.773  30.260  1.00  0.00     0.224 C
HETATM   18  O5  UNL     1      53.122  31.460  30.273  1.00  0.00    -0.286 OA
ENDROOT
BRANCH   9  19
HETATM   19  C15 UNL     1      49.337  25.453  32.981  1.00  0.00     0.108 C
BRANCH  19  20
HETATM   20  C16 UNL     1      49.468  23.963  33.126  1.00  0.00     0.218 C
HETATM   21  O2  UNL     1      50.265  23.475  33.965  1.00  0.00    -0.274 OA
HETATM   22  N1  UNL     1      48.698  23.092  32.327  1.00  0.00    -0.350 N
ATOM     23  H1  UNL     1      48.071  23.545  31.663  1.00  0.00     0.163 HD
BRANCH  22  24
HETATM   24  C17 UNL     1      48.676  21.677  32.319  1.00  0.00     0.046 C
HETATM   25  C18 UNL     1      49.964  21.149  31.718  1.00  0.00     0.040 C
HETATM   26  C19 UNL     1      47.573  21.181  31.340  1.00  0.00     0.040 C
BRANCH  24  27
HETATM   27  C20 UNL     1      48.424  20.990  33.630  1.00  0.00     0.194 C
BRANCH  27  28
HETATM   28  O3  UNL     1      49.547  20.603  34.330  1.00  0.00    -0.398 OA
ATOM     29  H3  UNL     1      50.155  21.299  34.553  1.00  0.00     0.209 HD
ENDBRANCH  27  28
ENDBRANCH  24  27
ENDBRANCH  22  24
ENDBRANCH  19  20
ENDBRANCH   9  19
BRANCH   1  30
HETATM   30  C3  UNL     1      50.611  32.807  30.469  1.00  0.00     0.025 C
BRANCH  30  31
HETATM   31  C2  UNL     1      50.787  33.758  31.587  1.00  0.00     0.003 C
HETATM   32  C1  UNL     1      51.139  33.147  32.905  1.00  0.00     0.005 C
ENDBRANCH  30  31
BRANCH  30  33
HETATM   33  C4  UNL     1      49.420  33.084  29.595  1.00  0.00    -0.016 C
HETATM   34  C5  UNL     1      48.906  34.521  29.874  1.00  0.00     0.010 C
HETATM   35  C6  UNL     1      49.769  33.080  28.126  1.00  0.00     0.010 C
ENDBRANCH  30  33
ENDBRANCH   1  30
TORSDOF 8
ENDMDL