MODEL 4
REMARK VINA RESULT: -7.234216852     12.343     16.770
REMARK  7 active torsions:
REMARK  status: ('A' for Active; 'I' for Inactive)
REMARK    1  A    between atoms: O1_2  and  C2_3
REMARK    2  A    between atoms: C2_3  and  C3_4
REMARK    3  A    between atoms: C3_4  and  C4_5
REMARK    4  A    between atoms: C4_5  and  C5_6
REMARK    5  A    between atoms: C10_11  and  C12_13
REMARK    6  A    between atoms: C21_24  and  O4_25
REMARK    7  A    between atoms: C22_27  and  C23_28
ROOT
HETATM    1  C5  UNL     1      48.163  31.338  29.445  1.00  0.00     0.091 C
HETATM    2  C6  UNL     1      49.466  31.807  28.939  1.00  0.00     0.017 C
HETATM    3  C7  UNL     1      49.312  32.982  28.035  1.00  0.00     0.008 C
HETATM    4  C8  UNL     1      50.636  33.396  27.385  1.00  0.00     0.007 C
HETATM    5  C9  UNL     1      51.463  33.848  28.555  1.00  0.00     0.013 C
HETATM    6  C10 UNL     1      52.525  34.817  28.169  1.00  0.00     0.049 C
HETATM    7  C11 UNL     1      53.122  34.553  26.781  1.00  0.00     0.027 C
HETATM    8  C13 UNL     1      53.621  34.963  29.161  1.00  0.00     0.020 C
HETATM    9  C14 UNL     1      53.399  34.305  30.474  1.00  0.00     0.002 C
HETATM   10  C15 UNL     1      52.806  32.941  30.456  1.00  0.00     0.010 C
HETATM   11  C16 UNL     1      51.820  32.660  29.343  1.00  0.00    -0.031 C
HETATM   12  C17 UNL     1      52.440  31.632  28.418  1.00  0.00     0.016 C
HETATM   13  C18 UNL     1      50.576  31.973  29.938  1.00  0.00    -0.029 C
HETATM   14  C19 UNL     1      50.060  32.993  30.969  1.00  0.00     0.016 C
HETATM   15  C20 UNL     1      51.073  30.809  30.675  1.00  0.00     0.043 C
HETATM   16  C21 UNL     1      50.972  29.430  30.191  1.00  0.00     0.139 C
HETATM   17  C22 UNL     1      49.804  28.709  30.883  1.00  0.00     0.175 C
HETATM   18  C25 UNL     1      48.684  28.761  29.934  1.00  0.00     0.233 C
HETATM   19  O6  UNL     1      48.167  27.645  29.650  1.00  0.00    -0.272 OA
HETATM   20  N1  UNL     1      48.074  29.847  29.272  1.00  0.00    -0.351 N
HETATM   21  C26 UNL     1      47.176  29.438  28.195  1.00  0.00     0.153 C
ENDROOT
BRANCH   1  22
HETATM   22  C4  UNL     1      46.850  31.811  29.037  1.00  0.00     0.028 C
BRANCH  22  23
HETATM   23  C3  UNL     1      45.949  32.599  29.928  1.00  0.00     0.028 C
BRANCH  23  24
HETATM   24  C2  UNL     1      46.534  33.998  30.211  1.00  0.00     0.167 C
BRANCH  24  25
HETATM   25  O1  UNL     1      45.791  34.586  31.206  1.00  0.00    -0.396 OA
HETATM   26  C1  UNL     1      44.743  33.862  31.695  1.00  0.00     0.201 C
ENDBRANCH  24  25
ENDBRANCH  23  24
ENDBRANCH  22  23
ENDBRANCH   1  22
BRANCH  17  27
HETATM   27  C23 UNL     1      50.133  27.395  31.398  1.00  0.00     0.138 C
HETATM   28  C24 UNL     1      50.186  27.153  32.866  1.00  0.00     0.092 C
HETATM   29  O5  UNL     1      50.382  26.424  30.695  1.00  0.00    -0.297 OA
ENDBRANCH  17  27
BRANCH  16  30
HETATM   30  O4  UNL     1      52.085  28.632  30.508  1.00  0.00    -0.394 OA
ATOM     31  H4  UNL     1      51.860  27.760  30.810  1.00  0.00     0.210 HD
ENDBRANCH  16  30
BRANCH   6  32
HETATM   32  C12 UNL     1      51.837  36.134  28.003  1.00  0.00     0.181 C
HETATM   33  O2  UNL     1      50.965  36.569  28.786  1.00  0.00    -0.647 OA
HETATM   34  O3  UNL     1      52.201  36.903  26.914  1.00  0.00    -0.647 OA
ENDBRANCH   6  32
TORSDOF 7
ENDMDL