MODEL 3
REMARK VINA RESULT: -8.473387315      8.566     14.030
REMARK  9 active torsions:
REMARK  status: ('A' for Active; 'I' for Inactive)
REMARK    1  A    between atoms: N1_2  and  C3_4
REMARK    2  A    between atoms: C3_4  and  C4_5
REMARK    3  A    between atoms: C4_5  and  C5_6
REMARK    4  A    between atoms: C5_6  and  O1_7
REMARK    5  A    between atoms: C5_6  and  C6_9
REMARK    6  A    between atoms: C6_9  and  O2_10
REMARK    7  A    between atoms: O2_10  and  C7_11
REMARK    8  A    between atoms: C27_32  and  C28_33
REMARK    9  A    between atoms: C28_33  and  O4_34
ROOT
HETATM    1  C7  UNL     1      44.819  33.221  30.321  1.00  0.00     0.144 C
HETATM    2  C8  UNL     1      45.565  32.043  29.820  1.00  0.00     0.008 C
HETATM    3  C9  UNL     1      46.832  32.011  29.464  1.00  0.00    -0.072 C
HETATM    4  C10 UNL     1      47.425  30.757  28.987  1.00  0.00     0.035 C
HETATM    5  C11 UNL     1      48.864  30.529  29.428  1.00  0.00     0.010 C
HETATM    6  C12 UNL     1      49.273  31.631  30.391  1.00  0.00     0.001 C
HETATM    7  C13 UNL     1      50.509  31.503  31.134  1.00  0.00     0.013 C
HETATM    8  C14 UNL     1      51.498  32.651  31.097  1.00  0.00    -0.005 C
HETATM    9  C15 UNL     1      51.210  33.776  30.216  1.00  0.00     0.006 C
HETATM   10  C16 UNL     1      49.718  34.092  30.345  1.00  0.00     0.011 C
HETATM   11  C17 UNL     1      49.056  32.931  29.611  1.00  0.00    -0.029 C
HETATM   12  C18 UNL     1      49.569  32.869  28.216  1.00  0.00     0.016 C
HETATM   13  C19 UNL     1      47.587  33.293  29.572  1.00  0.00    -0.013 C
HETATM   14  C20 UNL     1      47.241  34.257  28.489  1.00  0.00     0.021 C
HETATM   15  C21 UNL     1      47.163  33.917  30.886  1.00  0.00     0.017 C
HETATM   16  C22 UNL     1      45.717  34.322  30.810  1.00  0.00     0.037 C
HETATM   17  C23 UNL     1      52.869  31.998  30.908  1.00  0.00    -0.008 C
HETATM   18  C24 UNL     1      53.233  31.687  29.533  1.00  0.00     0.012 C
HETATM   19  C25 UNL     1      52.948  30.275  29.173  1.00  0.00     0.079 C
HETATM   20  C26 UNL     1      51.843  29.672  29.944  1.00  0.00     0.138 C
HETATM   21  O3  UNL     1      51.415  28.641  29.492  1.00  0.00    -0.297 OA
HETATM   22  C27 UNL     1      51.332  30.277  31.136  1.00  0.00     0.046 C
HETATM   23  C29 UNL     1      52.632  30.816  31.824  1.00  0.00     0.025 C
ENDROOT
BRANCH   1  24
HETATM   24  O2  UNL     1      43.957  32.764  31.316  1.00  0.00    -0.380 OA
BRANCH  24  25
HETATM   25  C6  UNL     1      43.344  31.581  31.022  1.00  0.00     0.200 C
BRANCH  25  26
HETATM   26  C5  UNL     1      41.912  31.501  31.491  1.00  0.00     0.143 C
BRANCH  26  27
HETATM   27  C4  UNL     1      41.890  30.854  32.882  1.00  0.00     0.064 C
BRANCH  27  28
HETATM   28  C3  UNL     1      41.252  31.901  33.800  1.00  0.00     0.274 C
BRANCH  28  29
HETATM   29  N1  UNL     1      40.301  31.224  34.626  1.00  0.00     0.080 N
HETATM   30  C1  UNL     1      39.191  30.680  33.902  1.00  0.00     0.309 C
HETATM   31  C2  UNL     1      40.945  30.295  35.505  1.00  0.00     0.309 C
ENDBRANCH  28  29
ENDBRANCH  27  28
ENDBRANCH  26  27
BRANCH  26  32
HETATM   32  O1  UNL     1      41.475  32.814  31.686  1.00  0.00    -0.393 OA
ATOM     33  H1  UNL     1      41.898  33.325  31.006  1.00  0.00     0.210 HD
ENDBRANCH  26  32
ENDBRANCH  25  26
ENDBRANCH  24  25
ENDBRANCH   1  24
BRANCH  22  34
HETATM   34  C28 UNL     1      50.869  29.239  32.181  1.00  0.00     0.181 C
BRANCH  34  35
HETATM   35  O4  UNL     1      51.053  29.801  33.462  1.00  0.00    -0.400 OA
ATOM     36  H4  UNL     1      51.735  29.307  33.903  1.00  0.00     0.209 HD
ENDBRANCH  34  35
ENDBRANCH  22  34
TORSDOF 9
ENDMDL