MODEL 3
REMARK VINA RESULT: -5.754172818      4.507      6.883
REMARK  7 active torsions:
REMARK  status: ('A' for Active; 'I' for Inactive)
REMARK    1  A    between atoms: O1_2  and  C2_3
REMARK    2  A    between atoms: C2_3  and  C3_4
REMARK    3  A    between atoms: C3_4  and  O2_5
REMARK    4  A    between atoms: C5_8  and  C6_9
REMARK       I    between atoms: C6_9  and  N1_11
REMARK    5  A    between atoms: C9_14  and  N2_15
REMARK    6  A    between atoms: N2_15  and  C10_17
REMARK    7  A    between atoms: C11_19  and  O4_20
ROOT
HETATM    1  C6  UNL     1      -3.160   3.931  11.439  1.00  0.00     0.226 C
HETATM    2  O3  UNL     1      -3.027   3.466  10.275  1.00  0.00    -0.273 OA
HETATM    3  N1  UNL     1      -3.874   3.217  12.428  1.00  0.00    -0.349 N
HETATM    4  C7  UNL     1      -3.999   3.789  13.737  1.00  0.00     0.128 C
HETATM    5  C8  UNL     1      -4.209   2.809  14.834  1.00  0.00     0.047 C
HETATM    6  C9  UNL     1      -4.833   1.519  14.430  1.00  0.00     0.113 C
HETATM    7  C11 UNL     1      -4.117   0.981  13.226  1.00  0.00     0.158 C
HETATM    8  C12 UNL     1      -4.450   1.927  12.065  1.00  0.00     0.159 C
ENDROOT
BRANCH   1   9
HETATM    9  C5  UNL     1      -2.539   5.263  11.734  1.00  0.00     0.107 C
HETATM   10  C4  UNL     1      -1.101   5.108  12.094  1.00  0.00     0.087 C
HETATM   11  C2  UNL     1      -0.351   5.585  10.837  1.00  0.00     0.185 C
HETATM   12  O5  UNL     1      -1.190   6.639  10.440  1.00  0.00    -0.352 OA
HETATM   13  C13 UNL     1      -2.480   6.071  10.454  1.00  0.00     0.185 C
BRANCH  11  14
HETATM   14  O1  UNL     1      -0.360   4.543   9.973  1.00  0.00    -0.358 OA
HETATM   15  C1  UNL     1       0.464   4.566   8.887  1.00  0.00     0.205 C
ENDBRANCH  11  14
BRANCH  11  16
HETATM   16  C3  UNL     1       0.958   6.194  11.185  1.00  0.00     0.232 C
BRANCH  16  17
HETATM   17  O2  UNL     1       1.596   5.420  12.141  1.00  0.00    -0.396 OA
ATOM     18  H2  UNL     1       1.845   5.962  12.881  1.00  0.00     0.209 HD
ENDBRANCH  16  17
ENDBRANCH  11  16
ENDBRANCH   1   9
BRANCH   7  19
HETATM   19  O4  UNL     1      -4.534  -0.311  12.941  1.00  0.00    -0.392 OA
ATOM     20  H4  UNL     1      -3.897  -0.761  12.400  1.00  0.00     0.210 HD
ENDBRANCH   7  19
BRANCH   6  21
HETATM   21  N2  UNL     1      -4.750   0.610  15.565  1.00  0.00    -0.383 N
ATOM     22  H2  UNL     1      -4.032  -0.114  15.610  1.00  0.00     0.160 HD
BRANCH  21  23
HETATM   23  C10 UNL     1      -5.613   0.750  16.510  1.00  0.00     0.166 C
HETATM   24  S1  UNL     1      -6.963   1.109  17.351  1.00  0.00    -0.075 SA
ENDBRANCH  21  23
ENDBRANCH   6  21
TORSDOF 7
ENDMDL