MODEL 4
REMARK VINA RESULT: -5.902682549      2.320      5.974
REMARK  10 active torsions:
REMARK  status: ('A' for Active; 'I' for Inactive)
REMARK    1  A    between atoms: C2_2  and  O2_4
REMARK    2  A    between atoms: O2_4  and  C3_5
REMARK    3  A    between atoms: C3_5  and  C4_6
REMARK    4  A    between atoms: C4_6  and  S1_7
REMARK    5  A    between atoms: S1_7  and  C5_8
REMARK    6  A    between atoms: C5_8  and  N1_10
REMARK    7  A    between atoms: N2_13  and  C8_14
REMARK    8  A    between atoms: C8_14  and  C9_15
REMARK    9  A    between atoms: C9_15  and  O3_16
REMARK   10  A    between atoms: N3_20  and  O4_22
ROOT
HETATM    1  C5  UNL     1      -4.677   2.674  12.076  1.00  0.00     0.137 C
HETATM    2  S2  UNL     1      -4.867   1.267  11.282  1.00  0.00    -0.053 SA
ENDROOT
BRANCH   1   3
HETATM    3  S1  UNL     1      -4.136   4.115  11.187  1.00  0.00    -0.092 SA
BRANCH   3   4
HETATM    4  C4  UNL     1      -2.367   4.063  10.982  1.00  0.00     0.168 C
BRANCH   4   5
HETATM    5  C3  UNL     1      -1.592   4.492  12.161  1.00  0.00     0.156 C
HETATM    6  N3  UNL     1      -0.684   3.788  12.683  1.00  0.00    -0.250 N
ATOM      7  H3  UNL     1      -0.204   4.171  13.498  1.00  0.00     0.196 HD
BRANCH   5   8
HETATM    8  O2  UNL     1      -1.851   5.735  12.755  1.00  0.00    -0.263 OA
BRANCH   8   9
HETATM    9  C2  UNL     1      -2.313   5.831  14.056  1.00  0.00     0.261 C
HETATM   10  C1  UNL     1      -3.009   7.056  14.570  1.00  0.00     0.126 C
HETATM   11  O1  UNL     1      -2.134   4.849  14.817  1.00  0.00    -0.265 OA
ENDBRANCH   8   9
ENDBRANCH   5   8
BRANCH   6  12
HETATM   12  O4  UNL     1      -0.293   2.565  12.252  1.00  0.00    -0.288 OA
ATOM     13  H4  UNL     1       0.604   2.302  12.083  1.00  0.00     0.244 HD
ENDBRANCH   6  12
ENDBRANCH   4   5
ENDBRANCH   3   4
ENDBRANCH   1   3
BRANCH   1  14
HETATM   14  N1  UNL     1      -4.949   2.721  13.464  1.00  0.00    -0.363 N
HETATM   15  C6  UNL     1      -5.405   3.900  14.146  1.00  0.00     0.154 C
HETATM   16  C7  UNL     1      -6.313   3.475  15.288  1.00  0.00     0.292 C
HETATM   17  N2  UNL     1      -5.669   2.590  16.204  1.00  0.00     0.093 N
HETATM   18  C10 UNL     1      -4.488   1.945  15.676  1.00  0.00     0.292 C
HETATM   19  C11 UNL     1      -4.762   1.510  14.257  1.00  0.00     0.154 C
BRANCH  17  20
HETATM   20  C8  UNL     1      -6.521   1.589  16.767  1.00  0.00     0.298 C
BRANCH  20  21
HETATM   21  C9  UNL     1      -5.827   0.683  17.755  1.00  0.00     0.194 C
BRANCH  21  22
HETATM   22  O3  UNL     1      -5.921  -0.664  17.400  1.00  0.00    -0.399 OA
ATOM     23  H3  UNL     1      -6.691  -1.082  17.767  1.00  0.00     0.209 HD
ENDBRANCH  21  22
ENDBRANCH  20  21
ENDBRANCH  17  20
ENDBRANCH   1  14
TORSDOF 10
ENDMDL