MODEL 5
REMARK VINA RESULT: -6.797186642      1.987      5.569
REMARK  7 active torsions:
REMARK  status: ('A' for Active; 'I' for Inactive)
REMARK    1  A    between atoms: N1_2  and  C3_4
REMARK    2  A    between atoms: C10_13  and  O3_14
REMARK    3  A    between atoms: O3_14  and  C11_15
REMARK    4  A    between atoms: C11_15  and  C12_17
REMARK    5  A    between atoms: C12_17  and  O5_18
REMARK    6  A    between atoms: C12_17  and  C13_20
REMARK    7  A    between atoms: C13_20  and  O6_23
ROOT
HETATM    1  C3  UNL     1      -4.873   1.664  13.963  1.00  0.00     0.112 C
HETATM    2  C4  UNL     1      -4.731   0.542  14.976  1.00  0.00     0.062 C
HETATM    3  C5  UNL     1      -4.197   1.159  16.226  1.00  0.00     0.159 C
HETATM    4  O1  UNL     1      -4.902   0.781  17.377  1.00  0.00    -0.348 OA
HETATM    5  C6  UNL     1      -6.075   1.507  17.392  1.00  0.00     0.158 C
HETATM    6  C7  UNL     1      -6.275   2.301  18.677  1.00  0.00     0.078 C
HETATM    7  C8  UNL     1      -7.248   0.554  17.287  1.00  0.00     0.078 C
HETATM    8  O2  UNL     1      -6.043   2.427  16.366  1.00  0.00    -0.345 OA
HETATM    9  C9  UNL     1      -4.666   2.600  16.099  1.00  0.00     0.185 C
HETATM   10  C10 UNL     1      -4.411   2.917  14.664  1.00  0.00     0.186 C
ENDROOT
BRANCH  10  11
HETATM   11  O3  UNL     1      -5.235   3.984  14.269  1.00  0.00    -0.309 OA
BRANCH  11  12
HETATM   12  C11 UNL     1      -4.829   5.305  14.242  1.00  0.00     0.291 C
HETATM   13  O4  UNL     1      -3.694   5.522  14.772  1.00  0.00    -0.262 OA
BRANCH  12  14
HETATM   14  C12 UNL     1      -5.647   6.367  13.647  1.00  0.00     0.251 C
BRANCH  14  15
HETATM   15  O5  UNL     1      -7.007   6.075  13.761  1.00  0.00    -0.383 OA
ATOM     16  H5  UNL     1      -7.538   6.801  13.457  1.00  0.00     0.210 HD
ENDBRANCH  14  15
BRANCH  14  17
HETATM   17  C13 UNL     1      -5.335   6.609  12.191  1.00  0.00     0.086 C
HETATM   18  C14 UNL     1      -6.450   7.348  11.487  1.00  0.00     0.049 C
HETATM   19  C15 UNL     1      -4.109   7.522  12.165  1.00  0.00     0.049 C
BRANCH  17  20
HETATM   20  O6  UNL     1      -5.040   5.457  11.504  1.00  0.00    -0.387 OA
ATOM     21  H6  UNL     1      -5.542   5.362  10.703  1.00  0.00     0.210 HD
ENDBRANCH  17  20
ENDBRANCH  14  17
ENDBRANCH  12  14
ENDBRANCH  11  12
ENDBRANCH  10  11
BRANCH   1  22
HETATM   22  N1  UNL     1      -4.142   1.327  12.810  1.00  0.00    -0.414 N
HETATM   23  C1  UNL     1      -4.382   0.125  12.150  1.00  0.00     0.143 C
HETATM   24  C2  UNL     1      -3.405   2.332  12.167  1.00  0.00     0.143 C
ENDBRANCH   1  22
TORSDOF 7
ENDMDL