MODEL 2
REMARK VINA RESULT: -7.653512476      1.481      1.811
REMARK  8 active torsions:
REMARK  status: ('A' for Active; 'I' for Inactive)
REMARK    1  A    between atoms: C2_2  and  O1_4
REMARK    2  A    between atoms: C2_2  and  C4_6
REMARK    3  A    between atoms: C4_6  and  C5_7
REMARK    4  A    between atoms: C5_7  and  C6_8
REMARK    5  A    between atoms: C6_8  and  O3_10
REMARK    6  A    between atoms: O3_10  and  C7_11
REMARK    7  A    between atoms: C7_11  and  C8_12
REMARK    8  A    between atoms: C8_12  and  O4_13
ROOT
HETATM    1  C8  UNL     1      -3.832   3.001  11.974  1.00  0.00     0.205 C
HETATM    2  O5  UNL     1      -3.307   3.020  10.716  1.00  0.00    -0.319 OA
HETATM    3  C9  UNL     1      -3.493   4.309  10.266  1.00  0.00     0.297 C
HETATM    4  O6  UNL     1      -4.794   4.757  10.255  1.00  0.00    -0.323 OA
HETATM    5  C10 UNL     1      -4.724   6.106  10.565  1.00  0.00     0.160 C
HETATM    6  C11 UNL     1      -4.826   6.908   9.268  1.00  0.00     0.078 C
HETATM    7  C12 UNL     1      -5.874   6.581  11.433  1.00  0.00     0.078 C
HETATM    8  O7  UNL     1      -3.554   6.325  11.246  1.00  0.00    -0.344 OA
HETATM    9  C13 UNL     1      -2.924   5.105  11.453  1.00  0.00     0.203 C
HETATM   10  C14 UNL     1      -3.499   4.319  12.603  1.00  0.00     0.191 C
HETATM   11  C15 UNL     1      -2.589   4.224  13.715  1.00  0.00     0.072 C
HETATM   12  N1  UNL     1      -1.866   4.162  14.610  1.00  0.00    -0.197 NA
ENDROOT
BRANCH   1  13
HETATM   13  C7  UNL     1      -3.597   1.821  12.824  1.00  0.00     0.248 C
BRANCH  13  14
HETATM   14  O3  UNL     1      -4.606   1.207  13.495  1.00  0.00    -0.316 OA
BRANCH  14  15
HETATM   15  C6  UNL     1      -4.558   0.725  14.777  1.00  0.00     0.259 C
HETATM   16  O2  UNL     1      -4.814  -0.496  14.939  1.00  0.00    -0.265 OA
BRANCH  15  17
HETATM   17  C5  UNL     1      -4.221   1.596  15.943  1.00  0.00     0.114 C
BRANCH  17  18
HETATM   18  C4  UNL     1      -5.397   2.209  16.578  1.00  0.00     0.046 C
BRANCH  18  19
HETATM   19  C2  UNL     1      -6.102   1.449  17.642  1.00  0.00     0.051 C
HETATM   20  C1  UNL     1      -6.322   2.128  18.953  1.00  0.00     0.045 C
HETATM   21  C3  UNL     1      -7.496   1.030  17.137  1.00  0.00     0.045 C
BRANCH  19  22
HETATM   22  O1  UNL     1      -5.429   0.232  17.930  1.00  0.00    -0.391 OA
ATOM     23  H1  UNL     1      -4.965  -0.012  17.138  1.00  0.00     0.210 HD
ENDBRANCH  19  22
ENDBRANCH  18  19
ENDBRANCH  17  18
ENDBRANCH  15  17
ENDBRANCH  14  15
ENDBRANCH  13  14
ENDBRANCH   1  13
BRANCH   1  24
HETATM   24  O4  UNL     1      -5.251   2.993  11.764  1.00  0.00    -0.362 OA
ATOM     25  H4  UNL     1      -5.540   3.815  12.142  1.00  0.00     0.213 HD
ENDBRANCH   1  24
TORSDOF 8
ENDMDL