MODEL 3
REMARK VINA RESULT: -6.810919098      1.636      2.697
REMARK  6 active torsions:
REMARK  status: ('A' for Active; 'I' for Inactive)
REMARK    1  A    between atoms: C3_3  and  N1_4
REMARK    2  A    between atoms: N1_4  and  C5_6
REMARK    3  A    between atoms: C10_14  and  C11_15
REMARK    4  A    between atoms: C11_15  and  O2_17
REMARK    5  A    between atoms: O2_17  and  C12_18
REMARK    6  A    between atoms: C16_24  and  O5_25
ROOT
HETATM    1  C1  UNL     1       0.577   4.127  11.038  1.00  0.00     0.013 C
HETATM    2  C2  UNL     1      -0.566   4.502  11.154  1.00  0.00    -0.087 C
HETATM    3  C3  UNL     1      -1.968   4.971  11.271  1.00  0.00     0.365 C
ENDROOT
BRANCH   3   4
HETATM    4  N1  UNL     1      -2.432   4.719  12.630  1.00  0.00     0.102 N
HETATM    5  C4  UNL     1      -1.721   5.653  13.479  1.00  0.00     0.311 C
BRANCH   4   6
HETATM    6  C5  UNL     1      -3.869   4.961  12.627  1.00  0.00     0.266 C
HETATM    7  C6  UNL     1      -4.252   6.213  13.339  1.00  0.00     0.076 C
HETATM    8  C7  UNL     1      -5.394   5.849  14.242  1.00  0.00     0.121 C
HETATM    9  C8  UNL     1      -6.751   6.222  13.657  1.00  0.00     0.046 C
HETATM   10  C9  UNL     1      -5.215   6.594  15.554  1.00  0.00     0.046 C
HETATM   11  N2  UNL     1      -5.370   4.424  14.406  1.00  0.00    -0.051 N
HETATM   12  C10 UNL     1      -4.657   3.881  13.267  1.00  0.00     0.318 C
ATOM     13  H22 UNL     1      -4.981   4.129  15.302  1.00  0.00     0.279 HD
ATOM     14  H21 UNL     1      -6.298   4.018  14.529  1.00  0.00     0.279 HD
BRANCH  12  15
HETATM   15  C11 UNL     1      -3.869   2.718  13.740  1.00  0.00     0.294 C
HETATM   16  O1  UNL     1      -3.547   1.825  12.934  1.00  0.00    -0.263 OA
BRANCH  15  17
HETATM   17  O2  UNL     1      -3.452   2.546  15.051  1.00  0.00    -0.283 OA
BRANCH  17  18
HETATM   18  C12 UNL     1      -4.100   1.696  15.967  1.00  0.00     0.327 C
HETATM   19  O3  UNL     1      -5.163   2.443  16.510  1.00  0.00    -0.321 OA
HETATM   20  C13 UNL     1      -6.106   1.533  16.924  1.00  0.00     0.163 C
HETATM   21  C14 UNL     1      -5.852   1.298  18.420  1.00  0.00     0.078 C
HETATM   22  C15 UNL     1      -7.531   1.994  16.745  1.00  0.00     0.078 C
HETATM   23  O4  UNL     1      -5.946   0.372  16.201  1.00  0.00    -0.321 OA
HETATM   24  C16 UNL     1      -4.821   0.544  15.365  1.00  0.00     0.316 C
BRANCH  24  25
HETATM   25  O5  UNL     1      -4.116  -0.662  15.461  1.00  0.00    -0.367 OA
ATOM     26  H5  UNL     1      -4.459  -1.246  16.127  1.00  0.00     0.212 HD
ENDBRANCH  24  25
ENDBRANCH  17  18
ENDBRANCH  15  17
ENDBRANCH  12  15
ENDBRANCH   4   6
ENDBRANCH   3   4
TORSDOF 6
ENDMDL