MODEL 5
REMARK VINA RESULT: -6.086684249      1.790      2.322
REMARK  9 active torsions:
REMARK  status: ('A' for Active; 'I' for Inactive)
REMARK    1  A    between atoms: C2_2  and  O1_3
REMARK    2  A    between atoms: O1_3  and  C3_4
REMARK    3  A    between atoms: C3_4  and  O3_6
REMARK    4  A    between atoms: O3_6  and  C4_7
REMARK    5  A    between atoms: C6_9  and  C7_10
REMARK    6  A    between atoms: C9_14  and  N1_15
REMARK    7  A    between atoms: N1_15  and  N2_17
REMARK    8  A    between atoms: N2_17  and  N3_18
REMARK    9  A    between atoms: C10_21  and  O6_22
ROOT
HETATM    1  C4  UNL     1      -5.307   3.061  14.532  1.00  0.00     0.139 C
HETATM    2  C5  UNL     1      -4.071   3.846  14.134  1.00  0.00     0.043 C
HETATM    3  C6  UNL     1      -4.527   4.825  13.084  1.00  0.00     0.049 C
HETATM    4  C10 UNL     1      -5.301   5.883  13.808  1.00  0.00     0.129 C
HETATM    5  C11 UNL     1      -6.478   5.294  14.468  1.00  0.00     0.022 A
HETATM    6  C12 UNL     1      -6.307   4.938  15.954  1.00  0.00     0.015 A
HETATM    7  C13 UNL     1      -6.459   3.923  14.897  1.00  0.00     0.022 A
ENDROOT
BRANCH   3   8
HETATM    8  C7  UNL     1      -3.401   5.428  12.297  1.00  0.00     0.173 C
HETATM    9  O4  UNL     1      -3.887   6.584  11.622  1.00  0.00    -0.311 OA
HETATM   10  C8  UNL     1      -4.424   5.710  10.687  1.00  0.00     0.287 C
HETATM   11  O5  UNL     1      -5.412   5.580   9.938  1.00  0.00    -0.263 OA
HETATM   12  C9  UNL     1      -3.233   4.851  10.924  1.00  0.00     0.243 C
BRANCH  12  13
HETATM   13  N1  UNL     1      -2.113   5.372  10.201  1.00  0.00    -0.236 N
ATOM     14  H1  UNL     1      -1.629   6.191  10.571  1.00  0.00     0.198 HD
BRANCH  13  15
HETATM   15  N2  UNL     1      -1.710   4.869   9.147  1.00  0.00    -0.248 NA
BRANCH  15  16
HETATM   16  N3  UNL     1      -1.337   4.442   8.048  1.00  0.00    -0.261 N
ATOM     17  H32 UNL     1      -1.154   5.442   7.969  1.00  0.00     0.193 HD
ATOM     18  H31 UNL     1      -1.050   4.019   7.166  1.00  0.00     0.193 HD
ENDBRANCH  15  16
ENDBRANCH  13  15
ENDBRANCH  12  13
ENDBRANCH   3   8
BRANCH   4  19
HETATM   19  O6  UNL     1      -4.511   6.609  14.695  1.00  0.00    -0.395 OA
ATOM     20  H6  UNL     1      -4.297   6.117  15.478  1.00  0.00     0.210 HD
ENDBRANCH   4  19
BRANCH   1  21
HETATM   21  O3  UNL     1      -4.917   2.163  15.559  1.00  0.00    -0.292 OA
BRANCH  21  22
HETATM   22  C3  UNL     1      -4.440   0.891  15.279  1.00  0.00     0.406 C
HETATM   23  O2  UNL     1      -3.610   0.398  16.061  1.00  0.00    -0.229 OA
BRANCH  22  24
HETATM   24  O1  UNL     1      -4.845   0.152  14.178  1.00  0.00    -0.298 OA
BRANCH  24  25
HETATM   25  C2  UNL     1      -4.009   0.105  13.034  1.00  0.00     0.176 C
HETATM   26  C1  UNL     1      -4.803   0.651  11.863  1.00  0.00     0.034 C
ENDBRANCH  24  25
ENDBRANCH  22  24
ENDBRANCH  21  22
ENDBRANCH   1  21
TORSDOF 9
ENDMDL