MODEL 2
REMARK VINA RESULT: -7.615004494      1.467      1.635
REMARK  7 active torsions:
REMARK  status: ('A' for Active; 'I' for Inactive)
REMARK    1  A    between atoms: C2_2  and  C4_4
REMARK    2  A    between atoms: C4_4  and  C5_5
REMARK    3  A    between atoms: C5_5  and  O2_7
REMARK    4  A    between atoms: O2_7  and  C6_8
REMARK    5  A    between atoms: C6_8  and  C7_9
REMARK    6  A    between atoms: C7_9  and  O3_10
REMARK    7  A    between atoms: C15_22  and  O7_23
ROOT
HETATM    1  C7  UNL     1      -4.711   2.004  12.749  1.00  0.00     0.108 C
HETATM    2  C8  UNL     1      -4.086   3.156  13.561  1.00  0.00     0.050 C
HETATM    3  C9  UNL     1      -2.820   3.390  12.798  1.00  0.00     0.029 C
HETATM    4  C10 UNL     1      -2.266   4.773  12.996  1.00  0.00     0.057 A
HETATM    5  C11 UNL     1      -2.466   5.269  14.407  1.00  0.00     0.121 A
HETATM    6  C12 UNL     1      -3.510   6.286  14.247  1.00  0.00     0.261 A
HETATM    7  O4  UNL     1      -4.024   6.943  15.180  1.00  0.00    -0.265 OA
HETATM    8  O5  UNL     1      -3.882   6.453  12.922  1.00  0.00    -0.289 OA
HETATM    9  C13 UNL     1      -3.134   5.595  12.085  1.00  0.00     0.275 A
HETATM   10  O6  UNL     1      -3.938   4.721  11.369  1.00  0.00    -0.352 OA
HETATM   11  C14 UNL     1      -3.340   3.482  11.377  1.00  0.00     0.161 C
HETATM   12  C15 UNL     1      -4.316   2.337  11.339  1.00  0.00     0.184 C
ENDROOT
BRANCH   1  13
HETATM   13  C6  UNL     1      -4.141   0.762  13.295  1.00  0.00     0.219 C
BRANCH  13  14
HETATM   14  O2  UNL     1      -4.674   0.178  14.411  1.00  0.00    -0.318 OA
BRANCH  14  15
HETATM   15  C5  UNL     1      -4.617   0.469  15.730  1.00  0.00     0.259 C
HETATM   16  O1  UNL     1      -3.483   0.701  16.208  1.00  0.00    -0.265 OA
BRANCH  15  17
HETATM   17  C4  UNL     1      -5.806   0.530  16.637  1.00  0.00     0.115 C
BRANCH  17  18
HETATM   18  C2  UNL     1      -5.875   1.925  17.216  1.00  0.00    -0.013 C
HETATM   19  C1  UNL     1      -6.463   1.963  18.584  1.00  0.00     0.010 C
HETATM   20  C3  UNL     1      -6.668   2.799  16.235  1.00  0.00     0.010 C
ENDBRANCH  17  18
ENDBRANCH  15  17
ENDBRANCH  14  15
ENDBRANCH  13  14
ENDBRANCH   1  13
BRANCH   1  21
HETATM   21  O3  UNL     1      -6.087   2.114  12.827  1.00  0.00    -0.385 OA
ATOM     22  H3  UNL     1      -6.578   1.521  12.270  1.00  0.00     0.210 HD
ENDBRANCH   1  21
BRANCH  12  23
HETATM   23  O7  UNL     1      -5.403   2.747  10.567  1.00  0.00    -0.390 OA
ATOM     24  H7  UNL     1      -6.209   2.785  11.070  1.00  0.00     0.210 HD
ENDBRANCH  12  23
TORSDOF 7
ENDMDL