MODEL 3
REMARK VINA RESULT: -7.174919511      1.333      1.787
REMARK  7 active torsions:
REMARK  status: ('A' for Active; 'I' for Inactive)
REMARK    1  A    between atoms: N1_2  and  C2_5
REMARK    2  A    between atoms: C2_5  and  C3_6
REMARK    3  A    between atoms: C3_6  and  O1_7
REMARK    4  A    between atoms: O1_7  and  C4_8
REMARK    5  A    between atoms: C7_12  and  O3_13
REMARK    6  A    between atoms: C10_19  and  O6_20
REMARK    7  A    between atoms: O6_20  and  C11_21
ROOT
HETATM    1  C4  UNL     1      -4.265   5.188  13.160  1.00  0.00     0.130 C
HETATM    2  C5  UNL     1      -4.282   4.492  11.826  1.00  0.00     0.068 C
HETATM    3  C6  UNL     1      -3.762   3.118  12.004  1.00  0.00     0.175 C
HETATM    4  O2  UNL     1      -3.878   2.185  11.001  1.00  0.00    -0.321 OA
HETATM    5  C7  UNL     1      -4.480   1.377  12.010  1.00  0.00     0.320 A
HETATM    6  O4  UNL     1      -5.819   1.629  12.028  1.00  0.00    -0.305 OA
HETATM    7  C8  UNL     1      -4.772   2.358  12.793  1.00  0.00     0.203 A
HETATM    8  C9  UNL     1      -5.337   3.028  13.929  1.00  0.00     0.176 C
HETATM    9  O5  UNL     1      -5.514   2.171  14.978  1.00  0.00    -0.352 OA
HETATM   10  C10 UNL     1      -4.727   2.319  16.074  1.00  0.00     0.270 C
HETATM   11  C13 UNL     1      -3.310   2.592  15.624  1.00  0.00     0.062 C
HETATM   12  C14 UNL     1      -3.320   4.001  15.067  1.00  0.00     0.014 C
HETATM   13  C15 UNL     1      -4.600   4.302  14.336  1.00  0.00     0.047 C
ENDROOT
BRANCH   1  14
HETATM   14  O1  UNL     1      -3.011   5.753  13.334  1.00  0.00    -0.384 OA
BRANCH  14  15
HETATM   15  C3  UNL     1      -2.620   6.685  12.429  1.00  0.00     0.195 C
BRANCH  15  16
HETATM   16  C2  UNL     1      -3.260   8.004  12.697  1.00  0.00     0.258 C
BRANCH  16  17
HETATM   17  N1  UNL     1      -3.707   8.707  11.515  1.00  0.00    -0.077 N
HETATM   18  C1  UNL     1      -5.047   8.301  11.178  1.00  0.00     0.267 C
ATOM     19  H12 UNL     1      -3.063   8.587  10.733  1.00  0.00     0.276 HD
ATOM     20  H11 UNL     1      -3.628   9.718  11.619  1.00  0.00     0.276 HD
ENDBRANCH  16  17
ENDBRANCH  15  16
ENDBRANCH  14  15
ENDBRANCH   1  14
BRANCH   5  21
HETATM   21  O3  UNL     1      -3.969   0.103  12.093  1.00  0.00    -0.341 OA
ATOM     22  H3  UNL     1      -3.425  -0.050  12.857  1.00  0.00     0.215 HD
ENDBRANCH   5  21
BRANCH  10  23
HETATM   23  O6  UNL     1      -4.830   1.236  16.938  1.00  0.00    -0.290 OA
BRANCH  23  24
HETATM   24  C11 UNL     1      -5.999   0.548  17.227  1.00  0.00     0.257 C
HETATM   25  C12 UNL     1      -7.293   1.282  17.396  1.00  0.00     0.126 C
HETATM   26  O7  UNL     1      -5.897  -0.692  17.334  1.00  0.00    -0.266 OA
ENDBRANCH  23  24
ENDBRANCH  10  23
TORSDOF 7
ENDMDL