MODEL 4
REMARK VINA RESULT: -6.962028775      1.280      1.416
REMARK  7 active torsions:
REMARK  status: ('A' for Active; 'I' for Inactive)
REMARK    1  A    between atoms: C2_2  and  O2_4
REMARK    2  A    between atoms: O2_4  and  C3_5
REMARK    3  A    between atoms: C3_5  and  C4_6
REMARK    4  A    between atoms: C5_8  and  N1_9
REMARK    5  A    between atoms: C11_15  and  O4_16
REMARK    6  A    between atoms: C13_19  and  O5_20
REMARK    7  A    between atoms: O5_20  and  C14_21
ROOT
HETATM    1  C4  UNL     1      -3.340   3.527  14.320  1.00  0.00     0.178 C
HETATM    2  O3  UNL     1      -3.347   4.920  14.667  1.00  0.00    -0.345 OA
HETATM    3  C5  UNL     1      -2.377   5.557  13.838  1.00  0.00     0.388 C
HETATM    4  C11 UNL     1      -2.868   5.554  12.414  1.00  0.00     0.180 C
HETATM    5  C12 UNL     1      -4.252   4.887  12.482  1.00  0.00     0.071 C
HETATM    6  C13 UNL     1      -3.918   3.422  12.965  1.00  0.00     0.165 C
ENDROOT
BRANCH   3   7
HETATM    7  N1  UNL     1      -2.071   6.793  14.424  1.00  0.00     0.119 N
HETATM    8  C6  UNL     1      -1.260   7.573  13.565  1.00  0.00     0.276 C
HETATM    9  C7  UNL     1      -0.808   8.886  14.169  1.00  0.00     0.030 C
HETATM   10  C8  UNL     1      -2.092   9.615  14.534  1.00  0.00     0.003 C
HETATM   11  C9  UNL     1      -2.719   8.784  15.645  1.00  0.00     0.030 C
HETATM   12  C10 UNL     1      -3.160   7.473  15.050  1.00  0.00     0.276 C
ENDBRANCH   3   7
BRANCH   4  13
HETATM   13  O4  UNL     1      -2.120   4.721  11.585  1.00  0.00    -0.391 OA
ATOM     14  H4  UNL     1      -1.352   5.150  11.226  1.00  0.00     0.210 HD
ENDBRANCH   4  13
BRANCH   1  15
HETATM   15  C3  UNL     1      -4.117   2.904  15.436  1.00  0.00     0.213 C
BRANCH  15  16
HETATM   16  O2  UNL     1      -3.832   1.580  15.758  1.00  0.00    -0.319 OA
BRANCH  16  17
HETATM   17  C2  UNL     1      -4.883   0.723  16.110  1.00  0.00     0.254 C
HETATM   18  C1  UNL     1      -5.895   1.067  17.152  1.00  0.00     0.126 C
HETATM   19  O1  UNL     1      -4.938  -0.387  15.500  1.00  0.00    -0.266 OA
ENDBRANCH  16  17
ENDBRANCH  15  16
ENDBRANCH   1  15
BRANCH   6  20
HETATM   20  O5  UNL     1      -5.109   2.684  12.832  1.00  0.00    -0.314 OA
BRANCH  20  21
HETATM   21  C14 UNL     1      -5.201   1.593  11.956  1.00  0.00     0.255 C
HETATM   22  C15 UNL     1      -4.516   0.296  12.147  1.00  0.00     0.126 C
HETATM   23  O6  UNL     1      -5.921   1.739  10.940  1.00  0.00    -0.266 OA
ENDBRANCH  20  21
ENDBRANCH   6  20
TORSDOF 7
ENDMDL