MODEL 1
REMARK VINA RESULT: -6.943044029      0.000      0.000
REMARK  5 active torsions:
REMARK  status: ('A' for Active; 'I' for Inactive)
REMARK    1  A    between atoms: C3_3  and  C4_4
REMARK    2  A    between atoms: C4_4  and  O1_5
REMARK    3  A    between atoms: C4_4  and  C5_7
REMARK    4  A    between atoms: C5_7  and  C6_8
REMARK    5  A    between atoms: C6_8  and  N1_9
ROOT
HETATM    1  N1  UNL     1      -3.971   4.199  13.369  1.00  0.00     0.092 N
HETATM    2  C7  UNL     1      -3.998   5.642  13.644  1.00  0.00     0.298 C
HETATM    3  C8  UNL     1      -5.383   6.129  13.954  1.00  0.00     0.198 C
HETATM    4  O2  UNL     1      -6.285   5.980  12.936  1.00  0.00    -0.387 OA
HETATM    5  C9  UNL     1      -6.551   7.195  12.259  1.00  0.00     0.193 C
HETATM    6  C10 UNL     1      -6.026   7.031  10.876  1.00  0.00     0.193 C
HETATM    7  O3  UNL     1      -6.535   7.873   9.933  1.00  0.00    -0.387 OA
HETATM    8  C11 UNL     1      -6.252   7.302   8.670  1.00  0.00     0.193 C
HETATM    9  C12 UNL     1      -4.797   6.929   8.539  1.00  0.00     0.193 C
HETATM   10  O4  UNL     1      -4.519   5.632   8.878  1.00  0.00    -0.387 OA
HETATM   11  C13 UNL     1      -3.455   5.057   8.252  1.00  0.00     0.193 C
HETATM   12  C14 UNL     1      -2.263   4.790   9.103  1.00  0.00     0.193 C
HETATM   13  O5  UNL     1      -2.472   3.822  10.084  1.00  0.00    -0.387 OA
HETATM   14  C15 UNL     1      -3.305   4.251  11.074  1.00  0.00     0.198 C
HETATM   15  C16 UNL     1      -2.871   3.912  12.470  1.00  0.00     0.298 C
ENDROOT
BRANCH   1  16
HETATM   16  C6  UNL     1      -3.888   3.549  14.635  1.00  0.00     0.275 C
BRANCH  16  17
HETATM   17  C5  UNL     1      -4.851   2.419  14.836  1.00  0.00     0.066 C
BRANCH  17  18
HETATM   18  C4  UNL     1      -4.560   1.780  16.201  1.00  0.00     0.142 C
BRANCH  18  19
HETATM   19  C3  UNL     1      -5.442   0.629  16.452  1.00  0.00     0.000 C
HETATM   20  C2  UNL     1      -6.384   0.707  17.387  1.00  0.00    -0.033 C
HETATM   21  C1  UNL     1      -6.582   1.926  18.199  1.00  0.00     0.036 C
ENDBRANCH  18  19
BRANCH  18  22
HETATM   22  O1  UNL     1      -3.244   1.372  16.303  1.00  0.00    -0.392 OA
ATOM     23  H1  UNL     1      -2.746   1.742  15.584  1.00  0.00     0.210 HD
ENDBRANCH  18  22
ENDBRANCH  17  18
ENDBRANCH  16  17
ENDBRANCH   1  16
TORSDOF 5
ENDMDL