MODEL 1
REMARK VINA RESULT: -7.831070036      0.000      0.000
REMARK  4 active torsions:
REMARK  status: ('A' for Active; 'I' for Inactive)
REMARK       I    between atoms: N3_4  and  C2_6
REMARK    1  A    between atoms: C2_6  and  C3_8
REMARK    2  A    between atoms: C8_13  and  S1_14
REMARK    3  A    between atoms: S1_14  and  N4_17
REMARK    4  A    between atoms: N4_17  and  C9_19
ROOT
HETATM    1  C3  UNL     1      37.237  -1.808  12.582  1.00  0.00     0.055 A
HETATM    2  C4  UNL     1      38.351  -1.616  13.421  1.00  0.00     0.018 A
HETATM    3  C5  UNL     1      38.893  -2.625  14.147  1.00  0.00     0.001 A
HETATM    4  C6  UNL     1      38.320  -3.868  14.045  1.00  0.00     0.002 A
HETATM    5  C7  UNL     1      37.243  -4.081  13.242  1.00  0.00     0.026 A
HETATM    6  C8  UNL     1      36.661  -3.054  12.479  1.00  0.00     0.096 A
ENDROOT
BRANCH   6   7
HETATM    7  S1  UNL     1      35.283  -3.443  11.480  1.00  0.00     0.277 S
HETATM    8  O2  UNL     1      34.456  -2.198  11.288  1.00  0.00    -0.200 OA
HETATM    9  O3  UNL     1      35.749  -4.006  10.184  1.00  0.00    -0.200 OA
BRANCH   7  10
HETATM   10  N4  UNL     1      34.341  -4.621  12.343  1.00  0.00    -0.111 N
ATOM     11  H4  UNL     1      33.891  -4.329  13.210  1.00  0.00     0.197 HD
BRANCH  10  12
HETATM   12  C9  UNL     1      34.174  -5.833  11.961  1.00  0.00     0.707 A
HETATM   13  N5  UNL     1      35.047  -6.758  11.544  1.00  0.00    -0.185 N
HETATM   14  C10 UNL     1      34.382  -7.905  11.244  1.00  0.00     0.215 A
ATOM     15  H5  UNL     1      36.055  -6.623  11.463  1.00  0.00     0.185 HD
HETATM   16  N6  UNL     1      33.090  -7.633  11.496  1.00  0.00    -0.281 N
HETATM   17  N7  UNL     1      32.958  -6.407  11.921  1.00  0.00    -0.130 N
ATOM     18  H6  UNL     1      32.322  -8.293  11.372  1.00  0.00     0.188 HD
ATOM     19  H7  UNL     1      32.079  -5.959  12.179  1.00  0.00     0.205 HD
ENDBRANCH  10  12
ENDBRANCH   7  10
ENDBRANCH   6   7
BRANCH   1  20
HETATM   20  C2  UNL     1      36.717  -0.677  11.846  1.00  0.00     0.259 C
HETATM   21  N3  UNL     1      35.919   0.265  12.599  1.00  0.00    -0.299 N
HETATM   22  C1  UNL     1      36.513   1.255  13.141  1.00  0.00     0.203 C
ATOM     23  H3  UNL     1      34.911   0.141  12.694  1.00  0.00     0.171 HD
HETATM   24  N1  UNL     1      35.740   2.195  13.889  1.00  0.00    -0.066 NA
HETATM   25  N2  UNL     1      37.898   1.417  13.009  1.00  0.00    -0.066 NA
HETATM   26  O1  UNL     1      36.915  -0.485  10.650  1.00  0.00    -0.267 OA
ENDBRANCH   1  20
TORSDOF 4
ENDMDL