MODEL 4
REMARK VINA RESULT: -5.640214902      1.624      2.111
REMARK  8 active torsions:
REMARK  status: ('A' for Active; 'I' for Inactive)
REMARK    1  A    between atoms: C3_3  and  C4_4
REMARK    2  A    between atoms: C4_4  and  C5_5
REMARK    3  A    between atoms: N2_12  and  O1_13
REMARK    4  A    between atoms: C10_15  and  N3_16
REMARK    5  A    between atoms: N3_16  and  C11_18
REMARK    6  A    between atoms: C11_18  and  C12_19
REMARK    7  A    between atoms: C14_23  and  N5_24
REMARK    8  A    between atoms: N6_27  and  O2_28
ROOT
HETATM    1  C1  UNL     1      39.047  -1.307  12.610  1.00  0.00     0.012 C
HETATM    2  C2  UNL     1      38.393  -1.917  13.421  1.00  0.00    -0.114 C
HETATM    3  C3  UNL     1      37.561  -2.673  14.411  1.00  0.00     0.121 C
ENDROOT
BRANCH   3   4
HETATM    4  C4  UNL     1      36.239  -2.939  13.828  1.00  0.00     0.001 C
BRANCH   4   5
HETATM    5  C5  UNL     1      36.011  -3.388  12.618  1.00  0.00     0.021 A
HETATM    6  C6  UNL     1      35.640  -2.736  11.465  1.00  0.00     0.036 A
HETATM    7  C7  UNL     1      35.407  -1.458  11.283  1.00  0.00     0.044 C
HETATM    8  N1  UNL     1      35.545  -3.671  10.460  1.00  0.00    -0.338 N
HETATM    9  C8  UNL     1      35.836  -4.871  10.930  1.00  0.00     0.183 A
ATOM     10  H1  UNL     1      35.287  -3.467   9.494  1.00  0.00     0.167 HD
HETATM   11  C9  UNL     1      36.134  -4.750  12.281  1.00  0.00     0.140 A
HETATM   12  N6  UNL     1      35.857  -6.021  10.195  1.00  0.00    -0.033 N
HETATM   13  N2  UNL     1      36.451  -5.735  13.148  1.00  0.00    -0.048 N
HETATM   14  C10 UNL     1      37.190  -6.826  12.849  1.00  0.00     0.719 C
HETATM   15  N4  UNL     1      37.294  -7.390  11.629  1.00  0.00    -0.018 N
HETATM   16  C14 UNL     1      36.574  -7.128  10.500  1.00  0.00     0.718 C
ATOM     17  H4  UNL     1      38.008  -8.112  11.537  1.00  0.00     0.203 HD
BRANCH  13  18
HETATM   18  O1  UNL     1      35.946  -5.598  14.410  1.00  0.00    -0.269 OA
ATOM     19  H1  UNL     1      36.566  -5.320  15.074  1.00  0.00     0.245 HD
ENDBRANCH  13  18
BRANCH  14  20
HETATM   20  N3  UNL     1      37.814  -7.326  13.846  1.00  0.00    -0.223 N
ATOM     21  H3  UNL     1      37.270  -7.831  14.547  1.00  0.00     0.177 HD
BRANCH  20  22
HETATM   22  C11 UNL     1      39.227  -7.223  14.039  1.00  0.00     0.138 C
BRANCH  22  23
HETATM   23  C12 UNL     1      39.519  -5.904  14.733  1.00  0.00     0.016 C
HETATM   24  C13 UNL     1      40.373  -5.097  13.768  1.00  0.00     0.006 C
ENDBRANCH  22  23
ENDBRANCH  20  22
ENDBRANCH  14  20
BRANCH  16  25
HETATM   25  N5  UNL     1      36.564  -8.044   9.595  1.00  0.00    -0.232 N
ATOM     26  H52 UNL     1      35.897  -8.799   9.757  1.00  0.00     0.174 HD
ATOM     27  H51 UNL     1      37.215  -7.928   8.818  1.00  0.00     0.174 HD
ENDBRANCH  16  25
BRANCH  12  28
HETATM   28  O2  UNL     1      35.082  -5.997   9.075  1.00  0.00    -0.268 OA
ATOM     29  H2  UNL     1      35.408  -6.522   8.354  1.00  0.00     0.246 HD
ENDBRANCH  12  28
ENDBRANCH   4   5
ENDBRANCH   3   4
TORSDOF 8
ENDMDL