MODEL 5
REMARK VINA RESULT: -5.808194951      0.620      1.108
REMARK  4 active torsions:
REMARK  status: ('A' for Active; 'I' for Inactive)
REMARK       I    between atoms: C2_4  and  N2_5
REMARK       I    between atoms: C2_4  and  N4_14
REMARK    1  A    between atoms: N2_5  and  C3_7
REMARK    2  A    between atoms: N4_14  and  S1_16
REMARK    3  A    between atoms: S1_16  and  N5_19
REMARK    4  A    between atoms: N5_19  and  S2_21
ROOT
HETATM    1  C1  UNL     1      38.053  -4.483  14.926  1.00  0.00     0.165 C
HETATM    2  N1  UNL     1      37.022  -4.894  14.012  1.00  0.00    -0.230 N
ATOM      3  H1  UNL     1      37.002  -5.868  13.707  1.00  0.00     0.177 HD
HETATM    4  C2  UNL     1      36.123  -4.090  13.557  1.00  0.00     0.690 C
HETATM    5  N2  UNL     1      36.163  -2.742  13.986  1.00  0.00    -0.176 N
ATOM      6  H2  UNL     1      35.542  -2.468  14.747  1.00  0.00     0.186 HD
HETATM    7  N4  UNL     1      35.121  -4.540  12.658  1.00  0.00    -0.099 N
ATOM      8  H4  UNL     1      34.132  -4.440  12.888  1.00  0.00     0.199 HD
ENDROOT
BRANCH   5   9
HETATM    9  C3  UNL     1      36.932  -1.832  13.480  1.00  0.00     0.120 A
HETATM   10  C4  UNL     1      37.807  -1.162  14.297  1.00  0.00     0.049 A
HETATM   11  C5  UNL     1      38.622  -0.200  13.769  1.00  0.00     0.005 A
HETATM   12  C6  UNL     1      38.557   0.084  12.432  1.00  0.00     0.017 A
HETATM   13  C7  UNL     1      37.653  -0.626  11.653  1.00  0.00     0.089 A
HETATM   14  N3  UNL     1      36.867  -1.556  12.173  1.00  0.00    -0.352 N
ATOM     15  H3  UNL     1      36.212  -2.061  11.577  1.00  0.00     0.166 HD
ENDBRANCH   5   9
BRANCH   7  16
HETATM   16  S1  UNL     1      35.605  -5.252  11.185  1.00  0.00     0.345 S
HETATM   17  O1  UNL     1      36.958  -5.898  11.317  1.00  0.00    -0.181 OA
HETATM   18  O2  UNL     1      35.668  -4.227  10.063  1.00  0.00    -0.181 OA
BRANCH  16  19
HETATM   19  N5  UNL     1      34.517  -6.479  10.639  1.00  0.00    -0.194 N
ATOM     20  H5  UNL     1      34.249  -6.673   9.674  1.00  0.00     0.193 HD
BRANCH  19  21
HETATM   21  S2  UNL     1      33.971  -7.314  12.051  1.00  0.00     0.236 S
HETATM   22  C8  UNL     1      33.598  -9.011  11.699  1.00  0.00     0.186 C
HETATM   23  O3  UNL     1      35.072  -7.306  13.080  1.00  0.00    -0.205 OA
HETATM   24  O4  UNL     1      32.809  -6.595  12.642  1.00  0.00    -0.205 OA
ENDBRANCH  19  21
ENDBRANCH  16  19
ENDBRANCH   7  16
TORSDOF 4
ENDMDL