MODEL 1
REMARK VINA RESULT: -6.413199695      0.000      0.000
REMARK  7 active torsions:
REMARK  status: ('A' for Active; 'I' for Inactive)
REMARK       I    between atoms: C2_2  and  N1_4
REMARK    1  A    between atoms: N1_4  and  C3_6
REMARK    2  A    between atoms: C3_6  and  C5_9
REMARK       I    between atoms: C5_9  and  N3_11
REMARK    3  A    between atoms: N3_11  and  C6_13
REMARK    4  A    between atoms: C6_13  and  N4_14
REMARK       I    between atoms: N4_14  and  C7_16
REMARK    5  A    between atoms: C7_16  and  O4_18
REMARK    6  A    between atoms: O4_18  and  C8_19
REMARK    7  A    between atoms: C12_23  and  O5_25
ROOT
HETATM    1  C3  UNL     1      35.187  -5.809  11.329  1.00  0.00     0.285 C
HETATM    2  C4  UNL     1      33.964  -6.280  11.975  1.00  0.00     0.094 C
HETATM    3  N2  UNL     1      32.970  -6.645  12.483  1.00  0.00    -0.195 NA
ENDROOT
BRANCH   1   4
HETATM    4  N1  UNL     1      35.156  -6.145   9.961  1.00  0.00    -0.337 N
HETATM    5  C2  UNL     1      36.123  -6.980   9.426  1.00  0.00     0.215 C
HETATM    6  C1  UNL     1      36.142  -7.375   7.975  1.00  0.00     0.117 C
HETATM    7  O1  UNL     1      37.005  -7.426  10.129  1.00  0.00    -0.274 OA
ATOM      8  H1  UNL     1      34.418  -5.773   9.363  1.00  0.00     0.164 HD
ENDBRANCH   1   4
BRANCH   1   9
HETATM    9  C5  UNL     1      35.376  -4.339  11.558  1.00  0.00     0.260 C
HETATM   10  O2  UNL     1      35.239  -3.615  10.509  1.00  0.00    -0.270 OA
HETATM   11  N3  UNL     1      35.666  -3.707  12.731  1.00  0.00    -0.307 N
ATOM     12  H3  UNL     1      34.852  -3.316  13.205  1.00  0.00     0.170 HD
BRANCH  11  13
HETATM   13  C6  UNL     1      36.802  -3.508  13.365  1.00  0.00     0.161 C
HETATM   14  C12 UNL     1      37.082  -4.485  14.394  1.00  0.00     0.194 C
HETATM   15  N5  UNL     1      38.176  -4.607  15.253  1.00  0.00    -0.071 NA
BRANCH  13  16
HETATM   16  N4  UNL     1      37.572  -2.439  13.001  1.00  0.00    -0.285 N
HETATM   17  C7  UNL     1      37.344  -1.207  12.393  1.00  0.00     0.367 C
HETATM   18  O3  UNL     1      36.218  -0.836  12.028  1.00  0.00    -0.238 OA
ATOM     19  H4  UNL     1      38.556  -2.578  13.232  1.00  0.00     0.172 HD
BRANCH  17  20
HETATM   20  O4  UNL     1      38.371  -0.278  12.138  1.00  0.00    -0.294 OA
BRANCH  20  21
HETATM   21  C8  UNL     1      38.657   0.765  13.046  1.00  0.00     0.061 C
HETATM   22  C9  UNL     1      37.557   1.771  13.192  1.00  0.00     0.046 C
HETATM   23  C10 UNL     1      39.921   1.454  12.558  1.00  0.00     0.046 C
HETATM   24  C11 UNL     1      38.989   0.212  14.421  1.00  0.00     0.046 C
ENDBRANCH  20  21
ENDBRANCH  17  20
ENDBRANCH  13  16
BRANCH  14  25
HETATM   25  O5  UNL     1      36.193  -5.432  14.589  1.00  0.00    -0.346 OA
ATOM     26  H5  UNL     1      35.279  -5.210  14.457  1.00  0.00     0.219 HD
ENDBRANCH  14  25
ENDBRANCH  11  13
ENDBRANCH   1   9
TORSDOF 7
ENDMDL