MODEL 4
REMARK VINA RESULT: -6.263122464      2.727      6.816
REMARK  5 active torsions:
REMARK  status: ('A' for Active; 'I' for Inactive)
REMARK       I    between atoms: C2_2  and  N1_4
REMARK    1  A    between atoms: N1_4  and  S1_6
REMARK    2  A    between atoms: S1_6  and  N2_9
REMARK    3  A    between atoms: N2_9  and  C3_11
REMARK    4  A    between atoms: C6_14  and  S2_15
REMARK    5  A    between atoms: S2_15  and  N3_16
ROOT
HETATM    1  C3  UNL     1      35.835  -2.222  12.609  1.00  0.00     0.130 A
HETATM    2  C4  UNL     1      35.649  -2.810  11.380  1.00  0.00     0.053 A
HETATM    3  C5  UNL     1      35.148  -4.113  11.277  1.00  0.00     0.049 A
HETATM    4  C6  UNL     1      34.862  -4.748  12.472  1.00  0.00     0.163 A
HETATM    5  N4  UNL     1      35.060  -4.135  13.642  1.00  0.00    -0.287 N
ATOM      6  H4  UNL     1      34.837  -4.640  14.499  1.00  0.00     0.188 HD
HETATM    7  N5  UNL     1      35.534  -2.900  13.740  1.00  0.00    -0.284 N
ATOM      8  H5  UNL     1      35.670  -2.468  14.654  1.00  0.00     0.188 HD
ENDROOT
BRANCH   1   9
HETATM    9  N2  UNL     1      36.290  -1.034  12.709  1.00  0.00    -0.252 N
ATOM     10  H2  UNL     1      35.707  -0.288  12.331  1.00  0.00     0.182 HD
BRANCH   9  11
HETATM   11  S1  UNL     1      37.764  -0.570  13.405  1.00  0.00     0.327 S
HETATM   12  O2  UNL     1      37.893  -0.923  14.845  1.00  0.00    -0.182 OA
HETATM   13  O3  UNL     1      38.877  -1.308  12.673  1.00  0.00    -0.182 OA
BRANCH  11  14
HETATM   14  N1  UNL     1      38.019   1.118  13.156  1.00  0.00    -0.237 N
HETATM   15  C2  UNL     1      36.937   2.016  13.359  1.00  0.00     0.228 C
HETATM   16  C1  UNL     1      37.179   3.465  13.140  1.00  0.00     0.118 C
HETATM   17  O1  UNL     1      35.805   1.606  13.712  1.00  0.00    -0.273 OA
ATOM     18  H1  UNL     1      38.934   1.465  12.868  1.00  0.00     0.183 HD
ENDBRANCH  11  14
ENDBRANCH   9  11
ENDBRANCH   1   9
BRANCH   4  19
HETATM   19  S2  UNL     1      34.233  -6.381  12.424  1.00  0.00     0.273 S
HETATM   20  O4  UNL     1      35.160  -7.173  11.530  1.00  0.00    -0.199 OA
HETATM   21  O5  UNL     1      34.281  -6.941  13.823  1.00  0.00    -0.199 OA
BRANCH  19  22
HETATM   22  N3  UNL     1      32.640  -6.401  11.788  1.00  0.00    -0.323 N
ATOM     23  H32 UNL     1      32.238  -5.640  11.241  1.00  0.00     0.169 HD
ATOM     24  H31 UNL     1      32.163  -7.268  12.033  1.00  0.00     0.169 HD
ENDBRANCH  19  22
ENDBRANCH   4  19
TORSDOF 5
ENDMDL