MODEL 1
REMARK VINA RESULT: -6.601226607      0.000      0.000
REMARK  5 active torsions:
REMARK  status: ('A' for Active; 'I' for Inactive)
REMARK    1  A    between atoms: C3_3  and  N1_4
REMARK    2  A    between atoms: C3_3  and  C4_8
REMARK       I    between atoms: C4_8  and  N2_10
REMARK    3  A    between atoms: N2_10  and  C5_12
REMARK    4  A    between atoms: C9_18  and  C10_19
REMARK       I    between atoms: C10_19  and  N4_21
REMARK    5  A    between atoms: N4_21  and  S1_23
ROOT
HETATM    1  C1  UNL     1      40.528  -1.497  12.916  1.00  0.00     0.015 C
HETATM    2  C2  UNL     1      40.067  -1.788  13.993  1.00  0.00    -0.075 C
HETATM    3  C3  UNL     1      39.489  -2.119  15.305  1.00  0.00     0.352 C
ENDROOT
BRANCH   3   4
HETATM    4  N1  UNL     1      39.359  -0.952  16.137  1.00  0.00    -0.056 N
ATOM      5  H13 UNL     1      40.253  -0.476  16.254  1.00  0.00     0.276 HD
ATOM      6  H12 UNL     1      38.845  -0.211  15.660  1.00  0.00     0.276 HD
ATOM      7  H11 UNL     1      38.937  -1.178  17.038  1.00  0.00     0.276 HD
ENDBRANCH   3   4
BRANCH   3   8
HETATM    8  C4  UNL     1      38.187  -2.794  15.075  1.00  0.00     0.265 C
HETATM    9  O1  UNL     1      38.065  -3.978  15.476  1.00  0.00    -0.270 OA
HETATM   10  N2  UNL     1      37.102  -2.154  14.432  1.00  0.00    -0.310 N
ATOM     11  H2  UNL     1      36.671  -1.383  14.941  1.00  0.00     0.170 HD
BRANCH  10  12
HETATM   12  C5  UNL     1      36.604  -2.421  13.306  1.00  0.00     0.123 A
HETATM   13  N3  UNL     1      36.291  -3.736  13.063  1.00  0.00    -0.351 N
HETATM   14  C6  UNL     1      35.739  -4.141  11.909  1.00  0.00     0.090 A
ATOM     15  H3  UNL     1      36.485  -4.429  13.784  1.00  0.00     0.166 HD
HETATM   16  C7  UNL     1      35.476  -3.196  10.929  1.00  0.00     0.018 A
HETATM   17  C8  UNL     1      35.774  -1.878  11.135  1.00  0.00     0.022 A
HETATM   18  C9  UNL     1      36.356  -1.476  12.360  1.00  0.00     0.077 A
BRANCH  18  19
HETATM   19  C10 UNL     1      36.688  -0.077  12.553  1.00  0.00     0.268 C
HETATM   20  O2  UNL     1      37.686   0.351  11.846  1.00  0.00    -0.267 OA
HETATM   21  N4  UNL     1      36.110   0.872  13.375  1.00  0.00    -0.250 N
ATOM     22  H4  UNL     1      35.322   0.623  13.971  1.00  0.00     0.181 HD
BRANCH  21  23
HETATM   23  S1  UNL     1      36.740   2.503  13.386  1.00  0.00     0.229 S
HETATM   24  C11 UNL     1      38.377   2.505  14.086  1.00  0.00     0.186 C
HETATM   25  O3  UNL     1      35.847   3.313  14.272  1.00  0.00    -0.206 OA
HETATM   26  O4  UNL     1      36.745   3.087  12.006  1.00  0.00    -0.206 OA
ENDBRANCH  21  23
ENDBRANCH  18  19
ENDBRANCH  10  12
ENDBRANCH   3   8
TORSDOF 5
ENDMDL