MODEL 4
REMARK VINA RESULT: -6.009559589      2.246     10.937
REMARK  8 active torsions:
REMARK  status: ('A' for Active; 'I' for Inactive)
REMARK    1  A    between atoms: C3_3  and  N1_4
REMARK    2  A    between atoms: N1_4  and  C4_6
REMARK    3  A    between atoms: C6_10  and  C7_11
REMARK    4  A    between atoms: C8_12  and  C9_13
REMARK    5  A    between atoms: C12_16  and  N3_17
REMARK    6  A    between atoms: N3_17  and  C13_19
REMARK    7  A    between atoms: C13_19  and  C14_20
REMARK    8  A    between atoms: C14_20  and  N4_21
ROOT
HETATM    1  C1  UNL     1      33.977 -11.627   7.075  1.00  0.00     0.014 C
HETATM    2  C2  UNL     1      33.304 -11.762   8.066  1.00  0.00    -0.097 C
HETATM    3  C3  UNL     1      32.471 -11.906   9.267  1.00  0.00     0.231 C
ENDROOT
BRANCH   3   4
HETATM    4  N1  UNL     1      33.270 -11.687  10.456  1.00  0.00    -0.214 N
ATOM      5  H1  UNL     1      33.509 -12.458  11.080  1.00  0.00     0.178 HD
BRANCH   4   6
HETATM    6  C4  UNL     1      33.675 -10.470  10.701  1.00  0.00     0.693 A
HETATM    7  N2  UNL     1      34.935 -10.087  10.463  1.00  0.00    -0.198 N
HETATM    8  C5  UNL     1      35.355  -8.822  10.717  1.00  0.00     0.146 A
ATOM      9  H2  UNL     1      35.597 -10.763  10.081  1.00  0.00     0.183 HD
HETATM   10  C6  UNL     1      34.443  -7.925  11.235  1.00  0.00     0.118 A
HETATM   11  N6  UNL     1      33.205  -8.356  11.453  1.00  0.00    -0.277 N
HETATM   12  N7  UNL     1      32.812  -9.582  11.202  1.00  0.00    -0.131 N
ATOM     13  H6  UNL     1      32.526  -7.699  11.835  1.00  0.00     0.188 HD
ATOM     14  H7  UNL     1      31.847  -9.856  11.389  1.00  0.00     0.205 HD
BRANCH  10  15
HETATM   15  C7  UNL     1      34.782  -6.564  11.540  1.00  0.00    -0.041 C
HETATM   16  C8  UNL     1      35.085  -5.404  11.785  1.00  0.00    -0.059 C
BRANCH  16  17
HETATM   17  C9  UNL     1      35.462  -4.049  12.059  1.00  0.00     0.033 A
HETATM   18  C10 UNL     1      35.417  -3.094  11.066  1.00  0.00     0.026 A
HETATM   19  C11 UNL     1      35.790  -1.781  11.360  1.00  0.00     0.050 A
HETATM   20  C12 UNL     1      36.204  -1.406  12.622  1.00  0.00     0.100 A
HETATM   21  N5  UNL     1      36.237  -2.363  13.567  1.00  0.00    -0.351 N
HETATM   22  C15 UNL     1      35.885  -3.639  13.319  1.00  0.00     0.110 A
ATOM     23  H5  UNL     1      36.541  -2.113  14.508  1.00  0.00     0.166 HD
BRANCH  20  24
HETATM   24  N3  UNL     1      36.556  -0.200  12.927  1.00  0.00    -0.375 N
ATOM     25  H3  UNL     1      35.934   0.345  13.525  1.00  0.00     0.161 HD
BRANCH  24  26
HETATM   26  C13 UNL     1      37.766   0.415  12.475  1.00  0.00     0.148 C
BRANCH  26  27
HETATM   27  C14 UNL     1      37.890   1.815  13.072  1.00  0.00     0.249 C
BRANCH  27  28
HETATM   28  N4  UNL     1      36.613   2.412  13.316  1.00  0.00    -0.078 N
ATOM     29  H43 UNL     1      36.504   3.280  12.791  1.00  0.00     0.274 HD
ATOM     30  H42 UNL     1      35.863   1.869  12.887  1.00  0.00     0.274 HD
ATOM     31  H41 UNL     1      36.441   2.558  14.311  1.00  0.00     0.274 HD
ENDBRANCH  27  28
ENDBRANCH  26  27
ENDBRANCH  24  26
ENDBRANCH  20  24
ENDBRANCH  16  17
ENDBRANCH  10  15
ENDBRANCH   4   6
ENDBRANCH   3   4
TORSDOF 8
ENDMDL