MODEL 3
REMARK VINA RESULT: -6.422878672      1.831      2.988
REMARK  5 active torsions:
REMARK  status: ('A' for Active; 'I' for Inactive)
REMARK       I    between atoms: N1_2  and  C2_4
REMARK    1  A    between atoms: C2_4  and  C3_6
REMARK    2  A    between atoms: C6_9  and  N2_10
REMARK       I    between atoms: N2_10  and  C7_12
REMARK    3  A    between atoms: C7_12  and  C8_14
REMARK       I    between atoms: N3_16  and  C10_18
REMARK    4  A    between atoms: C10_18  and  C11_20
REMARK    5  A    between atoms: C11_20  and  N4_22
ROOT
HETATM    1  N2  UNL     1      34.515  -7.045  13.308  1.00  0.00    -0.307 N
ATOM      2  H2  UNL     1      34.492  -7.293  14.297  1.00  0.00     0.170 HD
HETATM    3  C7  UNL     1      34.230  -8.045  12.350  1.00  0.00     0.269 C
HETATM    4  O2  UNL     1      33.134  -8.016  11.743  1.00  0.00    -0.266 OA
ENDROOT
BRANCH   1   5
HETATM    5  C6  UNL     1      34.801  -5.841  12.984  1.00  0.00     0.122 A
HETATM    6  C5  UNL     1      35.622  -5.093  13.805  1.00  0.00     0.052 A
HETATM    7  C4  UNL     1      35.969  -3.779  13.508  1.00  0.00     0.040 A
HETATM    8  C3  UNL     1      35.463  -3.236  12.353  1.00  0.00     0.116 A
HETATM    9  N6  UNL     1      34.666  -3.997  11.580  1.00  0.00    -0.294 N
HETATM   10  N5  UNL     1      34.343  -5.245  11.872  1.00  0.00    -0.285 N
ATOM     11  H6  UNL     1      34.292  -3.589  10.722  1.00  0.00     0.187 HD
ATOM     12  H5  UNL     1      33.733  -5.765  11.241  1.00  0.00     0.188 HD
BRANCH   8  13
HETATM   13  C2  UNL     1      35.800  -1.867  12.004  1.00  0.00     0.269 C
HETATM   14  N1  UNL     1      36.471  -0.969  12.865  1.00  0.00    -0.360 N
HETATM   15  C1  UNL     1      36.775   0.386  12.448  1.00  0.00     0.149 C
ATOM     16  H1  UNL     1      36.746  -1.280  13.797  1.00  0.00     0.162 HD
HETATM   17  O1  UNL     1      35.469  -1.446  10.842  1.00  0.00    -0.266 OA
ENDBRANCH   8  13
ENDBRANCH   1   5
BRANCH   3  18
HETATM   18  C8  UNL     1      35.224  -9.077  12.104  1.00  0.00     0.076 C
HETATM   19  C9  UNL     1      35.177 -10.375  12.853  1.00  0.00     0.074 C
HETATM   20  N3  UNL     1      36.138  -8.874  11.247  1.00  0.00    -0.324 N
HETATM   21  C10 UNL     1      36.336  -7.727  10.458  1.00  0.00     0.252 C
ATOM     22  H3  UNL     1      36.808  -9.632  11.115  1.00  0.00     0.169 HD
HETATM   23  O3  UNL     1      36.992  -6.762  10.914  1.00  0.00    -0.271 OA
BRANCH  21  24
HETATM   24  C11 UNL     1      35.772  -7.667   9.097  1.00  0.00     0.271 C
HETATM   25  C12 UNL     1      35.747  -6.211   8.660  1.00  0.00     0.050 C
BRANCH  24  26
HETATM   26  N4  UNL     1      36.628  -8.434   8.217  1.00  0.00    -0.067 N
ATOM     27  H43 UNL     1      36.181  -8.654   7.326  1.00  0.00     0.275 HD
ATOM     28  H42 UNL     1      37.406  -7.887   7.849  1.00  0.00     0.275 HD
ATOM     29  H41 UNL     1      36.936  -9.267   8.718  1.00  0.00     0.275 HD
ENDBRANCH  24  26
ENDBRANCH  21  24
ENDBRANCH   3  18
TORSDOF 5
ENDMDL