MODEL 2
REMARK VINA RESULT: -5.982838474      7.109     10.553
REMARK  4 active torsions:
REMARK  status: ('A' for Active; 'I' for Inactive)
REMARK       I    between atoms: N2_3  and  C2_5
REMARK    1  A    between atoms: N4_7  and  S1_9
REMARK    2  A    between atoms: S1_9  and  C3_12
REMARK    3  A    between atoms: C8_17  and  S2_18
REMARK    4  A    between atoms: S2_18  and  N5_19
ROOT
HETATM    1  N1  UNL     1      35.288  -2.498  10.772  1.00  0.00    -0.172 NA
HETATM    2  C1  UNL     1      35.533  -1.865  11.716  1.00  0.00     0.184 C
HETATM    3  N2  UNL     1      35.822  -1.114  12.861  1.00  0.00    -0.267 N
ATOM      4  H2  UNL     1      35.627  -1.485  13.791  1.00  0.00     0.180 HD
HETATM    5  C2  UNL     1      36.384   0.157  12.701  1.00  0.00     0.211 C
HETATM    6  N3  UNL     1      37.176   0.467  11.558  1.00  0.00    -0.062 NA
HETATM    7  N4  UNL     1      36.188   1.048  13.584  1.00  0.00    -0.253 N
ATOM      8  H4  UNL     1      35.621   0.831  14.404  1.00  0.00     0.181 HD
ENDROOT
BRANCH   7   9
HETATM    9  S1  UNL     1      36.887   2.655  13.404  1.00  0.00     0.266 S
HETATM   10  O1  UNL     1      36.756   2.917  11.930  1.00  0.00    -0.200 OA
HETATM   11  O2  UNL     1      35.977   3.515  14.229  1.00  0.00    -0.200 OA
BRANCH   9  12
HETATM   12  C3  UNL     1      38.506   2.560  13.969  1.00  0.00     0.103 A
HETATM   13  C4  UNL     1      38.997   1.446  14.644  1.00  0.00     0.027 A
HETATM   14  C5  UNL     1      40.280   1.349  15.098  1.00  0.00     0.002 A
HETATM   15  C6  UNL     1      41.120   2.406  14.872  1.00  0.00     0.002 A
HETATM   16  C7  UNL     1      40.652   3.506  14.211  1.00  0.00     0.027 A
HETATM   17  C8  UNL     1      39.345   3.638  13.733  1.00  0.00     0.102 A
BRANCH  17  18
HETATM   18  S2  UNL     1      38.930   5.071  12.938  1.00  0.00     0.258 S
HETATM   19  O3  UNL     1      39.973   6.132  13.284  1.00  0.00    -0.201 OA
HETATM   20  O4  UNL     1      37.613   5.662  13.173  1.00  0.00    -0.201 OA
BRANCH  18  21
HETATM   21  N5  UNL     1      39.099   4.869  11.222  1.00  0.00    -0.324 N
ATOM     22  H52 UNL     1      38.325   4.925  10.560  1.00  0.00     0.169 HD
ATOM     23  H51 UNL     1      40.074   4.689  10.987  1.00  0.00     0.169 HD
ENDBRANCH  18  21
ENDBRANCH  17  18
ENDBRANCH   9  12
ENDBRANCH   7   9
TORSDOF 4
ENDMDL