MODEL 3
REMARK VINA RESULT: -5.465837511      1.345      1.667
REMARK  4 active torsions:
REMARK  status: ('A' for Active; 'I' for Inactive)
REMARK    1  A    between atoms: C2_2  and  N1_3
REMARK    2  A    between atoms: C2_2  and  C3_7
REMARK       I    between atoms: C3_7  and  N2_9
REMARK    3  A    between atoms: C7_19  and  C8_20
REMARK    4  A    between atoms: C8_20  and  C11_23
ROOT
HETATM    1  C3  UNL     1      35.959  -8.286   9.427  1.00  0.00     0.253 C
HETATM    2  O1  UNL     1      35.191  -9.249   9.767  1.00  0.00    -0.271 OA
HETATM    3  N2  UNL     1      36.259  -7.205  10.257  1.00  0.00    -0.314 N
ATOM      4  H2  UNL     1      36.208  -6.274   9.844  1.00  0.00     0.170 HD
HETATM    5  C4  UNL     1      36.593  -7.279  11.500  1.00  0.00     0.100 C
HETATM    6  N3  UNL     1      36.696  -8.511  12.185  1.00  0.00    -0.273 N
ATOM      7  H3  UNL     1      36.228  -9.384  11.941  1.00  0.00     0.180 HD
HETATM    8  S1  UNL     1      37.770  -8.250  13.518  1.00  0.00     0.236 S
HETATM    9  O2  UNL     1      37.251  -8.838  14.790  1.00  0.00    -0.205 OA
HETATM   10  O3  UNL     1      39.150  -8.716  13.215  1.00  0.00    -0.205 OA
HETATM   11  C5  UNL     1      37.650  -6.454  13.520  1.00  0.00     0.138 C
HETATM   12  C6  UNL     1      39.108  -5.963  13.460  1.00  0.00     0.029 C
HETATM   13  C7  UNL     1      36.893  -6.115  12.309  1.00  0.00     0.090 C
ENDROOT
BRANCH  13  14
HETATM   14  C8  UNL     1      35.680  -5.225  12.516  1.00  0.00     0.043 C
HETATM   15  C9  UNL     1      35.642  -4.198  11.369  1.00  0.00     0.025 C
HETATM   16  C10 UNL     1      35.788  -4.414  13.778  1.00  0.00     0.025 C
BRANCH  14  17
HETATM   17  C11 UNL     1      34.404  -5.977  12.545  1.00  0.00     0.239 C
HETATM   18  N4  UNL     1      34.078  -6.919  13.550  1.00  0.00    -0.061 NA
HETATM   19  O4  UNL     1      33.513  -5.814  11.647  1.00  0.00    -0.276 OA
ENDBRANCH  14  17
ENDBRANCH  13  14
BRANCH   1  20
HETATM   20  C2  UNL     1      36.537  -8.372   8.067  1.00  0.00     0.271 C
HETATM   21  C1  UNL     1      35.964  -9.534   7.284  1.00  0.00     0.050 C
BRANCH  20  22
HETATM   22  N1  UNL     1      36.363  -7.116   7.399  1.00  0.00    -0.067 N
ATOM     23  H13 UNL     1      35.882  -7.239   6.509  1.00  0.00     0.275 HD
ATOM     24  H12 UNL     1      35.674  -6.538   7.880  1.00  0.00     0.275 HD
ATOM     25  H11 UNL     1      37.241  -6.612   7.275  1.00  0.00     0.275 HD
ENDBRANCH  20  22
ENDBRANCH   1  20
TORSDOF 4
ENDMDL