MODEL 2
REMARK VINA RESULT: -7.470000042      2.062      3.082
REMARK  16 active torsions:
REMARK  status: ('A' for Active; 'I' for Inactive)
REMARK    1  A    between atoms: C2_2  and  C3_3
REMARK    2  A    between atoms: C3_3  and  C4_4
REMARK    3  A    between atoms: C4_4  and  C5_5
REMARK    4  A    between atoms: C5_5  and  C7_7
REMARK    5  A    between atoms: C9_11  and  C10_12
REMARK    6  A    between atoms: C14_19  and  C15_20
REMARK    7  A    between atoms: C15_20  and  C17_22
REMARK    8  A    between atoms: C20_28  and  C21_29
REMARK    9  A    between atoms: C21_29  and  C22_30
REMARK   10  A    between atoms: C25_33  and  O5_34
REMARK   11  A    between atoms: C27_36  and  C28_37
REMARK   12  A    between atoms: C28_37  and  C29_38
REMARK   13  A    between atoms: C29_38  and  C30_39
REMARK   14  A    between atoms: C30_39  and  C31_40
REMARK   15  A    between atoms: C31_40  and  N3_41
REMARK   16  A    between atoms: C33_48  and  O6_49
ROOT
HETATM    1  C7  UNL     1       3.010   4.940  -6.433  1.00  0.00     0.209 C
HETATM    2  O1  UNL     1       3.955   4.279  -7.137  1.00  0.00    -0.306 OA
HETATM    3  C8  UNL     1       4.781   4.259  -8.158  1.00  0.00     0.282 C
HETATM    4  O2  UNL     1       4.658   4.721  -9.362  1.00  0.00    -0.263 OA
HETATM    5  C9  UNL     1       6.111   3.611  -7.999  1.00  0.00     0.187 C
HETATM    6  N1  UNL     1       5.951   2.466  -7.131  1.00  0.00    -0.345 N
ATOM      7  H1  UNL     1       5.777   2.679  -6.149  1.00  0.00     0.163 HD
HETATM    8  C13 UNL     1       6.004   1.108  -7.454  1.00  0.00     0.241 C
HETATM    9  O3  UNL     1       6.696   0.388  -6.630  1.00  0.00    -0.271 OA
HETATM   10  C14 UNL     1       5.406   0.364  -8.571  1.00  0.00     0.180 C
HETATM   11  N2  UNL     1       4.618   1.081  -9.502  1.00  0.00    -0.347 N
ATOM     12  H2  UNL     1       5.115   1.783 -10.050  1.00  0.00     0.163 HD
HETATM   13  C19 UNL     1       3.230   0.956  -9.781  1.00  0.00     0.225 C
HETATM   14  O4  UNL     1       2.873   0.926 -11.002  1.00  0.00    -0.273 OA
HETATM   15  C20 UNL     1       2.143   0.856  -8.796  1.00  0.00     0.109 C
HETATM   16  C25 UNL     1       1.410   2.186  -8.757  1.00  0.00     0.156 C
HETATM   17  C27 UNL     1       0.577   2.349  -7.513  1.00  0.00     0.113 C
HETATM   18  N6  UNL     1       0.841   3.436  -6.644  1.00  0.00    -0.365 N
ATOM     19  H6  UNL     1       0.351   3.326  -5.756  1.00  0.00     0.161 HD
HETATM   20  C33 UNL     1       1.587   4.615  -6.669  1.00  0.00     0.142 C
ENDROOT
BRANCH  17  21
HETATM   21  C28 UNL     1      -0.928   2.341  -7.918  1.00  0.00     0.028 C
BRANCH  21  22
HETATM   22  C29 UNL     1      -1.658   3.514  -7.376  1.00  0.00     0.004 C
BRANCH  22  23
HETATM   23  C30 UNL     1      -2.764   4.073  -8.186  1.00  0.00     0.020 C
BRANCH  23  24
HETATM   24  C31 UNL     1      -4.117   3.723  -7.696  1.00  0.00     0.122 C
BRANCH  24  25
HETATM   25  N3  UNL     1      -4.274   3.492  -6.303  1.00  0.00    -0.367 N
HETATM   26  C32 UNL     1      -5.308   3.837  -5.614  1.00  0.00     0.196 C
HETATM   27  N4  UNL     1      -6.406   4.494  -6.192  1.00  0.00    -0.067 NA
HETATM   28  N5  UNL     1      -5.287   3.516  -4.223  1.00  0.00    -0.067 NA
ATOM     29  H3  UNL     1      -3.515   3.019  -5.813  1.00  0.00     0.161 HD
ENDBRANCH  24  25
ENDBRANCH  23  24
ENDBRANCH  22  23
ENDBRANCH  21  22
ENDBRANCH  17  21
BRANCH  16  30
HETATM   30  O5  UNL     1       0.535   2.234  -9.839  1.00  0.00    -0.388 OA
HETATM   31  C26 UNL     1       0.637   3.431 -10.528  1.00  0.00     0.202 C
ENDBRANCH  16  30
BRANCH  15  32
HETATM   32  C21 UNL     1       1.143  -0.200  -9.038  1.00  0.00     0.020 C
BRANCH  32  33
HETATM   33  C22 UNL     1       1.481  -1.620  -9.022  1.00  0.00    -0.022 C
HETATM   34  C23 UNL     1       2.401  -2.048  -7.922  1.00  0.00     0.009 C
HETATM   35  C24 UNL     1       0.304  -2.564  -9.049  1.00  0.00     0.009 C
ENDBRANCH  32  33
ENDBRANCH  15  32
BRANCH  20  36
HETATM   36  O6  UNL     1       0.926   5.713  -6.961  1.00  0.00    -0.348 OA
ATOM     37  H6  UNL     1      -0.007   5.530  -6.977  1.00  0.00     0.219 HD
ENDBRANCH  20  36
BRANCH   1  38
HETATM   38  C5  UNL     1       3.340   4.836  -4.925  1.00  0.00     0.019 C
HETATM   39  C6  UNL     1       3.804   3.502  -4.495  1.00  0.00     0.013 C
BRANCH  38  40
HETATM   40  C4  UNL     1       2.081   5.147  -4.111  1.00  0.00     0.007 C
BRANCH  40  41
HETATM   41  C3  UNL     1       2.456   6.230  -3.125  1.00  0.00     0.000 C
BRANCH  41  42
HETATM   42  C2  UNL     1       1.689   6.087  -1.824  1.00  0.00    -0.005 C
HETATM   43  C1  UNL     1       0.239   5.793  -2.120  1.00  0.00     0.005 C
ENDBRANCH  41  42
ENDBRANCH  40  41
ENDBRANCH  38  40
ENDBRANCH   1  38
BRANCH  10  44
HETATM   44  C15 UNL     1       6.464  -0.512  -9.279  1.00  0.00     0.013 C
HETATM   45  C16 UNL     1       6.796   0.011 -10.655  1.00  0.00     0.012 C
BRANCH  44  46
HETATM   46  C17 UNL     1       6.059  -1.959  -9.312  1.00  0.00     0.002 C
HETATM   47  C18 UNL     1       5.309  -2.180 -10.626  1.00  0.00     0.005 C
ENDBRANCH  44  46
ENDBRANCH  10  44
BRANCH   5  48
HETATM   48  C10 UNL     1       7.199   4.552  -7.542  1.00  0.00     0.010 C
HETATM   49  C11 UNL     1       6.874   5.430  -6.401  1.00  0.00     0.012 C
HETATM   50  C12 UNL     1       8.462   3.779  -7.168  1.00  0.00     0.012 C
ENDBRANCH   5  48
TORSDOF 16
ENDMDL