MODEL 1
REMARK VINA RESULT: -9.465187222      0.000      0.000
REMARK  16 active torsions:
REMARK  status: ('A' for Active; 'I' for Inactive)
REMARK    1  A    between atoms: C1_2  and  C2_3
REMARK       I    between atoms: C1_2  and  N3_26
REMARK    2  A    between atoms: C2_3  and  N1_4
REMARK    3  A    between atoms: C18_23  and  O3_24
REMARK    4  A    between atoms: N3_26  and  C19_28
REMARK    5  A    between atoms: C19_28  and  C20_29
REMARK    6  A    between atoms: C20_29  and  C21_30
REMARK    7  A    between atoms: C21_30  and  N4_31
REMARK    8  A    between atoms: N4_31  and  C22_34
REMARK    9  A    between atoms: C22_34  and  C23_35
REMARK   10  A    between atoms: C23_35  and  C24_36
REMARK   11  A    between atoms: C24_36  and  C25_37
REMARK   12  A    between atoms: C25_37  and  N5_38
REMARK   13  A    between atoms: N5_38  and  C26_41
REMARK   14  A    between atoms: C26_41  and  C27_42
REMARK   15  A    between atoms: C27_42  and  C28_43
REMARK   16  A    between atoms: C28_43  and  N6_44
ROOT
HETATM    1  O1  UNL     1      -1.802   5.052  -8.377  1.00  0.00    -0.271 OA
HETATM    2  C1  UNL     1      -2.314   5.011  -7.235  1.00  0.00     0.239 C
HETATM    3  N3  UNL     1      -2.201   6.060  -6.332  1.00  0.00    -0.339 N
ATOM      4  H3  UNL     1      -2.694   5.932  -5.448  1.00  0.00     0.167 HD
ENDROOT
BRANCH   3   5
HETATM    5  C19 UNL     1      -1.504   7.274  -6.465  1.00  0.00     0.065 C
BRANCH   5   6
HETATM    6  C20 UNL     1      -1.208   8.081  -5.271  1.00  0.00     0.072 C
BRANCH   6   7
HETATM    7  C21 UNL     1      -2.116   9.165  -4.832  1.00  0.00     0.237 C
BRANCH   7   8
HETATM    8  N4  UNL     1      -3.271   8.545  -4.110  1.00  0.00    -0.075 N
ATOM      9  H42 UNL     1      -4.170   8.772  -4.535  1.00  0.00     0.277 HD
ATOM     10  H41 UNL     1      -3.314   7.533  -4.231  1.00  0.00     0.277 HD
BRANCH   8  11
HETATM   11  C22 UNL     1      -3.192   8.941  -2.718  1.00  0.00     0.232 C
BRANCH  11  12
HETATM   12  C23 UNL     1      -4.140   8.176  -1.857  1.00  0.00     0.029 C
BRANCH  12  13
HETATM   13  C24 UNL     1      -3.512   7.061  -1.079  1.00  0.00     0.029 C
BRANCH  13  14
HETATM   14  C25 UNL     1      -3.655   5.738  -1.826  1.00  0.00     0.232 C
BRANCH  14  15
HETATM   15  N5  UNL     1      -2.453   5.405  -2.580  1.00  0.00    -0.075 N
ATOM     16  H52 UNL     1      -2.497   4.467  -2.979  1.00  0.00     0.277 HD
ATOM     17  H51 UNL     1      -2.387   5.931  -3.451  1.00  0.00     0.277 HD
BRANCH  15  18
HETATM   18  C26 UNL     1      -1.297   5.587  -1.745  1.00  0.00     0.234 C
BRANCH  18  19
HETATM   19  C27 UNL     1      -0.229   6.458  -2.338  1.00  0.00     0.048 C
BRANCH  19  20
HETATM   20  C28 UNL     1       1.104   5.700  -2.381  1.00  0.00     0.137 C
BRANCH  20  21
HETATM   21  N6  UNL     1       1.497   5.547  -3.762  1.00  0.00    -0.280 N
HETATM   22  C29 UNL     1       0.846   4.799  -4.797  1.00  0.00     0.261 A
HETATM   23  O4  UNL     1      -0.231   4.168  -4.621  1.00  0.00    -0.267 OA
HETATM   24  C30 UNL     1       1.646   4.923  -6.005  1.00  0.00     0.048 A
HETATM   25  C31 UNL     1       1.478   4.404  -7.273  1.00  0.00     0.018 A
HETATM   26  C35 UNL     1       2.763   5.715  -5.759  1.00  0.00     0.048 A
HETATM   27  C32 UNL     1       2.378   4.649  -8.275  1.00  0.00     0.001 A
HETATM   28  C33 UNL     1       3.496   5.441  -8.024  1.00  0.00     0.001 A
HETATM   29  C34 UNL     1       3.676   5.973  -6.744  1.00  0.00     0.018 A
HETATM   30  C36 UNL     1       2.682   6.113  -4.361  1.00  0.00     0.261 A
HETATM   31  O5  UNL     1       3.514   6.839  -3.760  1.00  0.00    -0.267 OA
ENDBRANCH  20  21
ENDBRANCH  19  20
ENDBRANCH  18  19
ENDBRANCH  15  18
ENDBRANCH  14  15
ENDBRANCH  13  14
ENDBRANCH  12  13
ENDBRANCH  11  12
ENDBRANCH   8  11
ENDBRANCH   7   8
ENDBRANCH   6   7
ENDBRANCH   5   6
ENDBRANCH   3   5
BRANCH   2  32
HETATM   32  C2  UNL     1      -3.031   3.733  -6.940  1.00  0.00     0.229 C
BRANCH  32  33
HETATM   33  N1  UNL     1      -4.451   3.832  -6.910  1.00  0.00    -0.341 N
HETATM   34  C3  UNL     1      -5.232   3.439  -8.041  1.00  0.00     0.045 A
HETATM   35  C4  UNL     1      -4.547   3.064  -9.210  1.00  0.00     0.030 A
HETATM   36  C8  UNL     1      -6.609   3.371  -8.048  1.00  0.00     0.018 A
HETATM   37  C5  UNL     1      -5.303   2.648 -10.293  1.00  0.00     0.002 A
HETATM   38  C6  UNL     1      -6.666   2.585 -10.285  1.00  0.00     0.001 A
HETATM   39  C7  UNL     1      -7.361   2.960  -9.121  1.00  0.00     0.016 A
HETATM   40  C9  UNL     1      -7.296   3.766  -6.792  1.00  0.00     0.060 A
HETATM   41  N2  UNL     1      -8.637   3.730  -6.711  1.00  0.00    -0.354 N
HETATM   42  C17 UNL     1      -6.564   4.171  -5.706  1.00  0.00     0.069 A
HETATM   43  C10 UNL     1      -9.227   4.102  -5.542  1.00  0.00     0.046 A
ATOM     44  H2  UNL     1      -9.199   3.430  -7.507  1.00  0.00     0.166 HD
HETATM   45  C11 UNL     1     -10.614   4.068  -5.453  1.00  0.00     0.030 A
HETATM   46  C15 UNL     1      -8.536   4.513  -4.436  1.00  0.00     0.041 A
HETATM   47  C12 UNL     1     -11.277   4.431  -4.299  1.00  0.00     0.002 A
HETATM   48  C13 UNL     1     -10.581   4.843  -3.190  1.00  0.00     0.001 A
HETATM   49  C14 UNL     1      -9.204   4.882  -3.266  1.00  0.00     0.018 A
HETATM   50  C16 UNL     1      -7.165   4.549  -4.519  1.00  0.00     0.197 A
HETATM   51  O2  UNL     1      -6.492   4.926  -3.511  1.00  0.00    -0.287 OA
HETATM   52  C18 UNL     1      -5.082   4.255  -5.703  1.00  0.00     0.261 A
BRANCH  52  53
HETATM   53  O3  UNL     1      -4.610   3.752  -4.522  1.00  0.00    -0.372 OA
ATOM     54  H3  UNL     1      -4.445   4.362  -3.812  1.00  0.00     0.212 HD
ENDBRANCH  52  53
ENDBRANCH  32  33
ENDBRANCH   2  32
TORSDOF 16
ENDMDL