MODEL 2
REMARK VINA RESULT: -9.508629988      1.925      3.630
REMARK  18 active torsions:
REMARK  status: ('A' for Active; 'I' for Inactive)
REMARK    1  A    between atoms: C2_2  and  C4_4
REMARK    2  A    between atoms: C4_4  and  C5_5
REMARK    3  A    between atoms: C5_5  and  N1_6
REMARK    4  A    between atoms: N1_6  and  C7_8
REMARK    5  A    between atoms: N1_6  and  C30_47
REMARK    6  A    between atoms: C7_8  and  C8_9
REMARK    7  A    between atoms: C8_9  and  C9_10
REMARK    8  A    between atoms: C9_10  and  C10_11
REMARK    9  A    between atoms: C10_11  and  N2_12
REMARK   10  A    between atoms: N2_12  and  C11_14
REMARK   11  A    between atoms: C12_17  and  N4_18
REMARK   12  A    between atoms: N4_18  and  C13_20
REMARK   13  A    between atoms: C13_20  and  C14_21
REMARK   14  A    between atoms: C19_30  and  N6_31
REMARK       I    between atoms: N6_31  and  C20_33
REMARK   15  A    between atoms: C20_33  and  C21_35
REMARK   16  A    between atoms: C30_47  and  C31_48
REMARK   17  A    between atoms: C31_48  and  C32_49
REMARK   18  A    between atoms: C32_49  and  N9_50
ROOT
HETATM    1  C11 UNL     1      -8.057   5.274  -4.252  1.00  0.00     0.680 A
HETATM    2  N3  UNL     1      -7.261   4.365  -4.826  1.00  0.00    -0.176 N
ATOM      3  H3  UNL     1      -7.718   3.565  -5.264  1.00  0.00     0.186 HD
HETATM    4  C12 UNL     1      -5.933   4.401  -4.882  1.00  0.00     0.129 A
HETATM    5  C17 UNL     1      -5.288   5.498  -4.281  1.00  0.00     0.038 A
HETATM    6  C18 UNL     1      -3.931   5.611  -4.296  1.00  0.00     0.047 A
HETATM    7  C19 UNL     1      -3.296   6.707  -3.697  1.00  0.00     0.036 A
HETATM    8  C27 UNL     1      -4.073   7.658  -3.099  1.00  0.00     0.032 A
HETATM    9  C28 UNL     1      -5.457   7.512  -3.101  1.00  0.00     0.033 A
HETATM   10  C29 UNL     1      -6.085   6.440  -3.686  1.00  0.00     0.063 A
HETATM   11  N8  UNL     1      -7.443   6.335  -3.670  1.00  0.00    -0.191 N
ATOM     12  H8  UNL     1      -8.001   7.058  -3.217  1.00  0.00     0.184 HD
ENDROOT
BRANCH   1  13
HETATM   13  N2  UNL     1      -9.340   5.222  -4.222  1.00  0.00    -0.226 N
ATOM     14  H2  UNL     1      -9.820   5.396  -5.105  1.00  0.00     0.177 HD
BRANCH  13  15
HETATM   15  C10 UNL     1     -10.172   4.951  -3.093  1.00  0.00     0.138 C
BRANCH  15  16
HETATM   16  C9  UNL     1     -10.189   3.516  -2.665  1.00  0.00     0.022 C
BRANCH  16  17
HETATM   17  C8  UNL     1     -11.527   3.082  -2.110  1.00  0.00     0.029 C
BRANCH  17  18
HETATM   18  C7  UNL     1     -12.047   4.050  -1.105  1.00  0.00     0.237 C
BRANCH  18  19
HETATM   19  N1  UNL     1     -13.181   3.585  -0.338  1.00  0.00    -0.071 N
HETATM   20  C6  UNL     1     -12.939   2.182   0.018  1.00  0.00     0.272 C
BRANCH  19  21
HETATM   21  C5  UNL     1     -13.167   4.329   0.903  1.00  0.00     0.237 C
BRANCH  21  22
HETATM   22  C4  UNL     1     -12.454   5.659   0.796  1.00  0.00     0.032 C
BRANCH  22  23
HETATM   23  C2  UNL     1     -11.610   5.901   2.035  1.00  0.00    -0.021 C
HETATM   24  C1  UNL     1     -11.243   7.366   2.097  1.00  0.00     0.009 C
HETATM   25  C3  UNL     1     -10.388   5.046   2.066  1.00  0.00     0.009 C
ENDBRANCH  22  23
ENDBRANCH  21  22
ENDBRANCH  19  21
BRANCH  19  26
HETATM   26  C30 UNL     1     -14.428   3.615  -1.021  1.00  0.00     0.238 C
BRANCH  26  27
HETATM   27  C31 UNL     1     -15.096   2.290  -1.235  1.00  0.00     0.058 C
BRANCH  27  28
HETATM   28  C32 UNL     1     -15.201   1.992  -2.718  1.00  0.00     0.273 C
BRANCH  28  29
HETATM   29  N9  UNL     1     -15.089   0.609  -3.044  1.00  0.00     0.080 N
HETATM   30  C33 UNL     1     -15.956  -0.238  -2.246  1.00  0.00     0.309 C
HETATM   31  C34 UNL     1     -13.718   0.132  -3.026  1.00  0.00     0.309 C
ENDBRANCH  28  29
ENDBRANCH  27  28
ENDBRANCH  26  27
ENDBRANCH  19  26
ENDBRANCH  18  19
ENDBRANCH  17  18
ENDBRANCH  16  17
ENDBRANCH  15  16
ENDBRANCH  13  15
ENDBRANCH   1  13
BRANCH   4  32
HETATM   32  N4  UNL     1      -5.172   3.541  -5.427  1.00  0.00    -0.373 N
ATOM     33  H4  UNL     1      -4.447   3.143  -4.831  1.00  0.00     0.161 HD
BRANCH  32  34
HETATM   34  C13 UNL     1      -5.206   3.067  -6.772  1.00  0.00     0.155 C
BRANCH  34  35
HETATM   35  C14 UNL     1      -4.227   3.867  -7.604  1.00  0.00     0.169 C
HETATM   36  C15 UNL     1      -2.821   3.838  -7.041  1.00  0.00     0.159 C
HETATM   37  N5  UNL     1      -2.052   4.188  -8.217  1.00  0.00    -0.334 N
HETATM   38  C16 UNL     1      -2.803   3.806  -9.360  1.00  0.00     0.361 C
ATOM     39  H5  UNL     1      -1.134   4.630  -8.222  1.00  0.00     0.164 HD
HETATM   40  O1  UNL     1      -2.412   3.898 -10.550  1.00  0.00    -0.239 OA
HETATM   41  O2  UNL     1      -4.040   3.320  -8.892  1.00  0.00    -0.295 OA
ENDBRANCH  34  35
ENDBRANCH  32  34
ENDBRANCH   4  32
BRANCH   7  42
HETATM   42  N6  UNL     1      -1.894   6.818  -3.746  1.00  0.00    -0.323 N
HETATM   43  C20 UNL     1      -0.906   5.935  -3.320  1.00  0.00     0.258 C
HETATM   44  O3  UNL     1      -1.207   4.832  -2.801  1.00  0.00    -0.267 OA
ATOM     45  H6  UNL     1      -1.547   7.684  -4.159  1.00  0.00     0.169 HD
BRANCH  43  46
HETATM   46  C21 UNL     1       0.527   6.214  -3.440  1.00  0.00     0.056 A
HETATM   47  C22 UNL     1       1.415   6.025  -2.426  1.00  0.00     0.019 A
HETATM   48  C23 UNL     1       2.746   6.299  -2.585  1.00  0.00     0.001 A
HETATM   49  C24 UNL     1       3.270   6.781  -3.774  1.00  0.00     0.002 A
HETATM   50  C25 UNL     1       2.362   6.968  -4.791  1.00  0.00     0.027 A
HETATM   51  C26 UNL     1       1.015   6.691  -4.633  1.00  0.00     0.062 A
HETATM   52  N7  UNL     1       0.184   6.925  -5.761  1.00  0.00    -0.101 NA
ENDBRANCH  43  46
ENDBRANCH   7  42
TORSDOF 18
ENDMDL