MODEL 3
REMARK VINA RESULT: -8.344813496      1.515      1.946
REMARK  16 active torsions:
REMARK  status: ('A' for Active; 'I' for Inactive)
REMARK    1  A    between atoms: C2_2  and  C3_3
REMARK    2  A    between atoms: C3_3  and  C4_4
REMARK       I    between atoms: C4_4  and  N1_6
REMARK    3  A    between atoms: N1_6  and  C5_8
REMARK    4  A    between atoms: C5_8  and  C6_9
REMARK    5  A    between atoms: N2_11  and  C8_12
REMARK    6  A    between atoms: C11_15  and  N3_16
REMARK    7  A    between atoms: C17_23  and  N4_24
REMARK       I    between atoms: N4_24  and  C18_26
REMARK    8  A    between atoms: C18_26  and  C19_28
REMARK    9  A    between atoms: C19_28  and  C20_29
REMARK   10  A    between atoms: C20_29  and  C21_30
REMARK   11  A    between atoms: C24_35  and  C25_36
REMARK   12  A    between atoms: C25_36  and  C26_37
REMARK   13  A    between atoms: C26_37  and  C27_38
REMARK   14  A    between atoms: C27_38  and  N5_39
REMARK   15  A    between atoms: C30_45  and  C32_47
REMARK       I    between atoms: C32_47  and  N6_49
REMARK   16  A    between atoms: N6_49  and  C33_51
ROOT
HETATM    1  N3  UNL     1      -3.548   5.412  -5.100  1.00  0.00    -0.305 N
HETATM    2  C12 UNL     1      -4.478   4.680  -5.856  1.00  0.00     0.260 C
HETATM    3  O2  UNL     1      -4.244   3.875  -6.805  1.00  0.00    -0.267 OA
HETATM    4  C13 UNL     1      -5.811   5.021  -5.335  1.00  0.00     0.049 A
HETATM    5  C14 UNL     1      -5.649   5.917  -4.300  1.00  0.00    -0.018 A
HETATM    6  C15 UNL     1      -6.780   6.469  -3.707  1.00  0.00     0.012 A
HETATM    7  C16 UNL     1      -8.010   6.088  -4.181  1.00  0.00     0.031 A
HETATM    8  C17 UNL     1      -8.223   5.200  -5.202  1.00  0.00     0.041 A
HETATM    9  C22 UNL     1      -7.060   4.651  -5.794  1.00  0.00    -0.019 A
HETATM   10  C23 UNL     1      -7.252   3.689  -6.903  1.00  0.00     0.052 C
HETATM   11  C24 UNL     1      -4.205   6.032  -3.995  1.00  0.00     0.127 C
ENDROOT
BRANCH   1  12
HETATM   12  C11 UNL     1      -2.159   5.470  -5.479  1.00  0.00     0.038 A
HETATM   13  C10 UNL     1      -1.561   4.416  -6.130  1.00  0.00     0.032 A
HETATM   14  C9  UNL     1      -0.231   4.476  -6.483  1.00  0.00     0.031 A
HETATM   15  C8  UNL     1       0.563   5.571  -6.215  1.00  0.00     0.031 A
HETATM   16  C29 UNL     1      -0.052   6.620  -5.563  1.00  0.00     0.031 A
HETATM   17  C28 UNL     1      -1.383   6.572  -5.202  1.00  0.00     0.032 A
BRANCH  15  18
HETATM   18  N2  UNL     1       1.963   5.617  -6.603  1.00  0.00    -0.362 N
HETATM   19  C7  UNL     1       2.852   6.727  -6.686  1.00  0.00     0.133 A
HETATM   20  C6  UNL     1       3.934   5.858  -7.208  1.00  0.00     0.059 A
HETATM   21  C30 UNL     1       2.978   4.732  -7.018  1.00  0.00     0.117 A
HETATM   22  C31 UNL     1       3.389   3.779  -5.907  1.00  0.00     0.049 C
BRANCH  20  23
HETATM   23  C5  UNL     1       5.174   5.875  -6.339  1.00  0.00     0.132 C
BRANCH  23  24
HETATM   24  N1  UNL     1       6.398   5.675  -7.042  1.00  0.00    -0.361 N
HETATM   25  C4  UNL     1       7.067   6.649  -7.816  1.00  0.00     0.217 C
HETATM   26  O1  UNL     1       6.562   7.793  -7.907  1.00  0.00    -0.274 OA
ATOM     27  H1  UNL     1       6.826   4.751  -6.982  1.00  0.00     0.162 HD
BRANCH  25  28
HETATM   28  C3  UNL     1       8.330   6.336  -8.504  1.00  0.00     0.102 C
BRANCH  28  29
HETATM   29  C2  UNL     1       8.419   6.957  -9.870  1.00  0.00     0.005 C
HETATM   30  C1  UNL     1       7.543   6.193 -10.839  1.00  0.00     0.005 C
ENDBRANCH  28  29
ENDBRANCH  25  28
ENDBRANCH  23  24
ENDBRANCH  20  23
BRANCH  21  31
HETATM   31  C32 UNL     1       2.747   3.921  -8.249  1.00  0.00     0.246 C
HETATM   32  O6  UNL     1       3.241   2.757  -8.236  1.00  0.00    -0.271 OA
HETATM   33  N6  UNL     1       2.045   4.351  -9.378  1.00  0.00    -0.359 N
ATOM     34  H6  UNL     1       1.651   5.292  -9.385  1.00  0.00     0.162 HD
BRANCH  33  35
HETATM   35  C33 UNL     1       1.862   3.516 -10.519  1.00  0.00     0.118 C
HETATM   36  C34 UNL     1       0.550   2.769 -10.511  1.00  0.00     0.026 C
ENDBRANCH  33  35
ENDBRANCH  21  31
ENDBRANCH  15  18
ENDBRANCH   1  12
BRANCH  11  37
HETATM   37  C25 UNL     1      -3.855   5.334  -2.695  1.00  0.00     0.032 C
BRANCH  37  38
HETATM   38  C26 UNL     1      -3.343   6.205  -1.615  1.00  0.00     0.029 C
BRANCH  38  39
HETATM   39  C27 UNL     1      -1.833   6.320  -1.597  1.00  0.00     0.230 C
BRANCH  39  40
HETATM   40  N5  UNL     1      -1.310   5.034  -2.069  1.00  0.00    -0.079 N
ATOM     41  H53 UNL     1      -1.915   4.245  -1.841  1.00  0.00     0.274 HD
ATOM     42  H52 UNL     1      -1.344   4.933  -3.083  1.00  0.00     0.274 HD
ATOM     43  H51 UNL     1      -0.369   4.944  -1.686  1.00  0.00     0.274 HD
ENDBRANCH  39  40
ENDBRANCH  38  39
ENDBRANCH  37  38
ENDBRANCH  11  37
BRANCH   8  44
HETATM   44  N4  UNL     1      -9.483   4.801  -5.673  1.00  0.00    -0.327 N
HETATM   45  C18 UNL     1     -10.397   4.012  -4.992  1.00  0.00     0.222 C
HETATM   46  O3  UNL     1     -10.276   3.522  -3.866  1.00  0.00    -0.273 OA
ATOM     47  H4  UNL     1      -9.752   5.123  -6.603  1.00  0.00     0.169 HD
BRANCH  45  48
HETATM   48  C19 UNL     1     -11.703   3.706  -5.703  1.00  0.00     0.113 C
BRANCH  48  49
HETATM   49  C20 UNL     1     -12.605   2.912  -4.815  1.00  0.00     0.122 C
BRANCH  49  50
HETATM   50  C21 UNL     1     -13.943   3.538  -4.768  1.00  0.00     0.172 C
HETATM   51  O4  UNL     1     -14.187   4.538  -5.478  1.00  0.00    -0.648 OA
HETATM   52  O5  UNL     1     -14.905   2.997  -3.930  1.00  0.00    -0.648 OA
ENDBRANCH  49  50
ENDBRANCH  48  49
ENDBRANCH  45  48
ENDBRANCH   8  44
TORSDOF 16
ENDMDL