MODEL 1
REMARK VINA RESULT: -9.645677953      0.000      0.000
REMARK  18 active torsions:
REMARK  status: ('A' for Active; 'I' for Inactive)
REMARK    1  A    between atoms: S1_2  and  C2_3
REMARK    2  A    between atoms: C2_3  and  C3_4
REMARK    3  A    between atoms: C3_4  and  C4_5
REMARK    4  A    between atoms: C4_5  and  N1_6
REMARK    5  A    between atoms: C4_5  and  C6_15
REMARK    6  A    between atoms: N1_6  and  C5_8
REMARK    7  A    between atoms: C5_8  and  O1_9
REMARK    8  A    between atoms: N2_11  and  O2_13
REMARK       I    between atoms: C6_15  and  N3_17
REMARK    9  A    between atoms: N3_17  and  C7_19
REMARK   10  A    between atoms: C7_19  and  C8_20
REMARK   11  A    between atoms: N4_23  and  C11_24
REMARK   12  A    between atoms: C11_24  and  C12_25
REMARK   13  A    between atoms: C12_25  and  C13_27
REMARK   14  A    between atoms: C16_30  and  C17_31
REMARK   15  A    between atoms: C20_34  and  C21_35
REMARK   16  A    between atoms: C21_35  and  C22_36
REMARK   17  A    between atoms: C22_36  and  N5_37
REMARK   18  A    between atoms: C25_40  and  C26_41
ROOT
HETATM    1  C11 UNL     1      -4.051   2.173  -8.580  1.00  0.00     0.211 C
ENDROOT
BRANCH   1   2
HETATM    2  N4  UNL     1      -3.062   3.038  -8.031  1.00  0.00    -0.359 N
HETATM    3  C10 UNL     1      -3.379   4.237  -7.468  1.00  0.00     0.091 A
HETATM    4  C9  UNL     1      -2.462   5.100  -6.931  1.00  0.00     0.026 A
HETATM    5  C8  UNL     1      -1.099   4.757  -6.943  1.00  0.00    -0.038 A
HETATM    6  C34 UNL     1      -0.779   3.551  -7.508  1.00  0.00     0.026 A
HETATM    7  C33 UNL     1      -1.764   2.701  -8.047  1.00  0.00     0.091 A
BRANCH   5   8
HETATM    8  C7  UNL     1      -0.166   5.740  -6.363  1.00  0.00     0.161 C
BRANCH   8   9
HETATM    9  N3  UNL     1      -0.731   7.026  -6.103  1.00  0.00    -0.355 N
HETATM   10  C6  UNL     1      -1.156   7.449  -4.844  1.00  0.00     0.240 C
HETATM   11  O3  UNL     1      -1.054   6.705  -3.834  1.00  0.00    -0.271 OA
ATOM     12  H3  UNL     1      -0.829   7.673  -6.885  1.00  0.00     0.162 HD
BRANCH  10  13
HETATM   13  C4  UNL     1      -1.751   8.818  -4.631  1.00  0.00     0.178 C
BRANCH  13  14
HETATM   14  C3  UNL     1      -2.433   8.960  -3.327  1.00  0.00     0.045 C
BRANCH  14  15
HETATM   15  C2  UNL     1      -3.923   8.973  -3.311  1.00  0.00     0.076 C
BRANCH  15  16
HETATM   16  S1  UNL     1      -4.479   7.286  -2.813  1.00  0.00    -0.173 SA
HETATM   17  C1  UNL     1      -6.033   6.837  -3.586  1.00  0.00     0.089 C
ENDBRANCH  15  16
ENDBRANCH  14  15
ENDBRANCH  13  14
BRANCH  13  18
HETATM   18  N1  UNL     1      -2.452   9.212  -5.810  1.00  0.00    -0.342 N
ATOM     19  H1  UNL     1      -3.465   9.089  -5.801  1.00  0.00     0.164 HD
BRANCH  18  20
HETATM   20  C5  UNL     1      -1.892   9.751  -6.981  1.00  0.00     0.237 C
HETATM   21  N2  UNL     1      -1.637  10.993  -7.086  1.00  0.00    -0.233 N
ATOM     22  H2  UNL     1      -1.851  11.591  -6.287  1.00  0.00     0.198 HD
BRANCH  20  23
HETATM   23  O1  UNL     1      -1.608   8.918  -8.052  1.00  0.00    -0.331 OA
ATOM     24  H1  UNL     1      -2.277   8.744  -8.704  1.00  0.00     0.221 HD
ENDBRANCH  20  23
BRANCH  21  25
HETATM   25  O2  UNL     1      -1.086  11.592  -8.213  1.00  0.00    -0.287 OA
ATOM     26  H2  UNL     1      -0.566  12.387  -8.201  1.00  0.00     0.244 HD
ENDBRANCH  21  25
ENDBRANCH  18  20
ENDBRANCH  13  18
ENDBRANCH  10  13
ENDBRANCH   8   9
ENDBRANCH   5   8
ENDBRANCH   1   2
BRANCH   1  27
HETATM   27  C12 UNL     1      -5.156   2.798  -9.295  1.00  0.00     0.177 C
HETATM   28  O4  UNL     1      -5.019   3.190 -10.465  1.00  0.00    -0.291 OA
BRANCH  27  29
HETATM   29  C13 UNL     1      -6.437   2.963  -8.633  1.00  0.00     0.011 A
HETATM   30  C14 UNL     1      -6.526   3.719  -7.451  1.00  0.00     0.016 A
HETATM   31  C15 UNL     1      -7.736   3.869  -6.781  1.00  0.00     0.013 A
HETATM   32  C16 UNL     1      -8.861   3.274  -7.274  1.00  0.00    -0.026 A
HETATM   33  C31 UNL     1      -8.812   2.528  -8.432  1.00  0.00     0.013 A
HETATM   34  C32 UNL     1      -7.584   2.387  -9.097  1.00  0.00     0.016 A
BRANCH  32  35
HETATM   35  C17 UNL     1     -10.090   3.433  -6.517  1.00  0.00    -0.026 A
HETATM   36  C18 UNL     1     -11.227   2.737  -6.857  1.00  0.00     0.013 A
HETATM   37  C19 UNL     1     -12.381   2.868  -6.122  1.00  0.00     0.008 A
HETATM   38  C20 UNL     1     -12.448   3.695  -5.022  1.00  0.00    -0.057 A
HETATM   39  C29 UNL     1     -11.297   4.398  -4.681  1.00  0.00     0.008 A
HETATM   40  C30 UNL     1     -10.141   4.263  -5.421  1.00  0.00     0.013 A
BRANCH  38  41
HETATM   41  C21 UNL     1     -13.712   3.791  -4.266  1.00  0.00     0.058 C
BRANCH  41  42
HETATM   42  C22 UNL     1     -13.662   2.902  -3.024  1.00  0.00     0.132 C
BRANCH  42  43
HETATM   43  N5  UNL     1     -13.289   3.752  -1.917  1.00  0.00    -0.366 N
HETATM   44  C23 UNL     1     -12.160   3.554  -1.230  1.00  0.00     0.091 A
HETATM   45  C24 UNL     1     -11.796   4.375  -0.156  1.00  0.00     0.035 A
HETATM   46  C25 UNL     1     -12.625   5.426   0.212  1.00  0.00     0.043 A
HETATM   47  C27 UNL     1     -13.782   5.614  -0.505  1.00  0.00     0.035 A
HETATM   48  C28 UNL     1     -14.086   4.763  -1.563  1.00  0.00     0.091 A
BRANCH  46  49
HETATM   49  C26 UNL     1     -12.241   6.273   1.329  1.00  0.00     0.209 C
HETATM   50  O5  UNL     1     -11.336   5.932   2.136  1.00  0.00    -0.644 OA
HETATM   51  O6  UNL     1     -12.861   7.469   1.531  1.00  0.00    -0.644 OA
ENDBRANCH  46  49
ENDBRANCH  42  43
ENDBRANCH  41  42
ENDBRANCH  38  41
ENDBRANCH  32  35
ENDBRANCH  27  29
ENDBRANCH   1  27
TORSDOF 18
ENDMDL