MODEL 4
REMARK VINA RESULT: -8.042079798      2.982      4.892
REMARK  17 active torsions:
REMARK  status: ('A' for Active; 'I' for Inactive)
REMARK    1  A    between atoms: C2_2  and  N1_3
REMARK    2  A    between atoms: C3_4  and  C4_5
REMARK    3  A    between atoms: C4_5  and  C5_6
REMARK    4  A    between atoms: C8_11  and  C9_12
REMARK    5  A    between atoms: C9_12  and  C10_13
REMARK    6  A    between atoms: C10_13  and  C12_15
REMARK       I    between atoms: C12_15  and  N3_17
REMARK    7  A    between atoms: N3_17  and  C13_19
REMARK    8  A    between atoms: C13_19  and  C14_20
REMARK    9  A    between atoms: C14_20  and  C15_21
REMARK   10  A    between atoms: C15_21  and  O2_22
REMARK   11  A    between atoms: C20_28  and  O3_29
REMARK   12  A    between atoms: N5_34  and  C22_36
REMARK   13  A    between atoms: C22_36  and  C24_38
REMARK   14  A    between atoms: C24_38  and  C25_39
REMARK   15  A    between atoms: C25_39  and  O4_41
REMARK   16  A    between atoms: N6_43  and  C28_44
REMARK   17  A    between atoms: C28_44  and  C29_45
ROOT
HETATM    1  N1  UNL     1       1.703   3.163  -8.353  1.00  0.00    -0.258 N
HETATM    2  C3  UNL     1       2.133   3.168  -7.008  1.00  0.00     0.079 C
HETATM    3  C20 UNL     1       2.509   2.095  -6.298  1.00  0.00     0.179 C
HETATM    4  N4  UNL     1       2.597   0.718  -6.586  1.00  0.00    -0.168 N
ATOM      5  H4  UNL     1       2.791   0.118  -5.784  1.00  0.00     0.186 HD
HETATM    6  C21 UNL     1       2.455   0.041  -7.828  1.00  0.00     0.697 C
HETATM    7  N5  UNL     1       3.004  -1.052  -7.983  1.00  0.00    -0.198 N
ATOM      8  H5  UNL     1       2.766  -1.336  -8.933  1.00  0.00     0.183 HD
HETATM    9  N6  UNL     1       1.695   0.465  -8.996  1.00  0.00    -0.090 N
HETATM   10  S1  UNL     1       0.751   1.890  -9.081  1.00  0.00     0.341 S
HETATM   11  O5  UNL     1      -0.542   1.712  -8.355  1.00  0.00    -0.181 OA
HETATM   12  O6  UNL     1       0.461   2.312 -10.486  1.00  0.00    -0.181 OA
ENDROOT
BRANCH   2  13
HETATM   13  C4  UNL     1       2.180   4.423  -6.302  1.00  0.00     0.103 C
BRANCH  13  14
HETATM   14  C5  UNL     1       0.991   4.959  -5.665  1.00  0.00    -0.025 A
HETATM   15  C6  UNL     1      -0.196   5.256  -6.296  1.00  0.00     0.096 A
HETATM   16  N2  UNL     1      -1.075   5.769  -5.464  1.00  0.00    -0.364 N
HETATM   17  C7  UNL     1      -0.540   5.847  -4.239  1.00  0.00     0.049 A
ATOM     18  H2  UNL     1      -2.019   6.063  -5.714  1.00  0.00     0.165 HD
HETATM   19  C8  UNL     1      -1.063   6.312  -3.032  1.00  0.00    -0.030 A
HETATM   20  C19 UNL     1       0.739   5.350  -4.345  1.00  0.00    -0.001 A
HETATM   21  C16 UNL     1      -0.235   6.255  -1.932  1.00  0.00     0.009 A
HETATM   22  C17 UNL     1       1.051   5.763  -2.008  1.00  0.00     0.002 A
HETATM   23  C18 UNL     1       1.516   5.317  -3.218  1.00  0.00     0.014 A
BRANCH  19  24
HETATM   24  C9  UNL     1      -2.437   6.821  -2.990  1.00  0.00     0.054 C
BRANCH  24  25
HETATM   25  C10 UNL     1      -3.382   6.010  -2.141  1.00  0.00     0.078 C
HETATM   26  C11 UNL     1      -3.784   6.692  -0.871  1.00  0.00     0.020 C
BRANCH  25  27
HETATM   27  C12 UNL     1      -4.551   5.645  -2.994  1.00  0.00     0.221 C
HETATM   28  O1  UNL     1      -5.502   6.464  -3.182  1.00  0.00    -0.273 OA
HETATM   29  N3  UNL     1      -4.593   4.365  -3.601  1.00  0.00    -0.361 N
ATOM     30  H3  UNL     1      -3.815   3.725  -3.436  1.00  0.00     0.162 HD
BRANCH  29  31
HETATM   31  C13 UNL     1      -5.680   3.920  -4.442  1.00  0.00     0.124 C
BRANCH  31  32
HETATM   32  C14 UNL     1      -5.312   3.852  -5.900  1.00  0.00     0.046 C
BRANCH  32  33
HETATM   33  C15 UNL     1      -6.212   4.802  -6.694  1.00  0.00     0.165 C
BRANCH  33  34
HETATM   34  O2  UNL     1      -6.642   5.865  -5.900  1.00  0.00    -0.401 OA
ATOM     35  H2  UNL     1      -7.549   6.080  -6.081  1.00  0.00     0.209 HD
ENDBRANCH  33  34
ENDBRANCH  32  33
ENDBRANCH  31  32
ENDBRANCH  29  31
ENDBRANCH  25  27
ENDBRANCH  24  25
ENDBRANCH  19  24
ENDBRANCH  13  14
ENDBRANCH   2  13
BRANCH   1  36
HETATM   36  C2  UNL     1       2.100   4.230  -9.217  1.00  0.00     0.139 C
HETATM   37  C1  UNL     1       3.441   3.901  -9.920  1.00  0.00     0.028 C
ENDBRANCH   1  36
BRANCH   3  38
HETATM   38  O3  UNL     1       2.890   2.427  -4.986  1.00  0.00    -0.344 OA
ATOM     39  H3  UNL     1       2.986   1.661  -4.432  1.00  0.00     0.219 HD
ENDBRANCH   3  38
BRANCH   9  40
HETATM   40  C28 UNL     1       1.739  -0.435 -10.088  1.00  0.00     0.166 C
BRANCH  40  41
HETATM   41  C29 UNL     1       2.369   0.022 -11.351  1.00  0.00    -0.003 C
HETATM   42  C30 UNL     1       3.861   0.115 -11.202  1.00  0.00     0.011 C
HETATM   43  C31 UNL     1       2.127  -1.003 -12.473  1.00  0.00     0.011 C
ENDBRANCH  40  41
ENDBRANCH   9  40
BRANCH   7  44
HETATM   44  C22 UNL     1       3.787  -2.076  -7.485  1.00  0.00     0.003 C
HETATM   45  C23 UNL     1       5.287  -1.726  -7.519  1.00  0.00     0.064 C
BRANCH  44  46
HETATM   46  C24 UNL     1       3.349  -2.812  -6.281  1.00  0.00     0.084 C
BRANCH  46  47
HETATM   47  C25 UNL     1       1.935  -3.289  -6.177  1.00  0.00     0.122 C
HETATM   48  C26 UNL     1       1.636  -4.441  -5.301  1.00  0.00     0.040 C
BRANCH  47  49
HETATM   49  O4  UNL     1       1.083  -2.212  -5.817  1.00  0.00    -0.391 OA
HETATM   50  C27 UNL     1      -0.134  -2.264  -6.469  1.00  0.00     0.202 C
ENDBRANCH  47  49
ENDBRANCH  46  47
ENDBRANCH  44  46
ENDBRANCH   7  44
TORSDOF 17
ENDMDL