MODEL 4
REMARK VINA RESULT: -9.269308042      3.911      8.476
REMARK  21 active torsions:
REMARK  status: ('A' for Active; 'I' for Inactive)
REMARK    1  A    between atoms: C2_2  and  C3_3
REMARK    2  A    between atoms: C3_3  and  C4_4
REMARK    3  A    between atoms: C4_4  and  N1_5
REMARK    4  A    between atoms: N1_5  and  C5_7
REMARK    5  A    between atoms: C6_10  and  O1_11
REMARK    6  A    between atoms: C7_13  and  C8_14
REMARK    7  A    between atoms: C8_14  and  C9_15
REMARK    8  A    between atoms: C9_15  and  C10_16
REMARK    9  A    between atoms: C10_16  and  C11_17
REMARK   10  A    between atoms: C11_17  and  C12_18
REMARK   11  A    between atoms: C14_23  and  C15_24
REMARK   12  A    between atoms: C15_24  and  C16_25
REMARK   13  A    between atoms: C17_28  and  C18_29
REMARK   14  A    between atoms: C18_29  and  C19_30
REMARK   15  A    between atoms: C19_30  and  C20_31
REMARK       I    between atoms: C20_31  and  N5_33
REMARK   16  A    between atoms: N5_33  and  C21_34
REMARK   17  A    between atoms: N5_33  and  C24_37
REMARK   18  A    between atoms: N6_41  and  C28_42
REMARK   19  A    between atoms: C28_42  and  C29_43
REMARK   20  A    between atoms: C29_43  and  C30_44
REMARK   21  A    between atoms: C33_47  and  O4_48
ROOT
HETATM    1  C12 UNL     1      -8.239   5.328  -4.153  1.00  0.00     0.085 A
HETATM    2  N3  UNL     1      -7.451   4.238  -4.223  1.00  0.00    -0.312 N
ATOM      3  H3  UNL     1      -7.865   3.309  -4.313  1.00  0.00     0.170 HD
HETATM    4  C13 UNL     1      -6.118   4.382  -4.174  1.00  0.00     0.261 A
HETATM    5  O2  UNL     1      -5.435   3.319  -4.244  1.00  0.00    -0.267 OA
HETATM    6  C14 UNL     1      -5.488   5.595  -4.055  1.00  0.00     0.086 A
HETATM    7  C33 UNL     1      -6.322   6.723  -3.982  1.00  0.00     0.157 A
HETATM    8  N7  UNL     1      -7.648   6.522  -4.036  1.00  0.00    -0.326 N
ATOM      9  H7  UNL     1      -8.252   7.343  -3.983  1.00  0.00     0.169 HD
ENDROOT
BRANCH   6  10
HETATM   10  C15 UNL     1      -4.063   5.754  -4.060  1.00  0.00     0.070 C
BRANCH  10  11
HETATM   11  C16 UNL     1      -3.175   5.676  -5.008  1.00  0.00     0.108 A
HETATM   12  N4  UNL     1      -3.447   4.984  -6.163  1.00  0.00    -0.341 N
HETATM   13  C17 UNL     1      -2.418   5.050  -7.009  1.00  0.00     0.046 A
ATOM     14  H4  UNL     1      -4.318   4.487  -6.349  1.00  0.00     0.167 HD
HETATM   15  C27 UNL     1      -1.454   5.793  -6.409  1.00  0.00     0.121 A
HETATM   16  N6  UNL     1      -1.951   6.164  -5.172  1.00  0.00    -0.341 N
BRANCH  13  17
HETATM   17  C18 UNL     1      -2.342   4.500  -8.215  1.00  0.00     0.013 C
BRANCH  17  18
HETATM   18  C19 UNL     1      -1.743   3.154  -8.416  1.00  0.00     0.132 C
BRANCH  18  19
HETATM   19  C20 UNL     1      -0.719   3.173  -9.485  1.00  0.00     0.224 C
HETATM   20  O3  UNL     1      -1.050   3.582 -10.654  1.00  0.00    -0.273 OA
HETATM   21  N5  UNL     1       0.631   2.766  -9.327  1.00  0.00    -0.344 N
BRANCH  21  22
HETATM   22  C21 UNL     1       1.190   2.271  -8.083  1.00  0.00     0.079 C
HETATM   23  C22 UNL     1       0.480   1.063  -7.564  1.00  0.00     0.032 C
HETATM   24  C23 UNL     1       1.098   3.354  -7.047  1.00  0.00     0.032 C
ENDBRANCH  21  22
BRANCH  21  25
HETATM   25  C24 UNL     1       1.549   2.834 -10.466  1.00  0.00     0.079 C
HETATM   26  C25 UNL     1       2.382   1.600 -10.586  1.00  0.00     0.032 C
HETATM   27  C26 UNL     1       2.499   4.025 -10.288  1.00  0.00     0.032 C
ENDBRANCH  21  25
ENDBRANCH  18  19
ENDBRANCH  17  18
ENDBRANCH  13  17
BRANCH  16  28
HETATM   28  C28 UNL     1      -1.168   6.966  -4.307  1.00  0.00     0.130 C
BRANCH  28  29
HETATM   29  C29 UNL     1       0.102   6.467  -3.735  1.00  0.00     0.024 C
BRANCH  29  30
HETATM   30  C30 UNL     1       0.053   5.497  -2.606  1.00  0.00    -0.021 C
HETATM   31  C31 UNL     1       1.224   5.935  -1.665  1.00  0.00     0.009 C
HETATM   32  C32 UNL     1      -1.165   5.695  -1.704  1.00  0.00     0.009 C
ENDBRANCH  29  30
ENDBRANCH  28  29
ENDBRANCH  16  28
ENDBRANCH  10  11
ENDBRANCH   6  10
BRANCH   7  33
HETATM   33  O4  UNL     1      -5.732   7.973  -3.862  1.00  0.00    -0.345 OA
ATOM     34  H4  UNL     1      -6.272   8.702  -3.579  1.00  0.00     0.219 HD
ENDBRANCH   7  33
BRANCH   1  35
HETATM   35  C11 UNL     1      -9.743   5.204  -4.209  1.00  0.00     0.076 C
BRANCH  35  36
HETATM   36  C10 UNL     1     -10.008   4.247  -5.353  1.00  0.00     0.008 C
BRANCH  36  37
HETATM   37  C9  UNL     1     -11.448   3.925  -5.565  1.00  0.00     0.006 C
BRANCH  37  38
HETATM   38  C8  UNL     1     -11.745   2.522  -5.081  1.00  0.00     0.051 C
BRANCH  38  39
HETATM   39  C7  UNL     1     -12.054   2.676  -3.612  1.00  0.00     0.037 A
HETATM   40  C6  UNL     1     -11.370   2.144  -2.552  1.00  0.00     0.155 A
HETATM   41  N2  UNL     1     -11.817   2.401  -1.354  1.00  0.00    -0.317 N
HETATM   42  C5  UNL     1     -12.905   3.161  -1.227  1.00  0.00     0.146 A
ATOM     43  H2  UNL     1     -11.345   2.029  -0.530  1.00  0.00     0.170 HD
HETATM   44  S1  UNL     1     -13.315   3.524  -2.840  1.00  0.00    -0.054 SA
BRANCH  40  45
HETATM   45  O1  UNL     1     -10.214   1.343  -2.790  1.00  0.00    -0.345 OA
ATOM     46  H1  UNL     1     -10.185   0.665  -3.455  1.00  0.00     0.219 HD
ENDBRANCH  40  45
BRANCH  42  47
HETATM   47  N1  UNL     1     -13.507   3.529  -0.115  1.00  0.00    -0.370 N
ATOM     48  H1  UNL     1     -14.522   3.626  -0.121  1.00  0.00     0.161 HD
BRANCH  47  49
HETATM   49  C4  UNL     1     -12.801   3.801   1.105  1.00  0.00     0.121 C
BRANCH  49  50
HETATM   50  C3  UNL     1     -12.273   5.206   1.068  1.00  0.00     0.019 C
BRANCH  50  51
HETATM   51  C2  UNL     1     -11.044   5.381   1.938  1.00  0.00    -0.003 C
HETATM   52  C1  UNL     1     -10.836   6.835   2.308  1.00  0.00     0.005 C
ENDBRANCH  50  51
ENDBRANCH  49  50
ENDBRANCH  47  49
ENDBRANCH  42  47
ENDBRANCH  38  39
ENDBRANCH  37  38
ENDBRANCH  36  37
ENDBRANCH  35  36
ENDBRANCH   1  35
TORSDOF 21
ENDMDL