MODEL 1
REMARK VINA RESULT: -7.230426460      0.000      0.000
REMARK  16 active torsions:
REMARK  status: ('A' for Active; 'I' for Inactive)
REMARK    1  A    between atoms: C2_2  and  C3_3
REMARK    2  A    between atoms: C3_3  and  C4_4
REMARK    3  A    between atoms: C4_4  and  N1_5
REMARK    4  A    between atoms: C4_4  and  C5_9
REMARK    5  A    between atoms: C8_15  and  C9_16
REMARK    6  A    between atoms: C9_16  and  C10_17
REMARK    7  A    between atoms: C14_24  and  C15_25
REMARK    8  A    between atoms: C19_32  and  C20_33
REMARK    9  A    between atoms: C20_33  and  C21_34
REMARK   10  A    between atoms: N6_41  and  C25_42
REMARK   11  A    between atoms: C25_42  and  C26_43
REMARK   12  A    between atoms: C26_43  and  C27_44
REMARK   13  A    between atoms: C27_44  and  C28_45
REMARK   14  A    between atoms: C28_45  and  C29_46
REMARK   15  A    between atoms: C29_46  and  C30_47
REMARK   16  A    between atoms: C30_47  and  S1_48
ROOT
HETATM    1  C5  UNL     1       3.808   5.018  -5.705  1.00  0.00     0.118 C
HETATM    2  C6  UNL     1       4.720   3.881  -5.562  1.00  0.00     0.119 C
HETATM    3  C7  UNL     1       4.224   2.588  -5.125  1.00  0.00     0.219 C
HETATM    4  O1  UNL     1       3.878   2.481  -3.885  1.00  0.00    -0.274 OA
HETATM    5  N2  UNL     1       4.108   1.464  -5.978  1.00  0.00    -0.348 N
ATOM      6  H2  UNL     1       3.909   0.570  -5.529  1.00  0.00     0.163 HD
HETATM    7  C8  UNL     1       4.239   1.449  -7.403  1.00  0.00     0.177 C
HETATM    8  C13 UNL     1       2.966   0.918  -8.042  1.00  0.00     0.241 C
HETATM    9  O2  UNL     1       3.128  -0.197  -8.659  1.00  0.00    -0.271 OA
HETATM   10  N3  UNL     1       1.715   1.471  -8.036  1.00  0.00    -0.346 N
ATOM     11  H3  UNL     1       0.972   0.853  -7.710  1.00  0.00     0.163 HD
HETATM   12  C14 UNL     1       1.277   2.819  -8.425  1.00  0.00     0.180 C
HETATM   13  C18 UNL     1      -0.091   3.072  -7.927  1.00  0.00     0.245 C
HETATM   14  O3  UNL     1      -0.871   2.048  -8.088  1.00  0.00    -0.271 OA
HETATM   15  N4  UNL     1      -0.666   4.192  -7.330  1.00  0.00    -0.324 N
ATOM     16  H4  UNL     1      -1.484   4.549  -7.823  1.00  0.00     0.169 HD
HETATM   17  C19 UNL     1      -0.328   4.931  -6.165  1.00  0.00     0.082 C
HETATM   18  C24 UNL     1       0.341   4.132  -5.129  1.00  0.00     0.282 C
HETATM   19  O4  UNL     1       0.228   2.858  -5.310  1.00  0.00    -0.265 OA
HETATM   20  N5  UNL     1       1.067   4.471  -3.995  1.00  0.00    -0.260 N
ATOM     21  H5  UNL     1       0.750   3.979  -3.160  1.00  0.00     0.190 HD
HETATM   22  N6  UNL     1       2.122   5.324  -3.748  1.00  0.00    -0.258 N
HETATM   23  C32 UNL     1       3.253   5.674  -4.519  1.00  0.00     0.244 C
HETATM   24  O5  UNL     1       3.936   6.719  -4.174  1.00  0.00    -0.271 OA
ENDROOT
BRANCH   1  25
HETATM   25  C4  UNL     1       4.398   6.005  -6.720  1.00  0.00     0.197 C
BRANCH  25  26
HETATM   26  C3  UNL     1       5.509   5.483  -7.531  1.00  0.00     0.033 C
BRANCH  26  27
HETATM   27  C2  UNL     1       5.162   4.993  -8.907  1.00  0.00    -0.002 C
HETATM   28  C1  UNL     1       6.225   5.088  -9.945  1.00  0.00     0.005 C
ENDBRANCH  26  27
ENDBRANCH  25  26
BRANCH  25  29
HETATM   29  N1  UNL     1       3.361   6.588  -7.481  1.00  0.00    -0.074 N
ATOM     30  H13 UNL     1       3.591   7.552  -7.722  1.00  0.00     0.274 HD
ATOM     31  H12 UNL     1       3.329   6.181  -8.417  1.00  0.00     0.274 HD
ATOM     32  H11 UNL     1       2.445   6.538  -7.036  1.00  0.00     0.274 HD
ENDBRANCH  25  29
ENDBRANCH   1  25
BRANCH  22  33
HETATM   33  C25 UNL     1       2.075   6.006  -2.430  1.00  0.00     0.152 C
BRANCH  33  34
HETATM   34  C26 UNL     1       0.868   5.637  -1.643  1.00  0.00     0.022 C
BRANCH  34  35
HETATM   35  C27 UNL     1      -0.311   6.529  -1.957  1.00  0.00     0.002 C
BRANCH  35  36
HETATM   36  C28 UNL     1      -1.599   5.785  -1.996  1.00  0.00     0.001 C
BRANCH  36  37
HETATM   37  C29 UNL     1      -2.689   6.575  -1.337  1.00  0.00     0.010 C
BRANCH  37  38
HETATM   38  C30 UNL     1      -4.016   6.378  -1.995  1.00  0.00     0.073 C
BRANCH  38  39
HETATM   39  S1  UNL     1      -4.719   8.050  -2.252  1.00  0.00    -0.173 SA
HETATM   40  C31 UNL     1      -3.343   9.225  -2.303  1.00  0.00     0.089 C
ENDBRANCH  38  39
ENDBRANCH  37  38
ENDBRANCH  36  37
ENDBRANCH  35  36
ENDBRANCH  34  35
ENDBRANCH  33  34
ENDBRANCH  22  33
BRANCH   7  41
HETATM   41  C9  UNL     1       5.352   0.547  -7.811  1.00  0.00     0.038 C
BRANCH  41  42
HETATM   42  C10 UNL     1       6.516   1.052  -8.534  1.00  0.00    -0.020 C
HETATM   43  C11 UNL     1       7.337   2.109  -7.886  1.00  0.00     0.009 C
HETATM   44  C12 UNL     1       6.295   1.430  -9.985  1.00  0.00     0.009 C
ENDBRANCH  41  42
ENDBRANCH   7  41
BRANCH  17  45
HETATM   45  C20 UNL     1       0.207   6.279  -6.421  1.00  0.00     0.067 C
BRANCH  45  46
HETATM   46  C21 UNL     1      -0.168   7.357  -5.501  1.00  0.00    -0.017 C
HETATM   47  C22 UNL     1      -1.576   7.708  -5.266  1.00  0.00     0.010 C
HETATM   48  C23 UNL     1       0.503   8.644  -6.039  1.00  0.00     0.010 C
ENDBRANCH  45  46
ENDBRANCH  17  45
BRANCH  12  49
HETATM   49  C15 UNL     1       1.203   2.779  -9.947  1.00  0.00     0.009 C
HETATM   50  C16 UNL     1       2.432   3.246 -10.639  1.00  0.00     0.012 C
HETATM   51  C17 UNL     1       0.031   3.562 -10.488  1.00  0.00     0.012 C
ENDBRANCH  12  49
TORSDOF 16
ENDMDL