MODEL 4
REMARK VINA RESULT: -8.918866936      3.697     10.983
REMARK  16 active torsions:
REMARK  status: ('A' for Active; 'I' for Inactive)
REMARK    1  A    between atoms: C2_2  and  C3_3
REMARK    2  A    between atoms: C3_3  and  C4_4
REMARK    3  A    between atoms: C4_4  and  C5_5
REMARK    4  A    between atoms: C5_5  and  C6_6
REMARK    5  A    between atoms: C6_6  and  N1_7
REMARK    6  A    between atoms: N2_12  and  C8_13
REMARK    7  A    between atoms: C8_13  and  C9_14
REMARK    8  A    between atoms: C9_14  and  C10_15
REMARK    9  A    between atoms: C10_15  and  N3_16
REMARK   10  A    between atoms: N3_16  and  C11_19
REMARK   11  A    between atoms: C11_19  and  C12_20
REMARK   12  A    between atoms: C12_20  and  C13_21
REMARK   13  A    between atoms: C13_21  and  N4_22
REMARK   14  A    between atoms: C18_31  and  N7_32
REMARK   15  A    between atoms: N8_35  and  C21_36
REMARK   16  A    between atoms: C23_38  and  C24_39
ROOT
HETATM    1  C1  UNL     1      -5.715   3.725  -4.721  1.00  0.00     0.040 C
HETATM    2  C2  UNL     1      -5.709   5.040  -5.456  1.00  0.00     0.043 C
HETATM    3  C7  UNL     1      -6.506   4.901  -6.717  1.00  0.00     0.156 C
HETATM    4  N2  UNL     1      -6.178   3.740  -7.511  1.00  0.00    -0.345 N
HETATM    5  C15 UNL     1      -4.886   3.473  -8.085  1.00  0.00     0.256 C
HETATM    6  O1  UNL     1      -4.841   2.850  -9.155  1.00  0.00    -0.267 OA
HETATM    7  C16 UNL     1      -3.562   3.851  -7.546  1.00  0.00     0.060 A
HETATM    8  C17 UNL     1      -2.506   3.254  -8.197  1.00  0.00     0.049 A
HETATM    9  C18 UNL     1      -1.197   3.503  -7.824  1.00  0.00     0.040 A
HETATM   10  C33 UNL     1      -1.016   4.384  -6.761  1.00  0.00     0.032 A
HETATM   11  C34 UNL     1      -2.076   4.979  -6.110  1.00  0.00     0.032 A
HETATM   12  C35 UNL     1      -3.377   4.727  -6.489  1.00  0.00     0.044 A
HETATM   13  N10 UNL     1      -4.339   5.423  -5.700  1.00  0.00    -0.379 N
ATOM     14  H10 UNL     1      -4.025   6.288  -5.260  1.00  0.00     0.160 HD
ENDROOT
BRANCH   9  15
HETATM   15  N7  UNL     1      -0.096   2.895  -8.478  1.00  0.00    -0.298 N
HETATM   16  C19 UNL     1       1.033   3.597  -9.058  1.00  0.00     0.154 C
HETATM   17  C20 UNL     1       1.397   2.672 -10.216  1.00  0.00     0.155 C
HETATM   18  N8  UNL     1       1.337   1.391  -9.491  1.00  0.00    -0.283 N
HETATM   19  C32 UNL     1       0.156   1.495  -8.715  1.00  0.00     0.331 C
HETATM   20  O2  UNL     1      -0.523   0.520  -8.321  1.00  0.00    -0.246 OA
BRANCH  18  21
HETATM   21  C21 UNL     1       2.300   0.387  -9.616  1.00  0.00     0.112 A
HETATM   22  C22 UNL     1       2.681  -0.332  -8.507  1.00  0.00     0.061 A
HETATM   23  C23 UNL     1       3.602  -1.358  -8.520  1.00  0.00    -0.021 A
HETATM   24  C30 UNL     1       4.162  -1.657  -9.752  1.00  0.00     0.029 A
HETATM   25  C31 UNL     1       3.785  -0.935 -10.881  1.00  0.00     0.090 A
HETATM   26  N9  UNL     1       2.880   0.058 -10.809  1.00  0.00    -0.352 N
ATOM     27  H9  UNL     1       2.625   0.569 -11.654  1.00  0.00     0.166 HD
BRANCH  23  28
HETATM   28  C24 UNL     1       3.971  -2.065  -7.298  1.00  0.00    -0.026 A
HETATM   29  C25 UNL     1       5.304  -2.000  -6.881  1.00  0.00     0.012 A
HETATM   30  C26 UNL     1       5.717  -2.632  -5.750  1.00  0.00     0.001 A
HETATM   31  C27 UNL     1       4.803  -3.351  -4.999  1.00  0.00     0.000 A
HETATM   32  C28 UNL     1       3.463  -3.425  -5.405  1.00  0.00     0.001 A
HETATM   33  C29 UNL     1       3.058  -2.777  -6.558  1.00  0.00     0.012 A
ENDBRANCH  23  28
ENDBRANCH  18  21
ENDBRANCH   9  15
BRANCH   4  34
HETATM   34  C8  UNL     1      -7.196   2.765  -7.756  1.00  0.00     0.128 C
BRANCH  34  35
HETATM   35  C9  UNL     1      -8.182   3.137  -8.839  1.00  0.00     0.047 C
BRANCH  35  36
HETATM   36  C10 UNL     1      -9.592   3.213  -8.368  1.00  0.00     0.234 C
BRANCH  36  37
HETATM   37  N3  UNL     1      -9.701   2.829  -6.983  1.00  0.00    -0.075 N
ATOM     38  H32 UNL     1      -9.461   1.848  -6.840  1.00  0.00     0.277 HD
ATOM     39  H31 UNL     1      -8.967   3.250  -6.414  1.00  0.00     0.277 HD
BRANCH  37  40
HETATM   40  C11 UNL     1     -11.013   3.137  -6.475  1.00  0.00     0.234 C
BRANCH  40  41
HETATM   41  C12 UNL     1     -10.949   4.532  -5.867  1.00  0.00     0.047 C
BRANCH  41  42
HETATM   42  C13 UNL     1      -9.781   4.588  -4.922  1.00  0.00     0.123 C
BRANCH  42  43
HETATM   43  N4  UNL     1     -10.281   4.959  -3.596  1.00  0.00    -0.367 N
HETATM   44  C14 UNL     1     -10.420   4.060  -2.668  1.00  0.00     0.196 C
HETATM   45  N5  UNL     1     -10.096   2.696  -2.898  1.00  0.00    -0.067 NA
HETATM   46  N6  UNL     1     -10.902   4.437  -1.393  1.00  0.00    -0.067 NA
ATOM     47  H4  UNL     1     -10.522   5.930  -3.400  1.00  0.00     0.161 HD
ENDBRANCH  42  43
ENDBRANCH  41  42
ENDBRANCH  40  41
ENDBRANCH  37  40
ENDBRANCH  36  37
ENDBRANCH  35  36
ENDBRANCH  34  35
ENDBRANCH   4  34
BRANCH   2  48
HETATM   48  C3  UNL     1      -6.362   6.052  -4.505  1.00  0.00     0.032 C
BRANCH  48  49
HETATM   49  C4  UNL     1      -5.479   6.369  -3.359  1.00  0.00     0.004 C
BRANCH  49  50
HETATM   50  C5  UNL     1      -5.384   7.827  -3.084  1.00  0.00     0.027 C
BRANCH  50  51
HETATM   51  C6  UNL     1      -4.055   8.467  -3.043  1.00  0.00     0.229 C
BRANCH  51  52
HETATM   52  N1  UNL     1      -3.361   8.682  -4.260  1.00  0.00    -0.079 N
ATOM     53  H13 UNL     1      -3.430   9.668  -4.509  1.00  0.00     0.274 HD
ATOM     54  H12 UNL     1      -2.359   8.589  -4.088  1.00  0.00     0.274 HD
ATOM     55  H11 UNL     1      -3.608   8.119  -5.075  1.00  0.00     0.274 HD
ENDBRANCH  51  52
ENDBRANCH  50  51
ENDBRANCH  49  50
ENDBRANCH  48  49
ENDBRANCH   2  48
TORSDOF 16
ENDMDL