MODEL 2
REMARK VINA RESULT: -6.444654551      1.704      4.488
REMARK  4 active torsions:
REMARK  status: ('A' for Active; 'I' for Inactive)
REMARK    1  A    between atoms: O1_2  and  C2_3
REMARK    2  A    between atoms: C2_3  and  C3_5
REMARK    3  A    between atoms: C6_10  and  C7_11
REMARK    4  A    between atoms: C7_11  and  O3_12
ROOT
HETATM    1  C3  UNL     1      -4.107   3.417  13.452  1.00  0.00     0.201 C
HETATM    2  C4  UNL     1      -2.912   3.659  14.299  1.00  0.00     0.086 C
HETATM    3  N1  UNL     1      -1.978   3.865  14.949  1.00  0.00    -0.196 NA
HETATM    4  C5  UNL     1      -4.810   2.230  14.110  1.00  0.00     0.212 C
HETATM    5  F1  UNL     1      -6.140   2.194  13.846  1.00  0.00    -0.246 F
HETATM    6  C6  UNL     1      -4.024   1.092  13.543  1.00  0.00     0.056 C
HETATM    7  C8  UNL     1      -3.937   1.406  12.093  1.00  0.00    -0.003 C
HETATM    8  C9  UNL     1      -2.808   0.655  11.421  1.00  0.00     0.018 C
HETATM    9  C10 UNL     1      -5.187   1.191  11.312  1.00  0.00     0.018 C
HETATM   10  C11 UNL     1      -3.634   2.910  12.113  1.00  0.00     0.177 C
HETATM   11  C12 UNL     1      -4.262   3.576  10.979  1.00  0.00     0.087 C
HETATM   12  N2  UNL     1      -4.741   4.089  10.074  1.00  0.00    -0.195 NA
HETATM   13  C13 UNL     1      -2.168   3.040  12.020  1.00  0.00     0.087 C
HETATM   14  N3  UNL     1      -1.019   3.156  11.948  1.00  0.00    -0.195 NA
ENDROOT
BRANCH   1  15
HETATM   15  C2  UNL     1      -4.959   4.593  13.379  1.00  0.00     0.287 C
HETATM   16  O2  UNL     1      -4.477   5.733  13.563  1.00  0.00    -0.263 OA
BRANCH  15  17
HETATM   17  O1  UNL     1      -6.305   4.481  13.106  1.00  0.00    -0.325 OA
HETATM   18  C1  UNL     1      -7.154   5.574  13.409  1.00  0.00     0.213 C
ENDBRANCH  15  17
ENDBRANCH   1  15
BRANCH   6  19
HETATM   19  C7  UNL     1      -4.594  -0.254  13.863  1.00  0.00     0.172 C
BRANCH  19  20
HETATM   20  O3  UNL     1      -4.945  -0.249  15.219  1.00  0.00    -0.400 OA
ATOM     21  H3  UNL     1      -5.413   0.560  15.389  1.00  0.00     0.209 HD
ENDBRANCH  19  20
ENDBRANCH   6  19
TORSDOF 4
ENDMDL