MODEL 4
REMARK VINA RESULT: -6.635405904      2.777      3.524
REMARK  2 active torsions:
REMARK  status: ('A' for Active; 'I' for Inactive)
REMARK    1  A    between atoms: C1_2  and  C2_4
REMARK    2  A    between atoms: C2_4  and  N1_5
ROOT
HETATM    1  N1  UNL     1      -3.780   1.904  13.935  1.00  0.00    -0.355 N
ATOM      2  H1  UNL     1      -2.845   1.719  13.573  1.00  0.00     0.162 HD
HETATM    3  C3  UNL     1      -4.140   3.123  14.159  1.00  0.00     0.181 C
HETATM    4  O3  UNL     1      -3.353   4.217  13.947  1.00  0.00    -0.292 OA
HETATM    5  C4  UNL     1      -3.801   5.492  13.555  1.00  0.00     0.172 C
HETATM    6  C5  UNL     1      -3.668   6.513  14.659  1.00  0.00     0.069 C
HETATM    7  C6  UNL     1      -2.261   6.963  14.888  1.00  0.00     0.005 C
HETATM    8  C7  UNL     1      -1.958   8.218  14.096  1.00  0.00     0.002 C
HETATM    9  C8  UNL     1      -1.698   7.758  12.664  1.00  0.00     0.026 C
HETATM   10  C9  UNL     1      -3.024   7.178  12.170  1.00  0.00     0.171 C
HETATM   11  O4  UNL     1      -3.050   5.836  12.424  1.00  0.00    -0.355 OA
HETATM   12  C10 UNL     1      -5.252   5.498  13.126  1.00  0.00     0.079 C
HETATM   13  C11 UNL     1      -6.186   5.140  14.260  1.00  0.00     0.088 C
HETATM   14  S1  UNL     1      -5.796   3.432  14.798  1.00  0.00    -0.087 SA
ENDROOT
BRANCH   1  15
HETATM   15  C2  UNL     1      -4.662   0.807  14.182  1.00  0.00     0.235 C
BRANCH  15  16
HETATM   16  C1  UNL     1      -4.378   0.117  15.466  1.00  0.00     0.191 C
HETATM   17  O1  UNL     1      -4.960  -0.958  15.702  1.00  0.00    -0.647 OA
HETATM   18  O2  UNL     1      -3.491   0.630  16.411  1.00  0.00    -0.647 OA
ENDBRANCH  15  16
ENDBRANCH   1  15
TORSDOF 2
ENDMDL