MODEL 2
REMARK VINA RESULT: -6.558630768      2.716      3.439
REMARK  2 active torsions:
REMARK  status: ('A' for Active; 'I' for Inactive)
REMARK    1  A    between atoms: C2_2  and  O1_3
REMARK    2  A    between atoms: O1_3  and  C3_4
ROOT
HETATM    1  C3  UNL     1      -4.493   0.566  15.218  1.00  0.00     0.181 C
HETATM    2  C4  UNL     1      -4.079   1.619  16.209  1.00  0.00     0.040 C
HETATM    3  C5  UNL     1      -3.624   2.840  15.458  1.00  0.00     0.045 C
HETATM    4  C6  UNL     1      -4.745   3.299  14.583  1.00  0.00     0.106 C
HETATM    5  C7  UNL     1      -5.887   3.920  15.412  1.00  0.00     0.160 C
HETATM    6  N1  UNL     1      -6.536   4.717  14.382  1.00  0.00    -0.383 N
ATOM      7  H1  UNL     1      -7.529   4.952  14.371  1.00  0.00     0.160 HD
HETATM    8  C8  UNL     1      -5.696   5.083  13.497  1.00  0.00     0.069 C
HETATM    9  S1  UNL     1      -5.878   6.073  11.990  1.00  0.00    -0.110 SA
HETATM   10  C9  UNL     1      -4.516   5.520  10.930  1.00  0.00     0.124 C
HETATM   11  C10 UNL     1      -3.302   5.191  11.721  1.00  0.00     0.067 C
HETATM   12  N2  UNL     1      -3.405   4.455  12.870  1.00  0.00    -0.388 N
ATOM     13  H2  UNL     1      -2.691   3.744  13.028  1.00  0.00     0.159 HD
HETATM   14  C11 UNL     1      -4.381   4.582  13.833  1.00  0.00     0.174 C
HETATM   15  O2  UNL     1      -5.303   2.357  13.792  1.00  0.00    -0.339 OA
HETATM   16  C12 UNL     1      -4.850   1.091  13.871  1.00  0.00     0.336 C
HETATM   17  F1  UNL     1      -3.755   0.965  13.003  1.00  0.00    -0.217 F
ENDROOT
BRANCH   1  18
HETATM   18  O1  UNL     1      -5.506  -0.185  15.800  1.00  0.00    -0.381 OA
BRANCH  18  19
HETATM   19  C2  UNL     1      -5.940   0.343  17.007  1.00  0.00     0.164 C
HETATM   20  C1  UNL     1      -7.388   0.690  17.032  1.00  0.00     0.033 C
ENDBRANCH  18  19
ENDBRANCH   1  18
TORSDOF 2
ENDMDL