MODEL 4
REMARK VINA RESULT: -6.015797277      2.412      5.354
REMARK  4 active torsions:
REMARK  status: ('A' for Active; 'I' for Inactive)
REMARK    1  A    between atoms: C2_2  and  C3_3
REMARK    2  A    between atoms: C3_3  and  C4_4
REMARK    3  A    between atoms: C7_10  and  C8_11
REMARK    4  A    between atoms: C11_15  and  O4_16
ROOT
HETATM    1  C4  UNL     1      -4.265   0.172  11.890  1.00  0.00     0.126 C
HETATM    2  C5  UNL     1      -4.206  -1.290  12.116  1.00  0.00     0.052 C
HETATM    3  O1  UNL     1      -5.587   0.659  11.755  1.00  0.00    -0.224 OA
HETATM    4  O2  UNL     1      -5.350   1.956  11.756  1.00  0.00    -0.204 OA
HETATM    5  C6  UNL     1      -4.635   2.232  12.921  1.00  0.00     0.329 C
HETATM    6  O3  UNL     1      -5.557   2.511  13.899  1.00  0.00    -0.341 OA
HETATM    7  C7  UNL     1      -5.207   2.182  15.162  1.00  0.00     0.209 C
HETATM    8  C11 UNL     1      -4.621   0.813  15.328  1.00  0.00     0.290 C
HETATM    9  O5  UNL     1      -4.133   0.233  14.206  1.00  0.00    -0.345 OA
HETATM   10  C12 UNL     1      -3.850   0.982  13.132  1.00  0.00     0.220 C
ENDROOT
BRANCH   1  11
HETATM   11  C3  UNL     1      -3.529   0.649  10.666  1.00  0.00     0.070 C
BRANCH  11  12
HETATM   12  C2  UNL     1      -2.070   0.443  10.936  1.00  0.00    -0.034 C
HETATM   13  C1  UNL     1      -1.136   1.257  10.518  1.00  0.00     0.007 C
ENDBRANCH  11  12
ENDBRANCH   1  11
BRANCH   8  14
HETATM   14  O4  UNL     1      -5.655  -0.014  15.810  1.00  0.00    -0.368 OA
ATOM     15  H4  UNL     1      -5.324  -0.434  16.595  1.00  0.00     0.212 HD
ENDBRANCH   8  14
BRANCH   7  16
HETATM   16  C8  UNL     1      -6.327   2.453  16.083  1.00  0.00    -0.040 C
HETATM   17  C9  UNL     1      -6.927   1.283  16.842  1.00  0.00     0.047 C
HETATM   18  C10 UNL     1      -6.882   3.617  16.329  1.00  0.00     0.089 C
HETATM   19 CL1  UNL     1      -6.301   5.054  15.527  1.00  0.00    -0.097 Cl
ENDBRANCH   7  16
TORSDOF 4
ENDMDL