MODEL 4
REMARK VINA RESULT: -6.657559748      3.090      4.265
REMARK  2 active torsions:
REMARK  status: ('A' for Active; 'I' for Inactive)
REMARK    1  A    between atoms: C2_2  and  N2_6
REMARK    2  A    between atoms: N2_6  and  N4_9
ROOT
HETATM    1  C1  UNL     1      -6.451   2.137  18.408  1.00  0.00     0.057 C
HETATM    2  C2  UNL     1      -6.478   1.401  17.086  1.00  0.00     0.140 C
HETATM    3  C3  UNL     1      -7.905   1.514  16.559  1.00  0.00     0.057 C
HETATM    4  C4  UNL     1      -6.195   0.004  17.319  1.00  0.00     0.092 C
HETATM    5  N1  UNL     1      -5.987  -1.118  17.498  1.00  0.00    -0.195 NA
ENDROOT
BRANCH   2   6
HETATM    6  N2  UNL     1      -5.556   1.977  16.128  1.00  0.00    -0.224 N
HETATM    7  C5  UNL     1      -4.185   1.688  16.270  1.00  0.00     0.197 C
HETATM    8  N3  UNL     1      -3.055   1.468  16.397  1.00  0.00    -0.171 NA
BRANCH   6   9
HETATM    9  N4  UNL     1      -6.063   2.775  15.129  1.00  0.00    -0.217 NA
HETATM   10  C6  UNL     1      -6.768   3.926  15.585  1.00  0.00     0.115 C
HETATM   11  C7  UNL     1      -5.763   5.049  15.352  1.00  0.00     0.030 C
HETATM   12  C8  UNL     1      -4.922   4.636  14.197  1.00  0.00     0.011 C
HETATM   13  C9  UNL     1      -3.463   4.891  14.497  1.00  0.00     0.080 C
HETATM   14  C11 UNL     1      -5.162   5.366  12.933  1.00  0.00     0.131 C
HETATM   15  C14 UNL     1      -5.139   3.150  14.114  1.00  0.00     0.126 C
HETATM   16  C10 UNL     1      -2.934   5.717  13.362  1.00  0.00     0.369 C
HETATM   17  F1  UNL     1      -2.070   6.687  13.831  1.00  0.00    -0.219 F
HETATM   18  N5  UNL     1      -4.103   6.376  12.822  1.00  0.00    -0.035 N
ATOM     19  H52 UNL     1      -4.325   7.267  13.266  1.00  0.00     0.281 HD
ATOM     20  H51 UNL     1      -3.977   6.750  11.881  1.00  0.00     0.281 HD
HETATM   21  C12 UNL     1      -5.092   4.503  11.699  1.00  0.00     0.047 C
HETATM   22  C13 UNL     1      -6.471   6.118  12.885  1.00  0.00     0.047 C
ENDBRANCH   6   9
ENDBRANCH   2   6
TORSDOF 2
ENDMDL