MODEL 4
REMARK VINA RESULT: -7.178363255      1.523      1.853
REMARK  2 active torsions:
REMARK  status: ('A' for Active; 'I' for Inactive)
REMARK    1  A    between atoms: C2_8  and  C3_9
REMARK    2  A    between atoms: C11_18  and  C12_19
ROOT
HETATM    1  C3  UNL     1      -4.791   2.761  14.620  1.00  0.00     0.166 C
HETATM    2  F1  UNL     1      -5.889   3.334  15.310  1.00  0.00    -0.234 F
HETATM    3  C4  UNL     1      -3.568   3.309  15.189  1.00  0.00     0.076 C
HETATM    4  C5  UNL     1      -2.953   4.528  14.640  1.00  0.00     0.080 C
HETATM    5  C6  UNL     1      -3.812   5.750  14.654  1.00  0.00     0.025 C
HETATM    6  C7  UNL     1      -4.223   6.225  13.285  1.00  0.00     0.002 C
HETATM    7  C8  UNL     1      -5.199   5.222  12.752  1.00  0.00     0.007 C
HETATM    8  C9  UNL     1      -4.532   3.918  12.383  1.00  0.00     0.012 C
HETATM    9  C10 UNL     1      -4.998   2.732  13.190  1.00  0.00     0.058 C
HETATM   10  C11 UNL     1      -3.065   4.010  12.255  1.00  0.00     0.085 C
HETATM   11  N5  UNL     1      -2.291   4.266  13.396  1.00  0.00    -0.412 N
ATOM     12  H5  UNL     1      -1.273   4.266  13.341  1.00  0.00     0.154 HD
ENDROOT
BRANCH   1  13
HETATM   13  C2  UNL     1      -4.805   1.330  15.064  1.00  0.00     0.152 A
HETATM   14  N1  UNL     1      -4.522   0.198  14.406  1.00  0.00    -0.263 N
HETATM   15  C1  UNL     1      -4.250   0.109  13.004  1.00  0.00     0.176 C
HETATM   16  N2  UNL     1      -4.657  -0.786  15.305  1.00  0.00    -0.003 NA
HETATM   17  N3  UNL     1      -5.020  -0.272  16.489  1.00  0.00    -0.225 N
HETATM   18  N4  UNL     1      -5.107   1.023  16.328  1.00  0.00    -0.272 N
ATOM     19  H3  UNL     1      -5.195  -0.790  17.350  1.00  0.00     0.205 HD
ATOM     20  H4  UNL     1      -5.365   1.693  17.054  1.00  0.00     0.189 HD
ENDBRANCH   1  13
BRANCH  10  21
HETATM   21  C12 UNL     1      -2.558   2.779  11.525  1.00  0.00     0.008 A
HETATM   22  C13 UNL     1      -1.729   2.987  10.280  1.00  0.00     0.007 A
HETATM   23  C14 UNL     1      -1.090   2.462  11.534  1.00  0.00     0.007 A
ENDBRANCH  10  21
TORSDOF 2
ENDMDL