MODEL 1
REMARK VINA RESULT: -6.551228397      0.000      0.000
REMARK  4 active torsions:
REMARK  status: ('A' for Active; 'I' for Inactive)
REMARK    1  A    between atoms: N1_4  and  C4_5
REMARK    2  A    between atoms: C4_5  and  C5_6
REMARK    3  A    between atoms: C5_6  and  C6_8
REMARK    4  A    between atoms: C6_8  and  O2_9
ROOT
HETATM    1  C5  UNL     1      -5.135   2.835  12.428  1.00  0.00     0.199 C
HETATM    2  O1  UNL     1      -5.163   4.031  12.171  1.00  0.00    -0.292 OA
ENDROOT
BRANCH   1   3
HETATM    3  C4  UNL     1      -5.784   2.297  13.656  1.00  0.00     0.354 C
BRANCH   3   4
HETATM    4  N1  UNL     1      -5.437   2.965  14.863  1.00  0.00     0.100 N
HETATM    5  C3  UNL     1      -6.285   2.717  15.978  1.00  0.00     0.304 C
HETATM    6  C2  UNL     1      -6.011   1.413  16.692  1.00  0.00     0.145 C
HETATM    7  C1  UNL     1      -6.719   1.462  18.047  1.00  0.00     0.041 C
HETATM    8  O3  UNL     1      -4.665   1.240  16.968  1.00  0.00    -0.383 OA
HETATM    9  C12 UNL     1      -4.004   1.260  15.727  1.00  0.00     0.198 C
HETATM   10  C11 UNL     1      -4.065   2.659  15.202  1.00  0.00     0.299 C
ENDBRANCH   3   4
ENDBRANCH   1   3
BRANCH   1  11
HETATM   11  C6  UNL     1      -4.457   1.854  11.538  1.00  0.00     0.168 C
HETATM   12  C7  UNL     1      -4.763   0.472  12.036  1.00  0.00     0.057 C
HETATM   13  C8  UNL     1      -3.706  -0.537  11.721  1.00  0.00     0.005 C
HETATM   14  C9  UNL     1      -2.866  -0.185  10.522  1.00  0.00     0.010 C
HETATM   15  C10 UNL     1      -1.819   0.862  10.807  1.00  0.00     0.077 C
HETATM   16  S1  UNL     1      -2.685   2.236  11.613  1.00  0.00    -0.124 SA
BRANCH  11  17
HETATM   17  O2  UNL     1      -4.963   1.973  10.260  1.00  0.00    -0.372 OA
ATOM     18  H2  UNL     1      -5.073   1.106   9.885  1.00  0.00     0.212 HD
ENDBRANCH  11  17
ENDBRANCH   1  11
TORSDOF 4
ENDMDL