MODEL 1
REMARK VINA RESULT: -7.408042080      0.000      0.000
REMARK  6 active torsions:
REMARK  status: ('A' for Active; 'I' for Inactive)
REMARK    1  A    between atoms: N1_1  and  N2_4
REMARK    2  A    between atoms: N2_4  and  N3_5
REMARK    3  A    between atoms: N3_5  and  C1_7
REMARK    4  A    between atoms: C1_7  and  O1_8
REMARK    5  A    between atoms: C7_16  and  C8_17
REMARK    6  A    between atoms: N4_18  and  O2_20
ROOT
HETATM    1  C1  UNL     1      -4.354   2.020  14.567  1.00  0.00     0.260 C
HETATM    2  C2  UNL     1      -3.721   3.333  14.242  1.00  0.00     0.164 C
HETATM    3 CL1  UNL     1      -4.615   4.697  14.974  1.00  0.00    -0.118 Cl
HETATM    4  C3  UNL     1      -3.787   3.445  12.737  1.00  0.00     0.052 C
HETATM    5  C4  UNL     1      -3.679   1.987  12.276  1.00  0.00     0.093 C
HETATM    6  C5  UNL     1      -4.568   1.807  11.106  1.00  0.00     0.027 C
HETATM    7  C6  UNL     1      -4.863   0.428  10.692  1.00  0.00     0.021 C
HETATM    8  C7  UNL     1      -4.576  -0.641  11.689  1.00  0.00     0.118 C
HETATM    9  C9  UNL     1      -4.553  -0.138  13.091  1.00  0.00     0.233 C
HETATM   10  O3  UNL     1      -4.810  -0.890  14.066  1.00  0.00    -0.272 OA
HETATM   11  N5  UNL     1      -4.239   1.218  13.388  1.00  0.00    -0.294 N
ENDROOT
BRANCH   1  12
HETATM   12  N3  UNL     1      -3.642   1.336  15.636  1.00  0.00    -0.196 N
ATOM     13  H3  UNL     1      -2.623   1.377  15.654  1.00  0.00     0.202 HD
BRANCH  12  14
HETATM   14  N2  UNL     1      -4.221   0.714  16.512  1.00  0.00    -0.244 NA
BRANCH  14  15
HETATM   15  N1  UNL     1      -5.041   0.042  17.157  1.00  0.00    -0.261 N
ATOM     16  H12 UNL     1      -5.802   0.215  16.500  1.00  0.00     0.193 HD
ATOM     17  H11 UNL     1      -5.496  -0.547  17.855  1.00  0.00     0.193 HD
ENDBRANCH  14  15
ENDBRANCH  12  14
ENDBRANCH   1  12
BRANCH   1  18
HETATM   18  O1  UNL     1      -5.665   2.183  14.995  1.00  0.00    -0.351 OA
ATOM     19  H1  UNL     1      -5.984   2.989  14.608  1.00  0.00     0.214 HD
ENDBRANCH   1  18
BRANCH   8  20
HETATM   20  C8  UNL     1      -3.350  -1.416  11.367  1.00  0.00     0.100 C
HETATM   21  N4  UNL     1      -3.175  -2.635  11.657  1.00  0.00    -0.283 N
ATOM     22  H4  UNL     1      -3.941  -3.099  12.145  1.00  0.00     0.192 HD
BRANCH  21  23
HETATM   23  O2  UNL     1      -2.090  -3.389  11.392  1.00  0.00    -0.291 OA
ATOM     24  H2  UNL     1      -1.517  -3.812  12.021  1.00  0.00     0.244 HD
ENDBRANCH  21  23
ENDBRANCH   8  20
TORSDOF 6
ENDMDL