MODEL 5
REMARK VINA RESULT: -6.096992451      2.609      3.441
REMARK  3 active torsions:
REMARK  status: ('A' for Active; 'I' for Inactive)
REMARK    1  A    between atoms: C7_9  and  C8_10
REMARK    2  A    between atoms: C11_15  and  C12_16
REMARK    3  A    between atoms: C12_16  and  O4_17
ROOT
HETATM    1  C1  UNL     1      -6.404   3.143  14.066  1.00  0.00     0.048 C
HETATM    2  C2  UNL     1      -5.334   4.118  13.564  1.00  0.00     0.083 C
HETATM    3  C3  UNL     1      -5.357   5.380  14.357  1.00  0.00     0.048 C
HETATM    4  O1  UNL     1      -5.648   4.399  12.224  1.00  0.00    -0.308 OA
HETATM    5  C4  UNL     1      -4.770   4.639  11.214  1.00  0.00     0.273 C
HETATM    6  O2  UNL     1      -5.238   5.026  10.093  1.00  0.00    -0.264 OA
HETATM    7  C5  UNL     1      -3.298   4.493  11.291  1.00  0.00     0.148 C
HETATM    8  C6  UNL     1      -2.973   3.010  11.366  1.00  0.00     0.034 C
HETATM    9  C7  UNL     1      -3.954   2.495  12.426  1.00  0.00     0.040 C
HETATM   10  C11 UNL     1      -3.960   3.432  13.576  1.00  0.00     0.067 C
HETATM   11  S1  UNL     1      -2.874   4.840  13.060  1.00  0.00    -0.138 SA
ENDROOT
BRANCH   9  12
HETATM   12  C8  UNL     1      -3.768   1.056  12.719  1.00  0.00     0.135 C
HETATM   13  C9  UNL     1      -3.153   0.153  11.727  1.00  0.00     0.098 C
HETATM   14  C10 UNL     1      -4.223  -0.771  12.280  1.00  0.00     0.309 C
HETATM   15  F1  UNL     1      -4.810  -1.603  11.379  1.00  0.00    -0.220 F
HETATM   16  O3  UNL     1      -4.993   0.375  12.515  1.00  0.00    -0.351 OA
ENDBRANCH   9  12
BRANCH  10  17
HETATM   17  C12 UNL     1      -3.566   2.945  14.902  1.00  0.00     0.188 C
BRANCH  17  18
HETATM   18  O4  UNL     1      -2.278   3.479  15.167  1.00  0.00    -0.399 OA
ATOM     19  H4  UNL     1      -1.664   2.995  14.627  1.00  0.00     0.209 HD
ENDBRANCH  17  18
ENDBRANCH  10  17
TORSDOF 3
ENDMDL