MODEL 2
REMARK VINA RESULT: -7.009325220      3.934      5.604
REMARK  3 active torsions:
REMARK  status: ('A' for Active; 'I' for Inactive)
REMARK    1  A    between atoms: C3_4  and  S1_5
REMARK    2  A    between atoms: S1_5  and  C4_6
REMARK    3  A    between atoms: C12_18  and  O3_19
ROOT
HETATM    1  C1  UNL     1      -6.151   1.352  17.389  1.00  0.00     0.042 C
HETATM    2  C2  UNL     1      -5.713   1.560  15.977  1.00  0.00     0.157 C
HETATM    3  O1  UNL     1      -5.238   2.847  15.709  1.00  0.00    -0.363 OA
HETATM    4  C3  UNL     1      -5.602   3.239  14.406  1.00  0.00     0.237 C
HETATM    5  C10 UNL     1      -4.522   2.859  13.423  1.00  0.00     0.311 C
HETATM    6  F1  UNL     1      -3.284   2.996  14.079  1.00  0.00    -0.223 F
HETATM    7  N1  UNL     1      -4.584   1.413  13.168  1.00  0.00    -0.326 N
ATOM      8  H1  UNL     1      -4.666   1.106  12.199  1.00  0.00     0.165 HD
HETATM    9  C11 UNL     1      -4.539   0.419  14.166  1.00  0.00     0.251 C
HETATM   10  O2  UNL     1      -4.419  -0.794  13.793  1.00  0.00    -0.270 OA
HETATM   11  C12 UNL     1      -4.612   0.576  15.653  1.00  0.00     0.238 C
ENDROOT
BRANCH   4  12
HETATM   12  S1  UNL     1      -6.105   4.908  14.294  1.00  0.00    -0.128 SA
BRANCH  12  13
HETATM   13  C4  UNL     1      -6.431   5.628  12.717  1.00  0.00     0.050 C
HETATM   14  C5  UNL     1      -7.412   6.747  12.731  1.00  0.00     0.015 C
HETATM   15  C6  UNL     1      -7.605   7.161  11.261  1.00  0.00     0.001 C
HETATM   16  C7  UNL     1      -6.435   8.042  10.926  1.00  0.00     0.000 C
HETATM   17  C8  UNL     1      -5.244   7.618  11.710  1.00  0.00     0.001 C
HETATM   18  C9  UNL     1      -5.169   6.151  12.025  1.00  0.00     0.015 C
ENDBRANCH  12  13
ENDBRANCH   4  12
BRANCH  11  19
HETATM   19  O3  UNL     1      -3.435   1.072  16.202  1.00  0.00    -0.384 OA
ATOM     20  H3  UNL     1      -3.186   1.838  15.699  1.00  0.00     0.210 HD
ENDBRANCH  11  19
TORSDOF 3
ENDMDL