MODEL 4
REMARK VINA RESULT: -6.733558819      2.163      7.005
REMARK  9 active torsions:
REMARK  status: ('A' for Active; 'I' for Inactive)
REMARK    1  A    between atoms: C3_3  and  C4_4
REMARK    2  A    between atoms: C4_4  and  C5_5
REMARK    3  A    between atoms: C5_5  and  N1_6
REMARK    4  A    between atoms: N1_6  and  C6_7
REMARK    5  A    between atoms: C6_7  and  C7_8
REMARK    6  A    between atoms: C12_15  and  C13_16
REMARK    7  A    between atoms: C13_16  and  C14_17
REMARK    8  A    between atoms: C14_17  and  N3_18
REMARK    9  A    between atoms: C19_26  and  N4_28
ROOT
HETATM    1  C1  UNL     1      20.438 -12.195  20.315  1.00  0.00     0.112 C
HETATM    2  C2  UNL     1      19.053 -12.060  19.865  1.00  0.00    -0.111 C
HETATM    3  C3  UNL     1      17.913 -11.930  19.480  1.00  0.00    -0.105 C
ENDROOT
BRANCH   3   4
HETATM    4  C4  UNL     1      16.519 -11.745  18.993  1.00  0.00     0.123 C
BRANCH   4   5
HETATM    5  C5  UNL     1      15.740 -12.873  19.629  1.00  0.00     0.265 C
BRANCH   5   6
HETATM    6  N1  UNL     1      15.131 -12.374  20.853  1.00  0.00     0.022 N
HETATM    7  C17 UNL     1      15.620 -11.118  21.219  1.00  0.00     0.212 C
HETATM    8  C18 UNL     1      14.625 -10.282  21.437  1.00  0.00     0.050 C
HETATM    9  C19 UNL     1      13.336 -10.932  21.228  1.00  0.00     0.262 C
HETATM   10  C20 UNL     1      12.545 -10.125  20.229  1.00  0.00     0.065 C
HETATM   11  C23 UNL     1      13.745 -12.224  20.618  1.00  0.00     0.365 C
HETATM   12  O1  UNL     1      12.973 -12.965  20.039  1.00  0.00    -0.261 OA
BRANCH   6  13
HETATM   13  C6  UNL     1      15.247 -13.366  21.920  1.00  0.00     0.291 C
BRANCH  13  14
HETATM   14  C7  UNL     1      16.564 -14.007  22.011  1.00  0.00    -0.030 A
HETATM   15  C8  UNL     1      16.852 -15.126  21.273  1.00  0.00     0.011 A
HETATM   16  C9  UNL     1      18.086 -15.710  21.382  1.00  0.00     0.031 A
HETATM   17  C10 UNL     1      19.037 -15.186  22.224  1.00  0.00     0.043 A
HETATM   18  N2  UNL     1      20.306 -15.570  22.507  1.00  0.00    -0.365 N
HETATM   19  C15 UNL     1      18.788 -14.059  22.986  1.00  0.00    -0.001 A
HETATM   20  C11 UNL     1      20.843 -14.721  23.414  1.00  0.00     0.096 A
ATOM     21  H2  UNL     1      20.782 -16.375  22.099  1.00  0.00     0.165 HD
HETATM   22  C12 UNL     1      19.908 -13.763  23.732  1.00  0.00    -0.029 A
HETATM   23  C16 UNL     1      17.530 -13.501  22.846  1.00  0.00     0.023 A
BRANCH  22  24
HETATM   24  C13 UNL     1      20.068 -12.639  24.699  1.00  0.00     0.068 C
BRANCH  24  25
HETATM   25  C14 UNL     1      20.188 -13.165  26.119  1.00  0.00     0.234 C
BRANCH  25  26
HETATM   26  N3  UNL     1      20.834 -12.192  26.983  1.00  0.00    -0.079 N
ATOM     27  H33 UNL     1      20.791 -11.252  26.590  1.00  0.00     0.274 HD
ATOM     28  H32 UNL     1      20.296 -12.030  27.834  1.00  0.00     0.274 HD
ATOM     29  H31 UNL     1      21.794 -12.467  27.193  1.00  0.00     0.274 HD
ENDBRANCH  25  26
ENDBRANCH  24  25
ENDBRANCH  22  24
ENDBRANCH  13  14
ENDBRANCH   6  13
BRANCH   9  30
HETATM   30  N4  UNL     1      12.589 -11.162  22.449  1.00  0.00     0.102 N
HETATM   31  C21 UNL     1      12.170  -9.936  23.076  1.00  0.00     0.311 C
HETATM   32  C22 UNL     1      11.453 -12.009  22.214  1.00  0.00     0.311 C
ENDBRANCH   9  30
ENDBRANCH   5   6
ENDBRANCH   4   5
ENDBRANCH   3   4
TORSDOF 9
ENDMDL