MODEL 3
REMARK VINA RESULT: -6.127993443      2.778      8.197
REMARK  9 active torsions:
REMARK  status: ('A' for Active; 'I' for Inactive)
REMARK    1  A    between atoms: C3_3  and  C4_4
REMARK    2  A    between atoms: C5_5  and  C6_6
REMARK    3  A    between atoms: N3_20  and  C16_21
REMARK    4  A    between atoms: C16_21  and  C17_22
REMARK    5  A    between atoms: C17_22  and  C18_23
REMARK    6  A    between atoms: C18_23  and  C19_24
REMARK    7  A    between atoms: C19_24  and  C20_25
REMARK    8  A    between atoms: C20_25  and  C21_26
REMARK    9  A    between atoms: C21_26  and  C22_27
ROOT
HETATM    1  C1  UNL     1      22.999 -13.234  24.354  1.00  0.00     0.113 C
HETATM    2  C2  UNL     1      21.747 -13.431  23.603  1.00  0.00    -0.097 C
HETATM    3  C3  UNL     1      20.717 -13.600  22.995  1.00  0.00    -0.015 C
ENDROOT
BRANCH   3   4
HETATM    4  C4  UNL     1      19.514 -13.820  22.287  1.00  0.00    -0.011 C
HETATM    5  C5  UNL     1      18.476 -14.001  21.699  1.00  0.00    -0.064 C
BRANCH   5   6
HETATM    6  C6  UNL     1      17.212 -14.209  21.011  1.00  0.00     0.069 C
HETATM    7  C7  UNL     1      16.195 -13.397  21.156  1.00  0.00    -0.054 A
HETATM    8  C8  UNL     1      15.998 -12.160  21.953  1.00  0.00     0.073 A
HETATM    9  C24 UNL     1      14.858 -13.270  20.676  1.00  0.00     0.052 A
HETATM   10  C9  UNL     1      14.523 -12.091  21.528  1.00  0.00     0.244 A
HETATM   11  N1  UNL     1      14.237 -11.070  20.545  1.00  0.00     0.091 N
HETATM   12  C10 UNL     1      13.422 -10.002  21.083  1.00  0.00     0.310 C
HETATM   13  C11 UNL     1      13.517 -11.785  19.478  1.00  0.00     0.283 C
HETATM   14  C12 UNL     1      14.377 -13.030  19.354  1.00  0.00     0.067 A
HETATM   15  C13 UNL     1      13.956 -14.237  20.186  1.00  0.00    -0.011 A
HETATM   16  C14 UNL     1      13.180 -15.315  20.110  1.00  0.00     0.128 A
HETATM   17  N2  UNL     1      13.011 -16.299  21.150  1.00  0.00    -0.292 N
HETATM   18  N4  UNL     1      12.352 -15.762  19.042  1.00  0.00    -0.279 N
HETATM   19  C15 UNL     1      12.110 -17.281  20.683  1.00  0.00     0.342 A
ATOM     20  H2  UNL     1      13.465 -16.288  22.064  1.00  0.00     0.172 HD
HETATM   21  O1  UNL     1      11.725 -18.306  21.335  1.00  0.00    -0.245 OA
HETATM   22  N3  UNL     1      11.690 -16.943  19.345  1.00  0.00    -0.241 N
ATOM     23  H4  UNL     1      12.256 -15.270  18.154  1.00  0.00     0.189 HD
BRANCH  22  24
HETATM   24  C16 UNL     1      10.757 -17.760  18.609  1.00  0.00     0.154 C
BRANCH  24  25
HETATM   25  C17 UNL     1      11.518 -18.909  17.937  1.00  0.00     0.022 C
BRANCH  25  26
HETATM   26  C18 UNL     1      12.079 -18.449  16.658  1.00  0.00     0.002 C
BRANCH  26  27
HETATM   27  C19 UNL     1      13.541 -18.463  16.526  1.00  0.00     0.000 C
BRANCH  27  28
HETATM   28  C20 UNL     1      14.273 -17.211  16.438  1.00  0.00     0.000 C
BRANCH  28  29
HETATM   29  C21 UNL     1      15.320 -16.813  17.403  1.00  0.00    -0.000 C
BRANCH  29  30
HETATM   30  C22 UNL     1      15.316 -17.920  18.523  1.00  0.00    -0.005 C
HETATM   31  C23 UNL     1      16.189 -17.432  19.658  1.00  0.00     0.005 C
ENDBRANCH  29  30
ENDBRANCH  28  29
ENDBRANCH  27  28
ENDBRANCH  26  27
ENDBRANCH  25  26
ENDBRANCH  24  25
ENDBRANCH  22  24
ENDBRANCH   5   6
ENDBRANCH   3   4
TORSDOF 9
ENDMDL