MODEL 1
REMARK VINA RESULT: -7.007527228      0.000      0.000
REMARK  10 active torsions:
REMARK  status: ('A' for Active; 'I' for Inactive)
REMARK    1  A    between atoms: C3_3  and  C4_4
REMARK    2  A    between atoms: C4_4  and  N1_7
REMARK    3  A    between atoms: N1_7  and  C7_9
REMARK    4  A    between atoms: C7_9  and  C8_13
REMARK    5  A    between atoms: N3_14  and  C9_15
REMARK    6  A    between atoms: C9_15  and  C10_16
REMARK    7  A    between atoms: C10_16  and  C11_17
REMARK    8  A    between atoms: C11_17  and  N4_18
REMARK       I    between atoms: N5_24  and  C17_25
REMARK    9  A    between atoms: C17_25  and  C18_27
REMARK   10  A    between atoms: C19_28  and  C20_29
ROOT
HETATM    1  C1  UNL     1      20.116 -12.125  19.858  1.00  0.00     0.112 C
HETATM    2  C2  UNL     1      19.157 -12.750  20.788  1.00  0.00    -0.108 C
HETATM    3  C3  UNL     1      18.379 -13.269  21.558  1.00  0.00    -0.076 C
ENDROOT
BRANCH   3   4
HETATM    4  C4  UNL     1      17.459 -13.900  22.500  1.00  0.00     0.088 C
HETATM    5  C5  UNL     1      17.267 -15.346  22.035  1.00  0.00     0.052 C
HETATM    6  C6  UNL     1      18.069 -13.989  23.884  1.00  0.00     0.052 C
BRANCH   4   7
HETATM    7  N1  UNL     1      16.220 -13.188  22.488  1.00  0.00    -0.357 N
ATOM      8  H1  UNL     1      16.173 -12.286  22.962  1.00  0.00     0.162 HD
BRANCH   7   9
HETATM    9  C7  UNL     1      15.042 -13.682  21.841  1.00  0.00     0.116 C
HETATM   10  N2  UNL     1      14.420 -14.632  22.495  1.00  0.00    -0.386 N
ATOM     11  H22 UNL     1      14.773 -14.972  23.389  1.00  0.00     0.157 HD
ATOM     12  H21 UNL     1      13.581 -14.984  22.034  1.00  0.00     0.157 HD
BRANCH   9  13
HETATM   13  C8  UNL     1      14.537 -13.198  20.564  1.00  0.00     0.261 C
HETATM   14  N3  UNL     1      14.968 -13.838  19.387  1.00  0.00    -0.344 N
HETATM   15  C15 UNL     1      15.491 -12.845  18.547  1.00  0.00     0.085 C
HETATM   16  C16 UNL     1      15.887 -11.671  19.415  1.00  0.00     0.173 C
HETATM   17  N5  UNL     1      14.852 -11.777  20.448  1.00  0.00    -0.315 N
HETATM   18  C17 UNL     1      14.312 -10.696  21.144  1.00  0.00     0.245 C
HETATM   19  O1  UNL     1      14.718  -9.523  20.907  1.00  0.00    -0.268 OA
BRANCH  14  20
HETATM   20  C9  UNL     1      15.590 -15.083  19.451  1.00  0.00     0.067 C
BRANCH  20  21
HETATM   21  C10 UNL     1      14.892 -16.232  18.807  1.00  0.00     0.072 C
BRANCH  21  22
HETATM   22  C11 UNL     1      13.959 -16.963  19.753  1.00  0.00     0.241 C
BRANCH  22  23
HETATM   23  N4  UNL     1      12.570 -16.773  19.380  1.00  0.00    -0.078 N
HETATM   24  C12 UNL     1      11.926 -18.077  19.522  1.00  0.00     0.271 C
HETATM   25  C13 UNL     1      12.484 -16.328  17.993  1.00  0.00     0.271 C
HETATM   26  C14 UNL     1      11.873 -15.877  20.272  1.00  0.00     0.271 C
ENDBRANCH  22  23
ENDBRANCH  21  22
ENDBRANCH  20  21
ENDBRANCH  14  20
BRANCH  18  27
HETATM   27  C18 UNL     1      13.277 -10.892  22.151  1.00  0.00     0.074 C
HETATM   28  C19 UNL     1      12.550  -9.877  22.575  1.00  0.00     0.005 C
BRANCH  28  29
HETATM   29  C20 UNL     1      11.512 -10.054  23.581  1.00  0.00    -0.004 C
HETATM   30  C21 UNL     1      11.217  -9.094  24.433  1.00  0.00    -0.031 C
HETATM   31  C22 UNL     1      11.900  -7.786  24.442  1.00  0.00     0.036 C
ENDBRANCH  28  29
ENDBRANCH  18  27
ENDBRANCH   9  13
ENDBRANCH   7   9
ENDBRANCH   4   7
ENDBRANCH   3   4
TORSDOF 10
ENDMDL