MODEL 2
REMARK VINA RESULT: -7.488772630      1.065      1.980
REMARK  10 active torsions:
REMARK  status: ('A' for Active; 'I' for Inactive)
REMARK    1  A    between atoms: C2_2  and  N1_3
REMARK    2  A    between atoms: N1_3  and  C3_4
REMARK    3  A    between atoms: C5_6  and  O1_7
REMARK    4  A    between atoms: C5_6  and  N2_9
REMARK    5  A    between atoms: N2_9  and  C6_11
REMARK    6  A    between atoms: C13_18  and  O2_19
REMARK    7  A    between atoms: C13_18  and  C14_21
REMARK    8  A    between atoms: C15_22  and  C16_23
REMARK    9  A    between atoms: C16_23  and  N3_24
REMARK   10  A    between atoms: N3_24  and  C17_25
ROOT
HETATM    1  C6  UNL     1      12.430 -13.430  21.084  1.00  0.00     0.093 C
HETATM    2  C7  UNL     1      12.264 -14.960  21.008  1.00  0.00     0.034 C
HETATM    3  C8  UNL     1      13.690 -15.334  20.674  1.00  0.00     0.035 C
HETATM    4  C9  UNL     1      14.198 -14.214  19.814  1.00  0.00    -0.032 C
HETATM    5  C10 UNL     1      15.613 -14.309  19.341  1.00  0.00     0.016 C
HETATM    6  C11 UNL     1      13.329 -13.807  18.660  1.00  0.00     0.016 C
HETATM    7  C12 UNL     1      13.955 -13.396  21.086  1.00  0.00     0.055 C
HETATM    8  C13 UNL     1      14.346 -14.575  21.860  1.00  0.00     0.086 C
ENDROOT
BRANCH   8   9
HETATM    9  O2  UNL     1      13.573 -14.934  22.994  1.00  0.00    -0.385 OA
ATOM     10  H2  UNL     1      14.207 -15.076  23.687  1.00  0.00     0.211 HD
ENDBRANCH   8   9
BRANCH   8  11
HETATM   11  C14 UNL     1      15.717 -14.933  22.134  1.00  0.00     0.009 C
HETATM   12  C15 UNL     1      16.631 -14.073  22.535  1.00  0.00    -0.000 C
BRANCH  12  13
HETATM   13  C16 UNL     1      18.047 -14.461  22.818  1.00  0.00     0.264 C
BRANCH  13  14
HETATM   14  N3  UNL     1      18.966 -13.508  22.215  1.00  0.00    -0.064 N
HETATM   15  C19 UNL     1      18.247 -12.317  21.800  1.00  0.00     0.238 C
HETATM   16  C20 UNL     1      18.907 -11.760  20.565  1.00  0.00     0.029 C
HETATM   17  C21 UNL     1      20.016 -12.743  20.249  1.00  0.00     0.029 C
HETATM   18  C22 UNL     1      19.568 -14.009  20.991  1.00  0.00     0.238 C
BRANCH  14  19
HETATM   19  C17 UNL     1      20.029 -13.244  23.130  1.00  0.00     0.233 C
HETATM   20  C18 UNL     1      19.683 -13.256  24.579  1.00  0.00     0.035 C
ENDBRANCH  14  19
ENDBRANCH  13  14
ENDBRANCH  12  13
ENDBRANCH   8  11
BRANCH   1  21
HETATM   21  N2  UNL     1      11.802 -12.807  22.175  1.00  0.00    -0.351 N
ATOM     22  H2  UNL     1      11.185 -13.414  22.715  1.00  0.00     0.163 HD
BRANCH  21  23
HETATM   23  C5  UNL     1      11.880 -11.521  22.632  1.00  0.00     0.215 C
HETATM   24  N1  UNL     1      11.957 -10.245  23.087  1.00  0.00    -0.348 N
BRANCH  24  25
HETATM   25  C2  UNL     1      11.202  -9.610  24.141  1.00  0.00     0.122 C
HETATM   26  C1  UNL     1      11.695  -8.174  24.395  1.00  0.00     0.026 C
ENDBRANCH  24  25
BRANCH  24  27
HETATM   27  C3  UNL     1      12.997  -9.331  22.478  1.00  0.00     0.122 C
HETATM   28  C4  UNL     1      13.066  -9.621  21.002  1.00  0.00     0.026 C
ENDBRANCH  24  27
BRANCH  23  29
HETATM   29  O1  UNL     1      10.809 -11.829  23.800  1.00  0.00    -0.333 OA
ATOM     30  H1  UNL     1      11.143 -12.717  23.839  1.00  0.00     0.220 HD
ENDBRANCH  23  29
ENDBRANCH  21  23
ENDBRANCH   1  21
TORSDOF 10
ENDMDL