MODEL 1
REMARK VINA RESULT: -7.483299952      0.000      0.000
REMARK  7 active torsions:
REMARK  status: ('A' for Active; 'I' for Inactive)
REMARK    1  A    between atoms: C3_3  and  C4_4
REMARK    2  A    between atoms: C5_5  and  C6_6
REMARK    3  A    between atoms: C6_6  and  C7_7
REMARK    4  A    between atoms: C7_7  and  C8_8
REMARK    5  A    between atoms: C8_8  and  C9_9
REMARK    6  A    between atoms: C9_9  and  C10_10
REMARK    7  A    between atoms: C10_10  and  N1_11
ROOT
HETATM    1  C10 UNL     1      13.287 -15.618  19.365  1.00  0.00     0.137 C
ENDROOT
BRANCH   1   2
HETATM    2  C9  UNL     1      14.575 -15.216  18.685  1.00  0.00     0.020 C
BRANCH   2   3
HETATM    3  C8  UNL     1      14.287 -14.267  17.551  1.00  0.00     0.002 C
BRANCH   3   4
HETATM    4  C7  UNL     1      15.324 -13.179  17.385  1.00  0.00     0.004 C
BRANCH   4   5
HETATM    5  C6  UNL     1      15.183 -12.177  18.474  1.00  0.00     0.027 C
BRANCH   5   6
HETATM    6  C5  UNL     1      16.470 -11.961  19.257  1.00  0.00    -0.026 C
HETATM    7  C4  UNL     1      17.000 -12.882  19.957  1.00  0.00     0.009 C
BRANCH   7   8
HETATM    8  C3  UNL     1      18.158 -13.017  20.787  1.00  0.00    -0.014 A
HETATM    9  C2  UNL     1      18.167 -13.623  22.002  1.00  0.00     0.017 A
HETATM   10  C1  UNL     1      16.981 -14.283  22.562  1.00  0.00     0.069 C
HETATM   11  N4  UNL     1      19.340 -13.641  22.711  1.00  0.00    -0.364 N
HETATM   12  C19 UNL     1      20.482 -13.098  22.282  1.00  0.00     0.090 A
HETATM   13  C20 UNL     1      19.310 -14.301  24.028  1.00  0.00     0.155 C
HETATM   14  C18 UNL     1      20.508 -12.483  21.064  1.00  0.00     0.018 A
HETATM   15  C17 UNL     1      19.359 -12.444  20.327  1.00  0.00     0.014 A
ENDBRANCH   7   8
ENDBRANCH   5   6
ENDBRANCH   4   5
ENDBRANCH   3   4
ENDBRANCH   2   3
ENDBRANCH   1   2
BRANCH   1  16
HETATM   16  N1  UNL     1      13.123 -14.929  20.636  1.00  0.00    -0.266 N
HETATM   17  C11 UNL     1      13.357 -15.407  21.946  1.00  0.00     0.327 C
HETATM   18  O1  UNL     1      13.769 -16.587  22.192  1.00  0.00    -0.247 OA
HETATM   19  N2  UNL     1      13.056 -14.374  22.870  1.00  0.00    -0.308 N
HETATM   20  C12 UNL     1      12.909 -13.159  22.145  1.00  0.00     0.194 C
ATOM     21  H2  UNL     1      12.962 -14.483  23.879  1.00  0.00     0.167 HD
HETATM   22  C13 UNL     1      14.156 -12.304  22.148  1.00  0.00     0.073 C
HETATM   23  N3  UNL     1      11.864 -12.303  22.648  1.00  0.00    -0.327 N
HETATM   24  C16 UNL     1      12.678 -13.596  20.748  1.00  0.00     0.277 C
HETATM   25  C14 UNL     1      13.606 -10.958  21.727  1.00  0.00     0.107 C
HETATM   26  C15 UNL     1      12.263 -10.967  22.341  1.00  0.00     0.220 C
HETATM   27  O2  UNL     1      11.568  -9.943  22.562  1.00  0.00    -0.274 OA
ATOM     28  H3  UNL     1      11.011 -12.593  23.127  1.00  0.00     0.165 HD
HETATM   29  O3  UNL     1      12.163 -12.851  19.852  1.00  0.00    -0.268 OA
ENDBRANCH   1  16
TORSDOF 7
ENDMDL