MODEL 5
REMARK VINA RESULT: -7.717826321      2.221      8.210
REMARK  8 active torsions:
REMARK  status: ('A' for Active; 'I' for Inactive)
REMARK    1  A    between atoms: C2_2  and  C4_4
REMARK    2  A    between atoms: C4_4  and  N1_5
REMARK    3  A    between atoms: N1_5  and  C6_7
REMARK    4  A    between atoms: N1_5  and  C8_11
REMARK    5  A    between atoms: C6_7  and  C7_8
REMARK    6  A    between atoms: C7_8  and  O1_9
REMARK    7  A    between atoms: C8_11  and  C9_12
REMARK    8  A    between atoms: C9_12  and  C10_13
ROOT
HETATM    1  C10 UNL     1      17.526 -13.578  22.645  1.00  0.00    -0.054 A
HETATM    2  C11 UNL     1      18.492 -12.671  22.344  1.00  0.00     0.008 A
HETATM    3  C12 UNL     1      19.787 -12.905  22.815  1.00  0.00     0.015 A
HETATM    4  C13 UNL     1      20.072 -14.024  23.562  1.00  0.00    -0.002 A
HETATM    5  C14 UNL     1      21.354 -14.301  24.057  1.00  0.00    -0.029 A
HETATM    6  C15 UNL     1      21.572 -15.423  24.792  1.00  0.00    -0.033 A
HETATM    7  C16 UNL     1      20.519 -16.279  25.039  1.00  0.00     0.098 A
HETATM    8  N2  UNL     1      19.287 -16.051  24.586  1.00  0.00    -0.360 N
HETATM    9  C17 UNL     1      18.207 -16.971  24.866  1.00  0.00     0.155 C
HETATM   10  C18 UNL     1      19.072 -14.953  23.868  1.00  0.00     0.045 A
HETATM   11  C19 UNL     1      17.811 -14.698  23.393  1.00  0.00     0.037 A
HETATM   12  C20 UNL     1      22.796 -15.923  25.413  1.00  0.00     0.060 C
HETATM   13  C21 UNL     1      23.962 -15.930  24.460  1.00  0.00     0.127 C
HETATM   14  N3  UNL     1      24.453 -14.593  24.225  1.00  0.00    -0.360 N
ATOM     15  H3  UNL     1      25.466 -14.477  24.184  1.00  0.00     0.162 HD
HETATM   16  C22 UNL     1      23.678 -13.438  24.047  1.00  0.00     0.221 C
HETATM   17  O2  UNL     1      24.297 -12.362  24.285  1.00  0.00    -0.273 OA
HETATM   18  C23 UNL     1      22.268 -13.222  23.634  1.00  0.00     0.142 C
ENDROOT
BRANCH   1  19
HETATM   19  C9  UNL     1      16.095 -13.431  22.185  1.00  0.00     0.066 C
BRANCH  19  20
HETATM   20  C8  UNL     1      16.001 -12.085  21.576  1.00  0.00     0.241 C
BRANCH  20  21
HETATM   21  N1  UNL     1      14.710 -11.784  20.925  1.00  0.00    -0.068 N
HETATM   22  C5  UNL     1      13.913 -12.950  21.301  1.00  0.00     0.272 C
BRANCH  21  23
HETATM   23  C4  UNL     1      14.101 -10.643  21.521  1.00  0.00     0.241 C
BRANCH  23  24
HETATM   24  C2  UNL     1      12.634 -10.565  21.629  1.00  0.00     0.003 C
HETATM   25  C1  UNL     1      12.073 -10.274  22.991  1.00  0.00     0.011 C
HETATM   26  C3  UNL     1      12.210  -9.375  20.739  1.00  0.00     0.011 C
ENDBRANCH  23  24
ENDBRANCH  21  23
BRANCH  21  27
HETATM   27  C6  UNL     1      14.847 -11.773  19.505  1.00  0.00     0.262 C
BRANCH  27  28
HETATM   28  C7  UNL     1      16.233 -11.762  18.957  1.00  0.00     0.192 C
BRANCH  28  29
HETATM   29  O1  UNL     1      16.398 -10.924  17.848  1.00  0.00    -0.399 OA
ATOM     30  H1  UNL     1      15.751 -11.057  17.166  1.00  0.00     0.209 HD
ENDBRANCH  28  29
ENDBRANCH  27  28
ENDBRANCH  21  27
ENDBRANCH  20  21
ENDBRANCH  19  20
ENDBRANCH   1  19
TORSDOF 8
ENDMDL