MODEL 2
REMARK VINA RESULT: -7.690976852      2.400      3.240
REMARK  8 active torsions:
REMARK  status: ('A' for Active; 'I' for Inactive)
REMARK    1  A    between atoms: N1_2  and  C2_3
REMARK    2  A    between atoms: N1_2  and  C5_9
REMARK    3  A    between atoms: C2_3  and  C3_4
REMARK    4  A    between atoms: C3_4  and  N2_5
REMARK    5  A    between atoms: N2_5  and  O1_7
REMARK    6  A    between atoms: C5_9  and  C6_10
REMARK    7  A    between atoms: C13_17  and  N3_18
REMARK    8  A    between atoms: N3_18  and  C14_20
ROOT
HETATM    1  C6  UNL     1      14.313 -12.310  20.183  1.00  0.00     0.028 A
HETATM    2  C7  UNL     1      13.776 -12.170  18.787  1.00  0.00     0.020 A
HETATM    3  C8  UNL     1      15.136 -12.345  18.192  1.00  0.00    -0.019 A
HETATM    4  C9  UNL     1      15.349 -13.508  17.276  1.00  0.00     0.011 C
HETATM    5  C10 UNL     1      15.494 -12.929  15.880  1.00  0.00     0.001 C
HETATM    6  C11 UNL     1      15.215 -11.455  16.012  1.00  0.00     0.001 C
HETATM    7  C12 UNL     1      15.678 -11.183  17.429  1.00  0.00     0.011 C
HETATM    8  C13 UNL     1      15.664 -12.525  19.603  1.00  0.00     0.097 A
ENDROOT
BRANCH   8   9
HETATM    9  N3  UNL     1      16.720 -11.619  19.916  1.00  0.00    -0.369 N
ATOM     10  H3  UNL     1      16.554 -10.614  19.892  1.00  0.00     0.161 HD
BRANCH   9  11
HETATM   11  C14 UNL     1      17.878 -12.069  20.227  1.00  0.00     0.125 A
HETATM   12  N4  UNL     1      19.071 -12.015  19.611  1.00  0.00    -0.285 N
HETATM   13  N5  UNL     1      19.989 -12.632  20.281  1.00  0.00    -0.299 N
ATOM     14  H4  UNL     1      19.232 -11.544  18.721  1.00  0.00     0.188 HD
HETATM   15  C15 UNL     1      19.445 -13.157  21.430  1.00  0.00     0.055 A
ATOM     16  H5  UNL     1      20.966 -12.717  20.000  1.00  0.00     0.187 HD
HETATM   17  C16 UNL     1      18.104 -12.772  21.350  1.00  0.00     0.025 A
HETATM   18  C21 UNL     1      20.248 -13.927  22.370  1.00  0.00     0.006 C
HETATM   19  C17 UNL     1      17.098 -13.113  22.457  1.00  0.00     0.124 C
HETATM   20  C18 UNL     1      17.842 -13.514  23.606  1.00  0.00    -0.178 C
HETATM   21  C19 UNL     1      18.848 -13.878  24.510  1.00  0.00     0.084 C
HETATM   22  C20 UNL     1      20.239 -13.699  23.826  1.00  0.00     0.040 C
ENDBRANCH   9  11
ENDBRANCH   8   9
BRANCH   1  23
HETATM   23  C5  UNL     1      14.079 -11.132  21.074  1.00  0.00     0.128 C
BRANCH  23  24
HETATM   24  N1  UNL     1      12.725 -11.162  21.505  1.00  0.00    -0.392 N
HETATM   25  C1  UNL     1      12.316 -12.292  22.201  1.00  0.00     0.148 C
BRANCH  24  26
HETATM   26  C2  UNL     1      12.123  -9.930  21.728  1.00  0.00     0.104 C
BRANCH  26  27
HETATM   27  C3  UNL     1      12.595  -9.136  22.890  1.00  0.00     0.133 C
BRANCH  27  28
HETATM   28  N2  UNL     1      11.640  -8.884  23.879  1.00  0.00    -0.275 N
HETATM   29  C4  UNL     1      11.613  -7.673  24.658  1.00  0.00     0.184 C
BRANCH  28  30
HETATM   30  O1  UNL     1      10.764  -9.669  24.126  1.00  0.00    -0.288 OA
ATOM     31  H1  UNL     1      10.320 -10.154  23.441  1.00  0.00     0.244 HD
ENDBRANCH  28  30
ENDBRANCH  27  28
ENDBRANCH  26  27
ENDBRANCH  24  26
ENDBRANCH  23  24
ENDBRANCH   1  23
TORSDOF 8
ENDMDL