MODEL 4
REMARK VINA RESULT: -6.723087363      3.028      6.744
REMARK  9 active torsions:
REMARK  status: ('A' for Active; 'I' for Inactive)
REMARK    1  A    between atoms: C2_2  and  C3_3
REMARK    2  A    between atoms: C5_5  and  C6_6
REMARK    3  A    between atoms: N2_11  and  C8_12
REMARK    4  A    between atoms: C8_12  and  C9_13
REMARK    5  A    between atoms: C9_13  and  C10_14
REMARK    6  A    between atoms: C10_14  and  C11_15
REMARK    7  A    between atoms: C11_15  and  C12_16
REMARK    8  A    between atoms: C16_20  and  C17_21
REMARK    9  A    between atoms: N3_25  and  C19_26
ROOT
HETATM    1  C6  UNL     1      16.641 -14.052  20.852  1.00  0.00     0.161 A
HETATM    2  N1  UNL     1      15.545 -14.885  21.251  1.00  0.00    -0.354 N
ATOM      3  H1  UNL     1      15.735 -15.856  21.498  1.00  0.00     0.163 HD
HETATM    4  C7  UNL     1      14.220 -14.422  21.317  1.00  0.00     0.175 A
HETATM    5  S1  UNL     1      13.083 -15.480  21.822  1.00  0.00    -0.041 SA
HETATM    6  N2  UNL     1      13.932 -13.064  20.964  1.00  0.00    -0.327 N
HETATM    7  C14 UNL     1      15.035 -12.236  20.559  1.00  0.00     0.025 A
HETATM    8  C15 UNL     1      14.688 -10.831  20.146  1.00  0.00     0.069 C
HETATM    9  C16 UNL     1      16.276 -12.674  20.505  1.00  0.00     0.068 A
ENDROOT
BRANCH   1  10
HETATM   10  C5  UNL     1      17.683 -14.162  21.907  1.00  0.00    -0.013 A
HETATM   11  C4  UNL     1      17.483 -13.763  23.155  1.00  0.00     0.040 A
HETATM   12  C3  UNL     1      18.703 -14.022  23.884  1.00  0.00     0.030 A
HETATM   13  N3  UNL     1      19.630 -14.601  22.974  1.00  0.00    -0.357 N
HETATM   14  C18 UNL     1      19.029 -14.673  21.851  1.00  0.00     0.100 A
BRANCH  12  15
HETATM   15  C2  UNL     1      18.970 -13.790  25.174  1.00  0.00    -0.002 C
HETATM   16  C1  UNL     1      18.539 -14.822  26.177  1.00  0.00     0.038 C
ENDBRANCH  12  15
BRANCH  13  17
HETATM   17  C19 UNL     1      20.978 -15.001  23.329  1.00  0.00     0.124 C
HETATM   18  C20 UNL     1      21.118 -16.467  23.574  1.00  0.00     0.027 C
ENDBRANCH  13  17
ENDBRANCH   1  10
BRANCH   9  19
HETATM   19  C17 UNL     1      17.360 -11.797  20.120  1.00  0.00     0.209 C
HETATM   20  O1  UNL     1      17.715 -11.711  18.889  1.00  0.00    -0.644 OA
HETATM   21  O2  UNL     1      18.077 -11.016  20.986  1.00  0.00    -0.644 OA
ENDBRANCH   9  19
BRANCH   6  22
HETATM   22  C8  UNL     1      12.561 -12.659  21.026  1.00  0.00     0.131 C
BRANCH  22  23
HETATM   23  C9  UNL     1      12.222 -11.908  22.283  1.00  0.00     0.020 C
BRANCH  23  24
HETATM   24  C10 UNL     1      11.712 -10.511  22.041  1.00  0.00     0.002 C
BRANCH  24  25
HETATM   25  C11 UNL     1      12.442  -9.505  22.909  1.00  0.00    -0.000 C
BRANCH  25  26
HETATM   26  C12 UNL     1      11.545  -9.131  24.072  1.00  0.00    -0.005 C
HETATM   27  C13 UNL     1      11.826  -7.715  24.532  1.00  0.00     0.005 C
ENDBRANCH  25  26
ENDBRANCH  24  25
ENDBRANCH  23  24
ENDBRANCH  22  23
ENDBRANCH   6  22
TORSDOF 9
ENDMDL