MODEL 2
REMARK VINA RESULT: -7.227216132      1.956      4.189
REMARK  11 active torsions:
REMARK  status: ('A' for Active; 'I' for Inactive)
REMARK    1  A    between atoms: C3_3  and  C4_4
REMARK    2  A    between atoms: C4_4  and  C5_5
REMARK    3  A    between atoms: C5_5  and  C6_6
REMARK    4  A    between atoms: C6_6  and  N1_7
REMARK    5  A    between atoms: C9_12  and  N3_13
REMARK    6  A    between atoms: N3_13  and  C10_15
REMARK    7  A    between atoms: C10_15  and  C11_16
REMARK    8  A    between atoms: C11_16  and  C12_17
REMARK    9  A    between atoms: C12_17  and  C13_18
REMARK   10  A    between atoms: C13_18  and  N4_19
REMARK   11  A    between atoms: C19_29  and  C20_30
ROOT
HETATM    1  C1  UNL     1      15.718 -16.462  15.367  1.00  0.00     0.113 C
HETATM    2  C2  UNL     1      15.002 -15.815  16.469  1.00  0.00    -0.097 C
HETATM    3  C3  UNL     1      14.411 -15.262  17.369  1.00  0.00    -0.015 C
ENDROOT
BRANCH   3   4
HETATM    4  C4  UNL     1      13.724 -14.592  18.415  1.00  0.00    -0.013 C
BRANCH   4   5
HETATM    5  C5  UNL     1      13.141 -14.006  19.292  1.00  0.00    -0.072 C
BRANCH   5   6
HETATM    6  C6  UNL     1      12.446 -13.267  20.374  1.00  0.00     0.222 C
BRANCH   6   7
HETATM    7  N1  UNL     1      13.206 -12.082  20.670  1.00  0.00    -0.351 N
HETATM    8  C7  UNL     1      12.606 -10.923  20.972  1.00  0.00     0.108 A
HETATM    9  C8  UNL     1      13.331  -9.771  21.259  1.00  0.00     0.107 A
HETATM   10  N2  UNL     1      14.658  -9.825  21.233  1.00  0.00    -0.350 N
HETATM   11  C9  UNL     1      15.290 -10.981  20.933  1.00  0.00     0.116 A
ATOM     12  H2  UNL     1      15.202  -8.988  21.441  1.00  0.00     0.166 HD
HETATM   13  C22 UNL     1      14.544 -12.111  20.650  1.00  0.00     0.139 A
BRANCH  11  14
HETATM   14  N3  UNL     1      16.568 -10.962  20.926  1.00  0.00    -0.375 N
ATOM     15  H3  UNL     1      17.021 -10.282  21.536  1.00  0.00     0.161 HD
BRANCH  14  16
HETATM   16  C10 UNL     1      17.426 -11.801  20.145  1.00  0.00     0.121 C
BRANCH  16  17
HETATM   17  C11 UNL     1      18.850 -11.812  20.665  1.00  0.00     0.021 C
BRANCH  17  18
HETATM   18  C12 UNL     1      19.257 -13.230  21.061  1.00  0.00     0.022 C
BRANCH  18  19
HETATM   19  C13 UNL     1      20.059 -13.239  22.321  1.00  0.00     0.128 C
BRANCH  19  20
HETATM   20  N4  UNL     1      19.422 -13.889  23.427  1.00  0.00    -0.358 N
HETATM   21  C14 UNL     1      18.544 -14.910  23.174  1.00  0.00     0.122 A
HETATM   22  C15 UNL     1      17.871 -15.600  24.135  1.00  0.00     0.075 A
HETATM   23  N5  UNL     1      16.973 -16.622  24.139  1.00  0.00    -0.349 N
HETATM   24  C17 UNL     1      18.065 -15.274  25.440  1.00  0.00     0.063 A
HETATM   25  C16 UNL     1      16.631 -16.911  25.404  1.00  0.00     0.181 A
ATOM     26  H5  UNL     1      16.615 -17.095  23.309  1.00  0.00     0.166 HD
HETATM   27  N6  UNL     1      17.296 -16.090  26.200  1.00  0.00    -0.350 N
ATOM     28  H6  UNL     1      17.239 -16.073  27.218  1.00  0.00     0.166 HD
HETATM   29  C18 UNL     1      18.945 -14.249  25.716  1.00  0.00     0.057 A
HETATM   30  C19 UNL     1      19.623 -13.557  24.713  1.00  0.00     0.013 A
BRANCH  30  31
HETATM   31  C20 UNL     1      20.534 -12.496  25.148  1.00  0.00     0.053 C
HETATM   32  C21 UNL     1      20.784 -12.499  26.624  1.00  0.00     0.011 C
ENDBRANCH  30  31
ENDBRANCH  19  20
ENDBRANCH  18  19
ENDBRANCH  17  18
ENDBRANCH  16  17
ENDBRANCH  14  16
ENDBRANCH  11  14
ENDBRANCH   6   7
ENDBRANCH   5   6
ENDBRANCH   4   5
ENDBRANCH   3   4
TORSDOF 11
ENDMDL