MODEL 2
REMARK VINA RESULT: -8.220326770      1.199      1.592
REMARK  10 active torsions:
REMARK  status: ('A' for Active; 'I' for Inactive)
REMARK    1  A    between atoms: C4_4  and  C5_5
REMARK    2  A    between atoms: C6_6  and  C7_7
REMARK    3  A    between atoms: C7_7  and  C8_8
REMARK    4  A    between atoms: C8_8  and  C9_9
REMARK    5  A    between atoms: C9_9  and  C10_10
REMARK    6  A    between atoms: C10_10  and  C11_11
REMARK    7  A    between atoms: C11_11  and  C12_12
REMARK    8  A    between atoms: N2_21  and  O1_22
REMARK    9  A    between atoms: C21_27  and  C22_28
REMARK   10  A    between atoms: C22_28  and  C23_29
ROOT
HETATM    1  C1  UNL     1      17.363 -15.841  27.649  1.00  0.00     0.027 C
HETATM    2  C2  UNL     1      17.746 -15.398  26.595  1.00  0.00    -0.025 C
HETATM    3  C3  UNL     1      18.223 -14.872  25.352  1.00  0.00    -0.002 C
HETATM    4  C4  UNL     1      18.646 -14.436  24.311  1.00  0.00    -0.001 C
ENDROOT
BRANCH   4   5
HETATM    5  C5  UNL     1      19.171 -13.928  23.091  1.00  0.00    -0.014 C
HETATM    6  C6  UNL     1      19.602 -13.501  22.035  1.00  0.00    -0.092 C
BRANCH   6   7
HETATM    7  C7  UNL     1      20.099 -13.002  20.754  1.00  0.00     0.095 C
BRANCH   7   8
HETATM    8  C8  UNL     1      19.344 -11.726  20.367  1.00  0.00     0.012 C
BRANCH   8   9
HETATM    9  C9  UNL     1      17.992 -12.137  19.891  1.00  0.00     0.001 C
BRANCH   9  10
HETATM   10  C10 UNL     1      16.933 -11.414  20.686  1.00  0.00     0.006 C
BRANCH  10  11
HETATM   11  C11 UNL     1      15.630 -11.335  19.916  1.00  0.00     0.062 C
BRANCH  11  12
HETATM   12  C12 UNL     1      14.522 -11.370  20.903  1.00  0.00     0.073 A
HETATM   13  C13 UNL     1      14.040 -12.619  21.238  1.00  0.00     0.104 A
HETATM   14  C14 UNL     1      13.012 -12.663  22.155  1.00  0.00     0.144 A
HETATM   15  N4  UNL     1      14.315 -13.966  20.884  1.00  0.00    -0.338 N
HETATM   16  N1  UNL     1      12.536 -11.492  22.672  1.00  0.00    -0.290 N
HETATM   17  N3  UNL     1      12.625 -14.004  22.394  1.00  0.00    -0.326 N
HETATM   18  C15 UNL     1      11.529 -11.552  23.571  1.00  0.00     0.100 A
HETATM   19  C19 UNL     1      13.046 -10.300  22.308  1.00  0.00     0.141 A
HETATM   20  C16 UNL     1      11.004 -10.405  24.132  1.00  0.00     0.018 A
HETATM   21  C17 UNL     1      11.495  -9.155  23.789  1.00  0.00     0.005 A
HETATM   22  C18 UNL     1      12.526  -9.143  22.865  1.00  0.00     0.051 A
HETATM   23  N2  UNL     1      14.058 -10.238  21.406  1.00  0.00    -0.209 N
HETATM   24  C20 UNL     1      13.458 -14.864  21.579  1.00  0.00     0.103 A
ATOM     25  H3  UNL     1      11.887 -14.311  23.029  1.00  0.00     0.169 HD
HETATM   26  C21 UNL     1      13.392 -16.181  21.524  1.00  0.00     0.022 C
ATOM     27  H4  UNL     1      15.033 -14.253  20.218  1.00  0.00     0.167 HD
BRANCH  23  28
HETATM   28  O1  UNL     1      14.549  -9.007  21.061  1.00  0.00    -0.281 OA
ATOM     29  H1  UNL     1      15.054  -8.463  21.654  1.00  0.00     0.245 HD
ENDBRANCH  23  28
BRANCH  26  30
HETATM   30  C22 UNL     1      14.295 -16.950  20.655  1.00  0.00     0.030 C
BRANCH  30  31
HETATM   31  C23 UNL     1      15.567 -17.378  21.353  1.00  0.00    -0.001 C
HETATM   32  C24 UNL     1      16.719 -16.641  20.710  1.00  0.00     0.005 C
ENDBRANCH  30  31
ENDBRANCH  26  30
ENDBRANCH  11  12
ENDBRANCH  10  11
ENDBRANCH   9  10
ENDBRANCH   8   9
ENDBRANCH   7   8
ENDBRANCH   6   7
ENDBRANCH   4   5
TORSDOF 10
ENDMDL