MODEL 5
REMARK VINA RESULT: -5.808127122      2.988      5.869
REMARK  8 active torsions:
REMARK  status: ('A' for Active; 'I' for Inactive)
REMARK    1  A    between atoms: O1_2  and  C2_3
REMARK    2  A    between atoms: C2_3  and  C3_5
REMARK    3  A    between atoms: C5_8  and  O4_9
REMARK    4  A    between atoms: C8_13  and  O5_14
REMARK    5  A    between atoms: O5_14  and  C9_15
REMARK    6  A    between atoms: C11_18  and  C12_19
REMARK    7  A    between atoms: C12_19  and  C13_20
REMARK    8  A    between atoms: C13_20  and  O7_22
ROOT
HETATM    1  C3  UNL     1      -3.494   4.310  11.988  1.00  0.00     0.119 C
HETATM    2  C4  UNL     1      -3.552   2.976  12.747  1.00  0.00     0.186 C
HETATM    3  O3  UNL     1      -4.804   2.901  13.311  1.00  0.00    -0.354 OA
HETATM    4  C5  UNL     1      -5.222   4.209  13.550  1.00  0.00     0.166 C
HETATM    5  C6  UNL     1      -4.457   4.743  14.705  1.00  0.00     0.071 C
HETATM    6  C7  UNL     1      -4.452   6.220  14.860  1.00  0.00     0.038 C
HETATM    7  C8  UNL     1      -4.206   6.955  13.537  1.00  0.00     0.136 C
HETATM    8  C11 UNL     1      -4.972   6.341  12.426  1.00  0.00     0.028 C
HETATM    9  C15 UNL     1      -4.828   4.872  12.241  1.00  0.00     0.070 C
ENDROOT
BRANCH   8  10
HETATM   10  C12 UNL     1      -4.892   7.164  11.188  1.00  0.00     0.039 C
BRANCH  10  11
HETATM   11  C13 UNL     1      -6.192   7.460  10.519  1.00  0.00     0.114 C
HETATM   12  C14 UNL     1      -7.319   7.694  11.504  1.00  0.00     0.039 C
BRANCH  11  13
HETATM   13  O7  UNL     1      -6.591   6.376   9.725  1.00  0.00    -0.396 OA
ATOM     14  H7  UNL     1      -7.492   6.484   9.445  1.00  0.00     0.210 HD
ENDBRANCH  11  13
ENDBRANCH  10  11
ENDBRANCH   8  10
BRANCH   7  15
HETATM   15  O5  UNL     1      -2.820   7.062  13.354  1.00  0.00    -0.316 OA
BRANCH  15  16
HETATM   16  C9  UNL     1      -2.160   8.244  13.598  1.00  0.00     0.255 C
HETATM   17  C10 UNL     1      -1.592   8.564  14.944  1.00  0.00     0.126 C
HETATM   18  O6  UNL     1      -1.988   9.134  12.724  1.00  0.00    -0.266 OA
ENDBRANCH  15  16
ENDBRANCH   7  15
BRANCH   1  19
HETATM   19  C2  UNL     1      -3.211   3.941  10.576  1.00  0.00     0.265 C
HETATM   20  O2  UNL     1      -4.117   3.446   9.883  1.00  0.00    -0.265 OA
BRANCH  19  21
HETATM   21  O1  UNL     1      -1.969   4.144  10.051  1.00  0.00    -0.326 OA
HETATM   22  C1  UNL     1      -0.948   4.891  10.703  1.00  0.00     0.213 C
ENDBRANCH  19  21
ENDBRANCH   1  19
BRANCH   4  23
HETATM   23  O4  UNL     1      -6.596   4.279  13.719  1.00  0.00    -0.365 OA
ATOM     24  H4  UNL     1      -6.822   4.657  14.560  1.00  0.00     0.213 HD
ENDBRANCH   4  23
TORSDOF 8
ENDMDL