MODEL 4
REMARK VINA RESULT: -6.134985170      2.225      4.672
REMARK  7 active torsions:
REMARK  status: ('A' for Active; 'I' for Inactive)
REMARK    1  A    between atoms: C2_2  and  O1_3
REMARK    2  A    between atoms: O1_3  and  C3_4
REMARK    3  A    between atoms: C3_4  and  C4_5
REMARK    4  A    between atoms: C6_8  and  O2_9
REMARK    5  A    between atoms: C6_8  and  O3_11
REMARK    6  A    between atoms: C9_14  and  C10_15
REMARK    7  A    between atoms: C10_15  and  O4_16
ROOT
HETATM    1  C4  UNL     1      -5.076   5.688  11.066  1.00  0.00     0.131 A
HETATM    2  N1  UNL     1      -4.433   4.557  10.447  1.00  0.00    -0.173 NA
HETATM    3  C5  UNL     1      -4.226   3.368  11.160  1.00  0.00     0.190 C
HETATM    4  C6  UNL     1      -3.123   3.465  12.250  1.00  0.00     0.182 C
HETATM    5  C8  UNL     1      -3.684   4.650  12.950  1.00  0.00     0.104 C
HETATM    6  C9  UNL     1      -2.931   5.568  13.789  1.00  0.00     0.014 C
HETATM    7  C11 UNL     1      -3.796   5.874  15.023  1.00  0.00     0.014 C
HETATM    8  C12 UNL     1      -5.250   5.895  14.746  1.00  0.00     0.004 C
HETATM    9  C13 UNL     1      -5.752   6.141  13.401  1.00  0.00     0.044 C
HETATM   10  C14 UNL     1      -4.855   6.431  12.269  1.00  0.00     0.124 A
HETATM   11  O5  UNL     1      -4.014   7.452  12.655  1.00  0.00    -0.374 OA
HETATM   12  C15 UNL     1      -2.790   6.993  13.194  1.00  0.00     0.181 C
HETATM   13  C16 UNL     1      -3.890   5.528  11.773  1.00  0.00     0.153 A
HETATM   14  O6  UNL     1      -3.312   5.359  10.579  1.00  0.00    -0.285 OA
ENDROOT
BRANCH   1  15
HETATM   15  C3  UNL     1      -5.258   6.713   9.927  1.00  0.00     0.208 C
BRANCH  15  16
HETATM   16  O1  UNL     1      -6.642   6.790   9.595  1.00  0.00    -0.362 OA
BRANCH  16  17
HETATM   17  C2  UNL     1      -7.393   7.927   9.839  1.00  0.00     0.124 C
HETATM   18  C1  UNL     1      -7.433   8.501  11.029  1.00  0.00     0.037 C
ENDBRANCH  16  17
ENDBRANCH  15  16
ENDBRANCH   1  15
BRANCH   4  19
HETATM   19  O2  UNL     1      -1.879   3.637  11.716  1.00  0.00    -0.364 OA
ATOM     20  H2  UNL     1      -1.260   3.986  12.347  1.00  0.00     0.213 HD
ENDBRANCH   4  19
BRANCH   4  21
HETATM   21  O3  UNL     1      -3.258   2.312  13.008  1.00  0.00    -0.358 OA
HETATM   22  C7  UNL     1      -4.471   2.158  13.613  1.00  0.00     0.205 C
ENDBRANCH   4  21
BRANCH   6  23
HETATM   23  C10 UNL     1      -1.568   5.158  14.217  1.00  0.00     0.176 C
BRANCH  23  24
HETATM   24  O4  UNL     1      -1.535   4.011  14.983  1.00  0.00    -0.400 OA
ATOM     25  H4  UNL     1      -1.185   3.252  14.533  1.00  0.00     0.209 HD
ENDBRANCH  23  24
ENDBRANCH   6  23
TORSDOF 7
ENDMDL