MODEL 3
REMARK VINA RESULT: -6.504407944      1.958      3.131
REMARK  6 active torsions:
REMARK  status: ('A' for Active; 'I' for Inactive)
REMARK    1  A    between atoms: C4_5  and  N1_6
REMARK    2  A    between atoms: N2_9  and  C7_10
REMARK    3  A    between atoms: C7_10  and  C8_11
REMARK    4  A    between atoms: C8_11  and  C9_12
REMARK    5  A    between atoms: C9_12  and  O2_13
REMARK    6  A    between atoms: N3_15  and  O3_17
ROOT
HETATM    1  N1  UNL     1      -4.144   5.182  11.901  1.00  0.00     0.102 N
HETATM    2  C5  UNL     1      -4.151   3.775  12.271  1.00  0.00     0.303 C
HETATM    3  C6  UNL     1      -5.273   3.666  13.283  1.00  0.00     0.302 C
HETATM    4  N2  UNL     1      -4.800   4.244  14.553  1.00  0.00     0.092 N
HETATM    5  C10 UNL     1      -3.815   5.253  14.360  1.00  0.00     0.302 C
HETATM    6  C11 UNL     1      -3.752   5.923  13.050  1.00  0.00     0.303 C
ENDROOT
BRANCH   1   7
HETATM    7  C4  UNL     1      -3.338   5.417  10.723  1.00  0.00     0.293 C
HETATM    8  C3  UNL     1      -3.216   4.114   9.960  1.00  0.00     0.049 C
HETATM    9  C2  UNL     1      -2.825   4.594   8.578  1.00  0.00     0.087 C
HETATM   10  C1  UNL     1      -3.664   5.787   8.380  1.00  0.00     0.191 C
HETATM   11  O1  UNL     1      -3.971   6.263   7.322  1.00  0.00    -0.292 OA
HETATM   12  C12 UNL     1      -4.052   6.284   9.746  1.00  0.00     0.258 C
HETATM   13  O4  UNL     1      -3.698   7.627   9.894  1.00  0.00    -0.345 OA
HETATM   14  O5  UNL     1      -5.435   6.219   9.818  1.00  0.00    -0.345 OA
HETATM   15  C13 UNL     1      -4.755   8.343   9.346  1.00  0.00     0.198 C
HETATM   16  C14 UNL     1      -5.903   7.372   9.192  1.00  0.00     0.198 C
ENDBRANCH   1   7
BRANCH   4  17
HETATM   17  C7  UNL     1      -4.335   3.113  15.304  1.00  0.00     0.280 C
BRANCH  17  18
HETATM   18  C8  UNL     1      -5.406   2.227  15.842  1.00  0.00     0.116 C
BRANCH  18  19
HETATM   19  C9  UNL     1      -4.838   0.999  16.459  1.00  0.00     0.136 C
HETATM   20  N3  UNL     1      -5.551   0.114  17.067  1.00  0.00    -0.251 N
ATOM     21  H3  UNL     1      -5.066  -0.694  17.458  1.00  0.00     0.196 HD
BRANCH  19  22
HETATM   22  O2  UNL     1      -3.468   0.749  16.401  1.00  0.00    -0.348 OA
ATOM     23  H2  UNL     1      -2.956   0.683  17.200  1.00  0.00     0.219 HD
ENDBRANCH  19  22
BRANCH  20  24
HETATM   24  O3  UNL     1      -6.895   0.176  17.227  1.00  0.00    -0.288 OA
ATOM     25  H3  UNL     1      -7.456  -0.567  17.413  1.00  0.00     0.244 HD
ENDBRANCH  20  24
ENDBRANCH  18  19
ENDBRANCH  17  18
ENDBRANCH   4  17
TORSDOF 6
ENDMDL