MODEL 2
REMARK VINA RESULT: -6.293276849      1.333      1.484
REMARK  9 active torsions:
REMARK  status: ('A' for Active; 'I' for Inactive)
REMARK    1  A    between atoms: C2_2  and  C3_3
REMARK    2  A    between atoms: C3_3  and  O2_5
REMARK    3  A    between atoms: O2_5  and  C4_6
REMARK    4  A    between atoms: C7_11  and  O5_12
REMARK    5  A    between atoms: C8_14  and  N1_15
REMARK    6  A    between atoms: N1_15  and  N2_17
REMARK    7  A    between atoms: N2_17  and  N3_18
REMARK    8  A    between atoms: C9_21  and  C10_22
REMARK    9  A    between atoms: C10_22  and  O6_23
ROOT
HETATM    1  C4  UNL     1      -3.980   2.251  14.504  1.00  0.00     0.271 C
HETATM    2  C5  UNL     1      -4.481   1.495  13.323  1.00  0.00     0.292 C
HETATM    3  O3  UNL     1      -4.571   0.221  13.282  1.00  0.00    -0.262 OA
HETATM    4  O4  UNL     1      -4.810   2.412  12.336  1.00  0.00    -0.308 OA
HETATM    5  C6  UNL     1      -3.914   3.474  12.435  1.00  0.00     0.203 C
HETATM    6  C7  UNL     1      -4.450   4.784  11.935  1.00  0.00     0.176 C
HETATM    7  C8  UNL     1      -3.435   5.856  12.203  1.00  0.00     0.154 C
HETATM    8  C9  UNL     1      -2.355   5.440  13.158  1.00  0.00     0.069 C
HETATM    9  C11 UNL     1      -2.860   4.598  14.304  1.00  0.00     0.171 A
HETATM   10  O7  UNL     1      -4.208   4.741  14.568  1.00  0.00    -0.362 OA
HETATM   11  C12 UNL     1      -3.742   3.609  13.943  1.00  0.00     0.152 A
ENDROOT
BRANCH   7  12
HETATM   12  N1  UNL     1      -4.048   7.117  12.577  1.00  0.00    -0.245 N
ATOM     13  H1  UNL     1      -3.757   7.568  13.444  1.00  0.00     0.197 HD
BRANCH  12  14
HETATM   14  N2  UNL     1      -4.913   7.667  11.881  1.00  0.00    -0.248 NA
BRANCH  14  15
HETATM   15  N3  UNL     1      -5.994   8.042  11.386  1.00  0.00    -0.261 N
ATOM     16  H32 UNL     1      -6.500   7.210  11.689  1.00  0.00     0.193 HD
ATOM     17  H31 UNL     1      -6.722   8.572  10.906  1.00  0.00     0.193 HD
ENDBRANCH  14  15
ENDBRANCH  12  14
ENDBRANCH   7  12
BRANCH   6  18
HETATM   18  O5  UNL     1      -5.690   5.044  12.507  1.00  0.00    -0.391 OA
ATOM     19  H5  UNL     1      -6.231   5.540  11.904  1.00  0.00     0.210 HD
ENDBRANCH   6  18
BRANCH   8  20
HETATM   20  C10 UNL     1      -1.638   6.680  13.645  1.00  0.00     0.173 C
BRANCH  20  21
HETATM   21  O6  UNL     1      -2.274   7.162  14.792  1.00  0.00    -0.400 OA
ATOM     22  H6  UNL     1      -1.631   7.568  15.361  1.00  0.00     0.209 HD
ENDBRANCH  20  21
ENDBRANCH   8  20
BRANCH   1  23
HETATM   23  O2  UNL     1      -5.006   2.210  15.480  1.00  0.00    -0.302 OA
BRANCH  23  24
HETATM   24  C3  UNL     1      -4.942   1.416  16.614  1.00  0.00     0.259 C
HETATM   25  O1  UNL     1      -3.989   0.609  16.694  1.00  0.00    -0.265 OA
BRANCH  24  26
HETATM   26  C2  UNL     1      -5.926   1.473  17.713  1.00  0.00     0.106 C
HETATM   27  C1  UNL     1      -7.304   1.324  17.114  1.00  0.00     0.015 C
ENDBRANCH  24  26
ENDBRANCH  23  24
ENDBRANCH   1  23
TORSDOF 9
ENDMDL