MODEL 1
REMARK VINA RESULT: -6.554916657      0.000      0.000
REMARK  6 active torsions:
REMARK  status: ('A' for Active; 'I' for Inactive)
REMARK    1  A    between atoms: N1_2  and  C3_4
REMARK    2  A    between atoms: C3_4  and  C4_5
REMARK    3  A    between atoms: C8_10  and  C9_11
REMARK    4  A    between atoms: C12_16  and  C13_17
REMARK    5  A    between atoms: C13_17  and  O3_18
REMARK    6  A    between atoms: C13_17  and  O4_20
ROOT
HETATM    1  C4  UNL     1      -2.916   5.320  12.312  1.00  0.00     0.070 C
HETATM    2  C5  UNL     1      -3.093   6.798  12.498  1.00  0.00     0.041 C
HETATM    3  C6  UNL     1      -4.207   6.798  13.566  1.00  0.00     0.277 C
HETATM    4  N2  UNL     1      -3.931   5.664  14.371  1.00  0.00     0.126 N
HETATM    5  C7  UNL     1      -5.078   4.821  14.634  1.00  0.00     0.309 C
HETATM    6  C8  UNL     1      -4.359   3.510  14.861  1.00  0.00     0.167 C
HETATM    7  O5  UNL     1      -3.503   3.494  13.779  1.00  0.00    -0.344 OA
HETATM    8  C14 UNL     1      -3.008   4.808  13.735  1.00  0.00     0.263 C
HETATM    9  C15 UNL     1      -1.665   4.783  14.428  1.00  0.00     0.082 C
ENDROOT
BRANCH   6  10
HETATM   10  C9  UNL     1      -5.267   2.335  14.956  1.00  0.00     0.127 C
HETATM   11  C10 UNL     1      -4.453   1.112  14.632  1.00  0.00     0.266 C
HETATM   12  O1  UNL     1      -4.515   0.448  13.568  1.00  0.00    -0.265 OA
HETATM   13  O2  UNL     1      -3.620   0.856  15.737  1.00  0.00    -0.321 OA
HETATM   14  C11 UNL     1      -4.288   1.289  16.912  1.00  0.00     0.189 C
HETATM   15  C12 UNL     1      -5.497   2.073  16.449  1.00  0.00     0.081 C
BRANCH  15  16
HETATM   16  C13 UNL     1      -6.763   1.312  16.698  1.00  0.00     0.260 C
BRANCH  16  17
HETATM   17  O3  UNL     1      -7.342   1.848  17.849  1.00  0.00    -0.371 OA
ATOM     18  H3  UNL     1      -7.418   2.785  17.712  1.00  0.00     0.212 HD
ENDBRANCH  16  17
BRANCH  16  19
HETATM   19  O4  UNL     1      -6.543  -0.041  16.884  1.00  0.00    -0.371 OA
ATOM     20  H4  UNL     1      -7.153  -0.581  16.396  1.00  0.00     0.212 HD
ENDBRANCH  16  19
ENDBRANCH  15  16
ENDBRANCH   6  10
BRANCH   1  21
HETATM   21  C3  UNL     1      -1.682   4.874  11.625  1.00  0.00     0.125 C
BRANCH  21  22
HETATM   22  N1  UNL     1      -1.890   4.603  10.255  1.00  0.00    -0.420 N
HETATM   23  C1  UNL     1      -0.889   4.844   9.313  1.00  0.00     0.142 C
HETATM   24  C2  UNL     1      -3.161   4.164   9.836  1.00  0.00     0.142 C
ENDBRANCH  21  22
ENDBRANCH   1  21
TORSDOF 6
ENDMDL