MODEL 5
REMARK VINA RESULT: -6.024508500      1.562      2.262
REMARK  8 active torsions:
REMARK  status: ('A' for Active; 'I' for Inactive)
REMARK    1  A    between atoms: C2_2  and  O2_4
REMARK    2  A    between atoms: O2_4  and  C3_5
REMARK    3  A    between atoms: C6_8  and  C7_9
REMARK    4  A    between atoms: C7_9  and  O3_10
REMARK    5  A    between atoms: C10_15  and  O5_16
REMARK    6  A    between atoms: C11_18  and  O6_19
REMARK    7  A    between atoms: O6_19  and  C12_20
REMARK    8  A    between atoms: C12_20  and  C13_22
ROOT
HETATM    1  C3  UNL     1      -3.975   2.711  14.303  1.00  0.00     0.170 C
HETATM    2  C4  UNL     1      -4.872   3.932  14.433  1.00  0.00     0.050 C
HETATM    3  C5  UNL     1      -4.102   5.034  15.068  1.00  0.00     0.018 C
HETATM    4  C6  UNL     1      -4.574   6.410  14.706  1.00  0.00     0.034 C
HETATM    5  C8  UNL     1      -5.297   6.500  13.417  1.00  0.00     0.175 C
HETATM    6  O4  UNL     1      -5.216   5.449  12.568  1.00  0.00    -0.382 OA
HETATM    7  C9  UNL     1      -5.356   4.199  13.045  1.00  0.00     0.159 C
HETATM    8  C10 UNL     1      -4.754   3.124  12.150  1.00  0.00     0.179 C
HETATM    9  C11 UNL     1      -3.452   2.875  12.929  1.00  0.00     0.193 C
ENDROOT
BRANCH   9  10
HETATM   10  O6  UNL     1      -2.477   3.794  12.706  1.00  0.00    -0.310 OA
BRANCH  10  11
HETATM   11  C12 UNL     1      -1.365   3.663  11.922  1.00  0.00     0.262 C
HETATM   12  O7  UNL     1      -0.579   2.750  12.188  1.00  0.00    -0.265 OA
BRANCH  11  13
HETATM   13  C13 UNL     1      -1.102   4.583  10.785  1.00  0.00     0.077 C
HETATM   14  C14 UNL     1      -1.917   5.849  10.924  1.00  0.00     0.020 C
HETATM   15  C15 UNL     1       0.362   4.943  10.662  1.00  0.00     0.020 C
ENDBRANCH  11  13
ENDBRANCH  10  11
ENDBRANCH   9  10
BRANCH   1  16
HETATM   16  O2  UNL     1      -4.619   1.532  14.607  1.00  0.00    -0.313 OA
BRANCH  16  17
HETATM   17  C2  UNL     1      -4.669   1.016  15.864  1.00  0.00     0.255 C
HETATM   18  C1  UNL     1      -5.868   0.961  16.731  1.00  0.00     0.126 C
HETATM   19  O1  UNL     1      -3.585   0.555  16.298  1.00  0.00    -0.266 OA
ENDBRANCH  16  17
ENDBRANCH   1  16
BRANCH   8  20
HETATM   20  O5  UNL     1      -4.555   3.507  10.870  1.00  0.00    -0.390 OA
ATOM     21  H5  UNL     1      -3.948   4.229  10.763  1.00  0.00     0.210 HD
ENDBRANCH   8  20
BRANCH   4  22
HETATM   22  C7  UNL     1      -3.355   7.335  14.631  1.00  0.00     0.170 C
BRANCH  22  23
HETATM   23  O3  UNL     1      -2.208   6.613  14.310  1.00  0.00    -0.400 OA
ATOM     24  H3  UNL     1      -2.420   5.702  14.145  1.00  0.00     0.209 HD
ENDBRANCH  22  23
ENDBRANCH   4  22
TORSDOF 8
ENDMDL