MODEL 3
REMARK VINA RESULT: -6.134026259      1.633      6.262
REMARK  7 active torsions:
REMARK  status: ('A' for Active; 'I' for Inactive)
REMARK    1  A    between atoms: O1_2  and  C2_3
REMARK    2  A    between atoms: C2_3  and  C3_4
REMARK    3  A    between atoms: C7_10  and  C8_11
REMARK    4  A    between atoms: C8_11  and  O2_13
REMARK    5  A    between atoms: C8_11  and  C10_15
REMARK    6  A    between atoms: C10_15  and  O3_16
REMARK    7  A    between atoms: C11_19  and  O5_20
ROOT
HETATM    1  C3  UNL     1      -4.543   2.931  14.807  1.00  0.00     0.152 C
HETATM    2  C4  UNL     1      -4.383   1.791  13.817  1.00  0.00     0.073 C
HETATM    3  N1  UNL     1      -5.559   3.867  14.370  1.00  0.00    -0.361 N
ATOM      4  H1  UNL     1      -6.536   3.643  14.555  1.00  0.00     0.162 HD
HETATM    5  C5  UNL     1      -5.294   4.935  13.778  1.00  0.00     0.029 C
HETATM    6  C6  UNL     1      -6.297   5.953  13.297  1.00  0.00     0.091 C
HETATM    7  C7  UNL     1      -5.670   6.608  12.105  1.00  0.00     0.166 C
HETATM    8  O4  UNL     1      -4.543   7.331  12.476  1.00  0.00    -0.349 OA
HETATM    9  C11 UNL     1      -3.733   6.750  13.417  1.00  0.00     0.302 C
HETATM   10  C13 UNL     1      -3.867   5.264  13.505  1.00  0.00     0.176 C
HETATM   11  O6  UNL     1      -3.349   4.669  12.368  1.00  0.00    -0.364 OA
HETATM   12  C14 UNL     1      -2.246   4.248  13.092  1.00  0.00     0.205 C
HETATM   13  C15 UNL     1      -2.919   4.560  14.373  1.00  0.00     0.194 C
HETATM   14  O7  UNL     1      -3.371   3.526  15.142  1.00  0.00    -0.348 OA
ENDROOT
BRANCH   7  15
HETATM   15  C8  UNL     1      -6.544   7.570  11.349  1.00  0.00     0.102 C
HETATM   16  C9  UNL     1      -7.819   7.916  12.065  1.00  0.00     0.051 C
BRANCH  15  17
HETATM   17  O2  UNL     1      -5.773   8.778  11.306  1.00  0.00    -0.385 OA
ATOM     18  H2  UNL     1      -6.116   9.242  10.552  1.00  0.00     0.210 HD
ENDBRANCH  15  17
BRANCH  15  19
HETATM   19  C10 UNL     1      -6.826   7.242   9.933  1.00  0.00     0.204 C
BRANCH  19  20
HETATM   20  O3  UNL     1      -6.176   6.119   9.485  1.00  0.00    -0.398 OA
ATOM     21  H3  UNL     1      -5.623   6.273   8.729  1.00  0.00     0.209 HD
ENDBRANCH  19  20
ENDBRANCH  15  19
ENDBRANCH   7  15
BRANCH   9  22
HETATM   22  O5  UNL     1      -2.422   7.066  13.080  1.00  0.00    -0.362 OA
HETATM   23  C12 UNL     1      -2.289   8.278  12.438  1.00  0.00     0.205 C
ENDBRANCH   9  22
BRANCH   1  24
HETATM   24  C2  UNL     1      -5.114   2.290  16.081  1.00  0.00     0.227 C
BRANCH  24  25
HETATM   25  O1  UNL     1      -6.471   2.569  16.079  1.00  0.00    -0.391 OA
HETATM   26  C1  UNL     1      -7.165   1.767  16.994  1.00  0.00     0.201 C
ENDBRANCH  24  25
ENDBRANCH   1  24
TORSDOF 7
ENDMDL