MODEL 2
REMARK VINA RESULT: -6.479108086      1.762      3.350
REMARK  7 active torsions:
REMARK  status: ('A' for Active; 'I' for Inactive)
REMARK    1  A    between atoms: C2_2  and  O1_3
REMARK    2  A    between atoms: O1_3  and  C3_4
REMARK    3  A    between atoms: C3_4  and  C4_6
REMARK    4  A    between atoms: C11_14  and  C12_15
REMARK    5  A    between atoms: C12_15  and  O4_16
REMARK    6  A    between atoms: C13_19  and  C14_20
REMARK    7  A    between atoms: C14_20  and  O6_21
ROOT
HETATM    1  C4  UNL     1      -3.941   3.307  12.815  1.00  0.00     0.290 C
HETATM    2  O3  UNL     1      -3.984   3.245  11.450  1.00  0.00    -0.339 OA
HETATM    3  C5  UNL     1      -3.413   4.217  10.726  1.00  0.00     0.129 C
HETATM    4  C6  UNL     1      -2.071   4.744  11.070  1.00  0.00     0.037 C
HETATM    5  C7  UNL     1      -1.973   5.842  12.057  1.00  0.00    -0.007 C
HETATM    6  C8  UNL     1      -1.715   5.510  13.478  1.00  0.00     0.037 C
HETATM    7  C9  UNL     1      -2.454   4.409  14.088  1.00  0.00     0.129 C
HETATM    8  C10 UNL     1      -3.807   4.706  14.669  1.00  0.00     0.078 C
HETATM    9  C11 UNL     1      -4.692   4.367  13.457  1.00  0.00     0.151 C
HETATM   10  O5  UNL     1      -4.998   5.503  12.833  1.00  0.00    -0.358 OA
HETATM   11  C13 UNL     1      -4.457   6.131  11.844  1.00  0.00     0.086 C
HETATM   12  C15 UNL     1      -3.130   6.808  12.019  1.00  0.00     0.045 C
HETATM   13  C16 UNL     1      -4.405   5.345  10.562  1.00  0.00     0.072 C
HETATM   14  O7  UNL     1      -2.588   3.393  13.188  1.00  0.00    -0.339 OA
ENDROOT
BRANCH   1  15
HETATM   15  C3  UNL     1      -4.278   1.943  13.312  1.00  0.00     0.325 C
HETATM   16  O2  UNL     1      -5.015   1.159  12.644  1.00  0.00    -0.259 OA
BRANCH  15  17
HETATM   17  O1  UNL     1      -3.814   1.450  14.521  1.00  0.00    -0.318 OA
BRANCH  17  18
HETATM   18  C2  UNL     1      -4.648   0.700  15.359  1.00  0.00     0.174 C
HETATM   19  C1  UNL     1      -5.041   1.391  16.621  1.00  0.00     0.034 C
ENDBRANCH  17  18
ENDBRANCH  15  17
ENDBRANCH   1  15
BRANCH   9  20
HETATM   20  C12 UNL     1      -6.013   3.888  14.023  1.00  0.00     0.208 C
BRANCH  20  21
HETATM   21  O4  UNL     1      -6.998   4.907  13.862  1.00  0.00    -0.398 OA
ATOM     22  H4  UNL     1      -6.700   5.705  14.281  1.00  0.00     0.209 HD
ENDBRANCH  20  21
ENDBRANCH   9  20
BRANCH  11  23
HETATM   23  C14 UNL     1      -5.410   7.312  11.494  1.00  0.00     0.202 C
BRANCH  23  24
HETATM   24  O6  UNL     1      -6.703   6.826  11.749  1.00  0.00    -0.398 OA
ATOM     25  H6  UNL     1      -6.584   5.908  11.966  1.00  0.00     0.209 HD
ENDBRANCH  23  24
ENDBRANCH  11  23
TORSDOF 7
ENDMDL