MODEL 5
REMARK VINA RESULT: -7.034413605      2.007      3.036
REMARK  7 active torsions:
REMARK  status: ('A' for Active; 'I' for Inactive)
REMARK    1  A    between atoms: C2_2  and  C3_3
REMARK    2  A    between atoms: C3_3  and  O1_4
REMARK    3  A    between atoms: O1_4  and  C4_5
REMARK    4  A    between atoms: C4_5  and  C5_7
REMARK    5  A    between atoms: C6_8  and  C7_9
REMARK    6  A    between atoms: C7_9  and  O3_10
REMARK    7  A    between atoms: C8_12  and  O4_13
ROOT
HETATM    1  C7  UNL     1      -3.730   3.640  14.179  1.00  0.00     0.128 C
HETATM    2  C8  UNL     1      -3.404   3.446  12.705  1.00  0.00     0.161 C
HETATM    3  C9  UNL     1      -3.407   4.778  11.985  1.00  0.00     0.067 C
HETATM    4  C10 UNL     1      -4.666   5.542  12.233  1.00  0.00     0.131 C
HETATM    5  O5  UNL     1      -5.394   5.068  13.320  1.00  0.00    -0.377 OA
HETATM    6  C11 UNL     1      -4.560   4.891  14.406  1.00  0.00     0.165 C
HETATM    7  C12 UNL     1      -3.714   6.070  14.737  1.00  0.00     0.068 C
HETATM    8  C13 UNL     1      -3.945   7.282  13.894  1.00  0.00     0.141 A
HETATM    9  O6  UNL     1      -2.716   7.990  13.762  1.00  0.00    -0.315 OA
HETATM   10  C14 UNL     1      -2.341   8.113  12.455  1.00  0.00     0.259 A
HETATM   11  O7  UNL     1      -1.255   8.604  12.058  1.00  0.00    -0.265 OA
HETATM   12  C15 UNL     1      -3.390   7.588  11.563  1.00  0.00     0.120 A
HETATM   13  C16 UNL     1      -4.419   7.017  12.515  1.00  0.00     0.053 A
ENDROOT
BRANCH   1  14
HETATM   14  C6  UNL     1      -4.394   2.420  14.655  1.00  0.00     0.022 C
HETATM   15  C5  UNL     1      -3.951   1.679  15.658  1.00  0.00     0.081 C
BRANCH  15  16
HETATM   16  C4  UNL     1      -4.630   0.476  16.107  1.00  0.00     0.282 C
HETATM   17  O2  UNL     1      -4.750  -0.509  15.334  1.00  0.00    -0.260 OA
BRANCH  16  18
HETATM   18  O1  UNL     1      -5.170   0.341  17.373  1.00  0.00    -0.318 OA
BRANCH  18  19
HETATM   19  C3  UNL     1      -5.965   1.288  18.033  1.00  0.00     0.178 C
BRANCH  19  20
HETATM   20  C2  UNL     1      -7.196   1.707  17.302  1.00  0.00     0.022 C
HETATM   21  C1  UNL     1      -7.152   3.161  16.876  1.00  0.00     0.007 C
ENDBRANCH  19  20
ENDBRANCH  18  19
ENDBRANCH  16  18
ENDBRANCH  15  16
ENDBRANCH   1  14
BRANCH   1  22
HETATM   22  O3  UNL     1      -2.531   3.764  14.918  1.00  0.00    -0.381 OA
ATOM     23  H3  UNL     1      -1.977   4.367  14.437  1.00  0.00     0.211 HD
ENDBRANCH   1  22
BRANCH   2  24
HETATM   24  O4  UNL     1      -4.375   2.587  12.155  1.00  0.00    -0.392 OA
ATOM     25  H4  UNL     1      -4.404   1.799  12.684  1.00  0.00     0.210 HD
ENDBRANCH   2  24
TORSDOF 7
ENDMDL