MODEL 2
REMARK VINA RESULT: -6.449088954      2.596      6.840
REMARK  6 active torsions:
REMARK  status: ('A' for Active; 'I' for Inactive)
REMARK    1  A    between atoms: C4_6  and  S1_7
REMARK    2  A    between atoms: S1_7  and  C5_8
REMARK    3  A    between atoms: C5_8  and  C6_9
REMARK    4  A    between atoms: C6_9  and  C7_10
REMARK    5  A    between atoms: C8_11  and  O2_12
REMARK    6  A    between atoms: C9_14  and  O3_15
ROOT
HETATM    1  C7  UNL     1      -2.965   4.964  12.579  1.00  0.00     0.049 C
HETATM    2  C8  UNL     1      -2.341   4.405  11.342  1.00  0.00     0.156 C
HETATM    3  C9  UNL     1      -3.541   3.770  10.649  1.00  0.00     0.178 C
HETATM    4  C10 UNL     1      -4.708   4.682  11.003  1.00  0.00     0.185 C
HETATM    5  O4  UNL     1      -5.086   5.455   9.907  1.00  0.00    -0.345 OA
HETATM    6  C11 UNL     1      -4.722   6.751  10.152  1.00  0.00     0.158 C
HETATM    7  C12 UNL     1      -4.144   7.321   8.853  1.00  0.00     0.078 C
HETATM    8  C13 UNL     1      -5.883   7.616  10.586  1.00  0.00     0.078 C
HETATM    9  O5  UNL     1      -3.758   6.733  11.155  1.00  0.00    -0.347 OA
HETATM   10  C14 UNL     1      -4.162   5.699  11.957  1.00  0.00     0.163 C
ENDROOT
BRANCH   1  11
HETATM   11  C6  UNL     1      -3.547   3.933  13.478  1.00  0.00     0.020 C
BRANCH  11  12
HETATM   12  C5  UNL     1      -4.069   4.399  14.788  1.00  0.00     0.076 C
BRANCH  12  13
HETATM   13  S1  UNL     1      -5.726   3.618  15.016  1.00  0.00    -0.143 SA
BRANCH  13  14
HETATM   14  C4  UNL     1      -5.544   2.363  16.275  1.00  0.00     0.157 C
HETATM   15  N1  UNL     1      -5.211   1.038  15.849  1.00  0.00    -0.343 N
HETATM   16  C1  UNL     1      -4.457   0.392  14.813  1.00  0.00     0.154 C
HETATM   17  C2  UNL     1      -5.976   0.538  16.930  1.00  0.00     0.223 C
HETATM   18  O1  UNL     1      -5.856  -0.466  17.644  1.00  0.00    -0.273 OA
HETATM   19  C3  UNL     1      -6.859   1.721  16.741  1.00  0.00     0.139 C
ENDBRANCH  13  14
ENDBRANCH  12  13
ENDBRANCH  11  12
ENDBRANCH   1  11
BRANCH   2  20
HETATM   20  O2  UNL     1      -1.306   3.527  11.550  1.00  0.00    -0.392 OA
ATOM     21  H2  UNL     1      -1.464   2.863  12.211  1.00  0.00     0.210 HD
ENDBRANCH   2  20
BRANCH   3  22
HETATM   22  O3  UNL     1      -3.318   3.695   9.293  1.00  0.00    -0.390 OA
ATOM     23  H3  UNL     1      -3.775   4.399   8.847  1.00  0.00     0.210 HD
ENDBRANCH   3  22
TORSDOF 6
ENDMDL