MODEL 2
REMARK VINA RESULT: -6.298903718      1.633      4.289
REMARK  4 active torsions:
REMARK  status: ('A' for Active; 'I' for Inactive)
REMARK    1  A    between atoms: C6_10  and  C7_11
REMARK    2  A    between atoms: C7_11  and  O5_12
REMARK    3  A    between atoms: C7_11  and  C8_14
REMARK    4  A    between atoms: C8_14  and  O6_15
ROOT
HETATM    1  C1  UNL     1      -3.766   3.927  12.282  1.00  0.00     0.042 C
HETATM    2  C2  UNL     1      -4.315   2.745  13.033  1.00  0.00     0.152 C
HETATM    3  O1  UNL     1      -3.663   2.672  14.261  1.00  0.00    -0.375 OA
HETATM    4  C3  UNL     1      -4.555   2.762  15.329  1.00  0.00     0.163 A
HETATM    5  C4  UNL     1      -4.232   1.877  16.494  1.00  0.00     0.165 A
HETATM    6  O2  UNL     1      -3.632   0.661  16.213  1.00  0.00    -0.349 OA
HETATM    7  C5  UNL     1      -4.578   0.269  15.254  1.00  0.00     0.306 A
HETATM    8  O3  UNL     1      -4.011   0.186  14.008  1.00  0.00    -0.207 OA
HETATM    9  O4  UNL     1      -4.838   0.470  13.025  1.00  0.00    -0.228 OA
HETATM   10  C6  UNL     1      -4.230   1.462  12.262  1.00  0.00     0.219 C
HETATM   11  C9  UNL     1      -5.324   1.533  15.523  1.00  0.00     0.107 A
ENDROOT
BRANCH  10  12
HETATM   12  C7  UNL     1      -2.805   1.097  11.907  1.00  0.00     0.176 C
BRANCH  12  13
HETATM   13  O5  UNL     1      -1.980   2.221  11.907  1.00  0.00    -0.391 OA
ATOM     14  H5  UNL     1      -2.048   2.698  11.088  1.00  0.00     0.210 HD
ENDBRANCH  12  13
BRANCH  12  15
HETATM   15  C8  UNL     1      -2.748   0.512  10.514  1.00  0.00     0.198 C
BRANCH  15  16
HETATM   16  O6  UNL     1      -3.938  -0.078  10.155  1.00  0.00    -0.398 OA
ATOM     17  H6  UNL     1      -4.657   0.212  10.704  1.00  0.00     0.209 HD
ENDBRANCH  15  16
ENDBRANCH  12  15
ENDBRANCH  10  12
TORSDOF 4
ENDMDL