MODEL 1
REMARK VINA RESULT: -6.290731831      0.000      0.000
REMARK  6 active torsions:
REMARK  status: ('A' for Active; 'I' for Inactive)
REMARK    1  A    between atoms: C3_5  and  O1_6
REMARK    2  A    between atoms: O1_6  and  C4_7
REMARK    3  A    between atoms: C4_7  and  N3_8
REMARK    4  A    between atoms: N3_8  and  N4_9
REMARK    5  A    between atoms: N4_9  and  O2_11
REMARK    6  A    between atoms: C5_13  and  O3_14
ROOT
HETATM    1  N1  UNL     1      -0.328   1.886   9.256  1.00  0.00    -0.171 NA
HETATM    2  C1  UNL     1      -1.394   2.056   9.716  1.00  0.00     0.190 C
HETATM    3  N2  UNL     1      -2.660   2.269  10.283  1.00  0.00    -0.256 N
HETATM    4  C2  UNL     1      -3.263   1.171  10.999  1.00  0.00     0.184 C
HETATM    5  C3  UNL     1      -4.233   1.632  12.063  1.00  0.00     0.179 C
HETATM    6  C5  UNL     1      -5.280   2.566  11.509  1.00  0.00     0.160 C
HETATM    7  C6  UNL     1      -4.730   3.967  11.354  1.00  0.00     0.132 C
HETATM    8  S1  UNL     1      -3.412   3.843  10.085  1.00  0.00    -0.041 SA
ENDROOT
BRANCH   5   9
HETATM    9  O1  UNL     1      -4.904   0.467  12.511  1.00  0.00    -0.324 OA
BRANCH   9  10
HETATM   10  C4  UNL     1      -4.332  -0.363  13.441  1.00  0.00     0.348 C
BRANCH  10  11
HETATM   11  N3  UNL     1      -4.635  -0.246  14.648  1.00  0.00    -0.293 NA
BRANCH  11  12
HETATM   12  N4  UNL     1      -4.718   0.006  15.871  1.00  0.00    -0.141 N
ATOM     13  H4  UNL     1      -5.523  -0.258  16.439  1.00  0.00     0.231 HD
BRANCH  12  14
HETATM   14  O2  UNL     1      -3.613   0.681  16.387  1.00  0.00    -0.264 OA
ATOM     15  H2  UNL     1      -3.246   0.282  17.167  1.00  0.00     0.247 HD
ENDBRANCH  12  14
ENDBRANCH  11  12
ENDBRANCH  10  11
ENDBRANCH   9  10
ENDBRANCH   5   9
BRANCH   6  16
HETATM   16  O3  UNL     1      -5.755   2.061  10.302  1.00  0.00    -0.392 OA
ATOM     17  H3  UNL     1      -5.366   2.545   9.584  1.00  0.00     0.210 HD
ENDBRANCH   6  16
TORSDOF 6
ENDMDL