MODEL 5
REMARK VINA RESULT: -5.333518765      1.713      3.652
REMARK  4 active torsions:
REMARK  status: ('A' for Active; 'I' for Inactive)
REMARK    1  A    between atoms: O1_2  and  C2_3
REMARK    2  A    between atoms: C7_9  and  O3_10
REMARK    3  A    between atoms: C9_12  and  O4_13
REMARK    4  A    between atoms: C10_15  and  O5_16
ROOT
HETATM    1  C2  UNL     1      -3.961   3.846  11.236  1.00  0.00     0.175 C
HETATM    2  C3  UNL     1      -2.941   2.772  10.836  1.00  0.00     0.203 C
HETATM    3  O2  UNL     1      -3.683   1.717  10.372  1.00  0.00    -0.376 OA
HETATM    4  C4  UNL     1      -3.772   0.733  11.308  1.00  0.00     0.082 C
HETATM    5  C5  UNL     1      -2.395   0.056  11.391  1.00  0.00     0.048 C
HETATM    6  C6  UNL     1      -4.718  -0.349  10.814  1.00  0.00     0.048 C
HETATM    7  C7  UNL     1      -4.124   1.177  12.685  1.00  0.00     0.185 C
HETATM    8  C9  UNL     1      -5.104   2.253  12.825  1.00  0.00     0.181 C
HETATM    9  C10 UNL     1      -5.231   3.241  11.726  1.00  0.00     0.180 C
ENDROOT
BRANCH   1  10
HETATM   10  O1  UNL     1      -3.356   4.722  12.090  1.00  0.00    -0.386 OA
HETATM   11  C1  UNL     1      -2.025   4.346  12.231  1.00  0.00     0.202 C
ENDBRANCH   1  10
BRANCH   9  12
HETATM   12  O5  UNL     1      -5.905   2.672  10.638  1.00  0.00    -0.390 OA
ATOM     13  H5  UNL     1      -6.332   1.876  10.929  1.00  0.00     0.210 HD
ENDBRANCH   9  12
BRANCH   8  14
HETATM   14  O4  UNL     1      -4.801   2.985  13.999  1.00  0.00    -0.390 OA
ATOM     15  H4  UNL     1      -4.850   2.395  14.742  1.00  0.00     0.210 HD
ENDBRANCH   8  14
BRANCH   7  16
HETATM   16  O3  UNL     1      -4.576   0.043  13.363  1.00  0.00    -0.385 OA
HETATM   17  C8  UNL     1      -4.383   0.114  14.727  1.00  0.00     0.202 C
ENDBRANCH   7  16
TORSDOF 4
ENDMDL