MODEL 5
REMARK VINA RESULT: -6.886071130      1.582      2.155
REMARK  4 active torsions:
REMARK  status: ('A' for Active; 'I' for Inactive)
REMARK    1  A    between atoms: C4_5  and  O2_6
REMARK    2  A    between atoms: O2_6  and  C5_7
REMARK    3  A    between atoms: C8_11  and  O4_12
REMARK    4  A    between atoms: C9_14  and  O5_15
ROOT
HETATM    1  C5  UNL     1      -3.815   1.558  12.695  1.00  0.00     0.302 C
HETATM    2  O3  UNL     1      -2.634   2.301  12.454  1.00  0.00    -0.330 OA
HETATM    3  C6  UNL     1      -2.342   2.630  11.140  1.00  0.00     0.137 C
HETATM    4  C7  UNL     1      -2.423   1.637  10.245  1.00  0.00     0.031 C
HETATM    5  C8  UNL     1      -2.816   0.307  10.770  1.00  0.00     0.176 C
HETATM    6  C9  UNL     1      -4.029   0.479  11.662  1.00  0.00     0.206 C
ENDROOT
BRANCH   1   7
HETATM    7  O2  UNL     1      -3.799   0.947  13.943  1.00  0.00    -0.305 OA
BRANCH   7   8
HETATM    8  C4  UNL     1      -4.980   1.135  14.661  1.00  0.00     0.415 C
HETATM    9  O1  UNL     1      -4.919   2.408  15.199  1.00  0.00    -0.335 OA
HETATM   10  C3  UNL     1      -6.065   2.765  15.893  1.00  0.00     0.209 C
HETATM   11  C2  UNL     1      -6.485   1.579  16.701  1.00  0.00    -0.042 C
HETATM   12  C1  UNL     1      -7.674   1.454  17.234  1.00  0.00     0.019 C
HETATM   13  C10 UNL     1      -5.422   0.526  16.857  1.00  0.00     0.209 C
HETATM   14  O6  UNL     1      -5.053   0.130  15.602  1.00  0.00    -0.335 OA
ENDBRANCH   7   8
ENDBRANCH   1   7
BRANCH   6  15
HETATM   15  O5  UNL     1      -5.149   0.836  10.876  1.00  0.00    -0.388 OA
ATOM     16  H5  UNL     1      -5.930   0.509  11.306  1.00  0.00     0.210 HD
ENDBRANCH   6  15
BRANCH   5  17
HETATM   17  O4  UNL     1      -3.190  -0.537   9.724  1.00  0.00    -0.389 OA
ATOM     18  H4  UNL     1      -4.037  -0.929   9.903  1.00  0.00     0.210 HD
ENDBRANCH   5  17
TORSDOF 4
ENDMDL