MODEL 2
REMARK VINA RESULT: -6.338554274      2.670      5.057
REMARK  4 active torsions:
REMARK  status: ('A' for Active; 'I' for Inactive)
REMARK    1  A    between atoms: C2_5  and  O3_6
REMARK    2  A    between atoms: O3_6  and  C3_7
REMARK    3  A    between atoms: C4_8  and  O4_9
REMARK    4  A    between atoms: C7_13  and  O5_14
ROOT
HETATM    1  C3  UNL     1      -3.471   1.929  11.120  1.00  0.00     0.182 C
HETATM    2  C4  UNL     1      -2.267   1.332  10.419  1.00  0.00     0.149 C
HETATM    3  C5  UNL     1      -1.479   2.578   9.995  1.00  0.00     0.037 C
HETATM    4  C6  UNL     1      -2.638   3.450   9.517  1.00  0.00     0.037 C
HETATM    5  C7  UNL     1      -3.560   3.363  10.718  1.00  0.00     0.149 C
ENDROOT
BRANCH   1   6
HETATM    6  O3  UNL     1      -3.321   1.687  12.450  1.00  0.00    -0.347 OA
BRANCH   6   7
HETATM    7  C2  UNL     1      -4.444   1.269  13.131  1.00  0.00     0.304 C
HETATM    8  C1  UNL     1      -4.299  -0.158  13.432  1.00  0.00     0.252 C
HETATM    9  O2  UNL     1      -4.869  -0.492  14.634  1.00  0.00    -0.269 OA
HETATM   10  S1  UNL     1      -4.719   0.922  15.577  1.00  0.00     0.308 S
HETATM   11  O1  UNL     1      -3.459   0.852  16.455  1.00  0.00    -0.196 OA
HETATM   12  O6  UNL     1      -4.495   2.017  14.301  1.00  0.00    -0.239 OA
ENDBRANCH   6   7
ENDBRANCH   1   6
BRANCH   2  13
HETATM   13  O4  UNL     1      -1.503   0.538  11.245  1.00  0.00    -0.393 OA
ATOM     14  H4  UNL     1      -0.589   0.800  11.271  1.00  0.00     0.210 HD
ENDBRANCH   2  13
BRANCH   5  15
HETATM   15  O5  UNL     1      -4.837   3.716  10.272  1.00  0.00    -0.393 OA
ATOM     16  H5  UNL     1      -4.826   4.473   9.699  1.00  0.00     0.210 HD
ENDBRANCH   5  15
TORSDOF 4
ENDMDL