MODEL 4
REMARK VINA RESULT: -6.552218998      1.657      2.162
REMARK  4 active torsions:
REMARK  status: ('A' for Active; 'I' for Inactive)
REMARK    1  A    between atoms: C2_3  and  N2_4
REMARK    2  A    between atoms: N3_7  and  C5_8
REMARK    3  A    between atoms: C7_10  and  O1_11
REMARK    4  A    between atoms: C8_13  and  O2_14
ROOT
HETATM    1  N1  UNL     1      -6.056  -0.670  17.651  1.00  0.00    -0.196 NA
HETATM    2  C1  UNL     1      -5.997   0.480  17.626  1.00  0.00     0.079 C
HETATM    3  C2  UNL     1      -5.926   1.931  17.572  1.00  0.00     0.256 C
ENDROOT
BRANCH   3   4
HETATM    4  N2  UNL     1      -5.729   2.398  16.197  1.00  0.00    -0.295 N
HETATM    5  C3  UNL     1      -6.452   3.341  15.572  1.00  0.00     0.114 A
HETATM    6  C4  UNL     1      -5.960   3.491  14.306  1.00  0.00     0.113 A
HETATM    7  N3  UNL     1      -4.930   2.636  14.153  1.00  0.00    -0.303 N
HETATM    8  C10 UNL     1      -4.811   1.991  15.304  1.00  0.00     0.329 A
HETATM    9  O3  UNL     1      -3.951   1.106  15.545  1.00  0.00    -0.246 OA
BRANCH   7  10
HETATM   10  C5  UNL     1      -4.191   2.548  12.922  1.00  0.00     0.099 C
HETATM   11  C6  UNL     1      -4.081   1.103  12.427  1.00  0.00     0.060 C
HETATM   12  C7  UNL     1      -3.547   1.333  11.024  1.00  0.00     0.148 C
HETATM   13  C8  UNL     1      -4.421   2.466  10.546  1.00  0.00     0.148 C
HETATM   14  C9  UNL     1      -4.813   3.261  11.776  1.00  0.00     0.060 C
BRANCH  12  15
HETATM   15  O1  UNL     1      -3.761   0.220  10.222  1.00  0.00    -0.393 OA
ATOM     16  H1  UNL     1      -3.045  -0.399  10.302  1.00  0.00     0.210 HD
ENDBRANCH  12  15
BRANCH  13  17
HETATM   17  O2  UNL     1      -3.691   3.243   9.642  1.00  0.00    -0.393 OA
ATOM     18  H2  UNL     1      -4.216   3.375   8.862  1.00  0.00     0.210 HD
ENDBRANCH  13  17
ENDBRANCH   7  10
ENDBRANCH   3   4
TORSDOF 4
ENDMDL