MODEL 1
REMARK VINA RESULT: -6.784431035      0.000      0.000
REMARK  3 active torsions:
REMARK  status: ('A' for Active; 'I' for Inactive)
REMARK    1  A    between atoms: S1_2  and  O3_4
REMARK    2  A    between atoms: O3_4  and  C1_5
REMARK    3  A    between atoms: C3_7  and  O4_8
ROOT
HETATM    1  C1  UNL     1      -4.160   0.343  13.535  1.00  0.00     0.182 C
HETATM    2  C2  UNL     1      -4.609   1.751  13.234  1.00  0.00     0.096 C
HETATM    3  C3  UNL     1      -5.355   1.885  11.942  1.00  0.00     0.260 C
HETATM    4  O5  UNL     1      -4.724   1.332  10.851  1.00  0.00    -0.351 OA
HETATM    5  C4  UNL     1      -3.660   0.548  11.178  1.00  0.00     0.186 C
HETATM    6  C5  UNL     1      -3.256  -0.475  10.170  1.00  0.00     0.244 C
HETATM    7  O6  UNL     1      -2.839  -1.532  10.931  1.00  0.00    -0.238 OA
HETATM    8  O7  UNL     1      -3.250  -1.426  12.144  1.00  0.00    -0.230 OA
HETATM    9  C6  UNL     1      -4.151  -0.421  12.268  1.00  0.00     0.222 C
ENDROOT
BRANCH   1  10
HETATM   10  O3  UNL     1      -4.909  -0.290  14.491  1.00  0.00    -0.254 OA
BRANCH  10  11
HETATM   11  S1  UNL     1      -4.969   0.600  15.933  1.00  0.00     0.401 S
HETATM   12  O1  UNL     1      -5.778  -0.091  17.007  1.00  0.00    -0.179 OA
HETATM   13  O2  UNL     1      -3.452   1.107  16.459  1.00  0.00    -0.179 OA
ENDBRANCH  10  11
ENDBRANCH   1  10
BRANCH   3  14
HETATM   14  O4  UNL     1      -5.510   3.248  11.684  1.00  0.00    -0.371 OA
ATOM     15  H4  UNL     1      -6.373   3.502  11.991  1.00  0.00     0.212 HD
ENDBRANCH   3  14
TORSDOF 3
ENDMDL