MODEL 2
REMARK VINA RESULT: -5.724001199      2.093      3.883
REMARK  4 active torsions:
REMARK  status: ('A' for Active; 'I' for Inactive)
REMARK    1  A    between atoms: C2_2  and  O1_4
REMARK    2  A    between atoms: O1_4  and  C4_5
REMARK    3  A    between atoms: C5_6  and  O2_7
REMARK    4  A    between atoms: C10_15  and  O4_16
ROOT
HETATM    1  C4  UNL     1      -5.917   2.568  14.932  1.00  0.00     0.185 C
HETATM    2  C5  UNL     1      -6.578   3.869  14.661  1.00  0.00     0.178 C
HETATM    3  C6  UNL     1      -6.288   4.404  13.286  1.00  0.00     0.150 C
HETATM    4  C7  UNL     1      -6.737   5.840  13.153  1.00  0.00     0.042 C
HETATM    5  O3  UNL     1      -4.930   4.375  12.997  1.00  0.00    -0.361 OA
HETATM    6  C8  UNL     1      -4.590   3.021  12.839  1.00  0.00     0.259 C
HETATM    7  C9  UNL     1      -5.356   2.383  11.782  1.00  0.00     0.094 C
HETATM    8  N1  UNL     1      -5.965   1.872  10.945  1.00  0.00    -0.194 NA
HETATM    9  C10 UNL     1      -4.729   2.253  14.111  1.00  0.00     0.192 C
ENDROOT
BRANCH   9  10
HETATM   10  O4  UNL     1      -4.702   0.883  13.793  1.00  0.00    -0.389 OA
ATOM     11  H4  UNL     1      -4.803   0.359  14.579  1.00  0.00     0.210 HD
ENDBRANCH   9  10
BRANCH   1  12
HETATM   12  O1  UNL     1      -5.606   2.529  16.309  1.00  0.00    -0.376 OA
BRANCH  12  13
HETATM   13  C2  UNL     1      -6.436   1.698  17.015  1.00  0.00     0.114 C
HETATM   14  C1  UNL     1      -5.776   0.335  17.140  1.00  0.00     0.039 C
HETATM   15  C3  UNL     1      -6.546   2.218  18.443  1.00  0.00     0.039 C
ENDBRANCH  12  13
ENDBRANCH   1  12
BRANCH   2  16
HETATM   16  O2  UNL     1      -6.262   4.793  15.660  1.00  0.00    -0.390 OA
ATOM     17  H2  UNL     1      -6.795   5.574  15.570  1.00  0.00     0.210 HD
ENDBRANCH   2  16
TORSDOF 4
ENDMDL