MODEL 3
REMARK VINA RESULT: -5.896518986      1.713      2.474
REMARK  3 active torsions:
REMARK  status: ('A' for Active; 'I' for Inactive)
REMARK    1  A    between atoms: O1_2  and  C2_3
REMARK    2  A    between atoms: N1_8  and  C6_9
REMARK    3  A    between atoms: C10_16  and  O3_17
ROOT
HETATM    1  C6  UNL     1      -5.049   3.349  12.206  1.00  0.00     0.453 C
HETATM    2  N2  UNL     1      -5.276   4.026  10.973  1.00  0.00    -0.041 N
ATOM      3  H21 UNL     1      -6.232   3.881  10.647  1.00  0.00     0.279 HD
ATOM      4  H22 UNL     1      -4.771   3.575  10.210  1.00  0.00     0.279 HD
HETATM    5  C7  UNL     1      -4.965   5.415  11.042  1.00  0.00     0.235 C
HETATM    6  C8  UNL     1      -5.551   6.101  12.253  1.00  0.00     0.030 C
HETATM    7  C9  UNL     1      -5.312   5.369  13.530  1.00  0.00     0.037 C
HETATM    8  C10 UNL     1      -5.813   3.936  13.379  1.00  0.00     0.179 C
ENDROOT
BRANCH   1   9
HETATM    9  N1  UNL     1      -5.067   1.925  12.167  1.00  0.00     0.179 N
HETATM   10  C2  UNL     1      -4.114   1.380  13.140  1.00  0.00     0.510 C
HETATM   11  O2  UNL     1      -3.101   0.818  12.450  1.00  0.00    -0.330 OA
HETATM   12  C3  UNL     1      -3.386   0.818  11.097  1.00  0.00     0.151 C
HETATM   13  C4  UNL     1      -3.285  -0.539  10.439  1.00  0.00     0.041 C
HETATM   14  C5  UNL     1      -4.817   1.285  10.936  1.00  0.00     0.313 C
BRANCH  10  15
HETATM   15  O1  UNL     1      -4.810   0.418  13.867  1.00  0.00    -0.342 OA
HETATM   16  C1  UNL     1      -4.534   0.600  15.240  1.00  0.00     0.206 C
ENDBRANCH  10  15
ENDBRANCH   1   9
BRANCH   8  17
HETATM   17  O3  UNL     1      -7.166   3.992  13.148  1.00  0.00    -0.392 OA
ATOM     18  H3  UNL     1      -7.669   3.604  13.853  1.00  0.00     0.210 HD
ENDBRANCH   8  17
TORSDOF 3
ENDMDL