MODEL 3
REMARK VINA RESULT: -5.901933752      1.251      1.454
REMARK  4 active torsions:
REMARK  status: ('A' for Active; 'I' for Inactive)
REMARK    1  A    between atoms: O1_2  and  C2_3
REMARK    2  A    between atoms: C2_3  and  C3_4
REMARK    3  A    between atoms: C8_12  and  O5_13
REMARK    4  A    between atoms: C9_15  and  O6_16
ROOT
HETATM    1  C3  UNL     1      -3.897   1.777  11.066  1.00  0.00     0.182 C
HETATM    2  O2  UNL     1      -3.122   2.144  12.148  1.00  0.00    -0.320 OA
HETATM    3  C4  UNL     1      -3.666   3.293  12.669  1.00  0.00     0.318 C
HETATM    4  O3  UNL     1      -2.918   4.444  12.594  1.00  0.00    -0.294 OA
HETATM    5  C5  UNL     1      -3.072   4.646  13.945  1.00  0.00     0.168 C
HETATM    6  C6  UNL     1      -1.808   4.883  14.731  1.00  0.00     0.079 C
HETATM    7  C7  UNL     1      -4.125   5.655  14.352  1.00  0.00     0.079 C
HETATM    8  O4  UNL     1      -3.496   3.317  14.056  1.00  0.00    -0.294 OA
HETATM    9  C8  UNL     1      -5.098   3.384  12.221  1.00  0.00     0.242 C
HETATM   10  C9  UNL     1      -5.307   1.978  11.641  1.00  0.00     0.186 C
ENDROOT
BRANCH   9  11
HETATM   11  O5  UNL     1      -5.182   4.251  11.122  1.00  0.00    -0.385 OA
ATOM     12  H5  UNL     1      -6.096   4.395  10.907  1.00  0.00     0.210 HD
ENDBRANCH   9  11
BRANCH   1  13
HETATM   13  C2  UNL     1      -3.684   0.362  10.634  1.00  0.00     0.201 C
BRANCH  13  14
HETATM   14  O1  UNL     1      -4.592  -0.452  11.260  1.00  0.00    -0.393 OA
HETATM   15  C1  UNL     1      -4.046  -1.482  11.992  1.00  0.00     0.201 C
ENDBRANCH  13  14
ENDBRANCH   1  13
BRANCH  10  16
HETATM   16  O6  UNL     1      -6.216   1.967  10.615  1.00  0.00    -0.390 OA
ATOM     17  H6  UNL     1      -6.429   2.862  10.379  1.00  0.00     0.210 HD
ENDBRANCH  10  16
TORSDOF 4
ENDMDL