MODEL 1
REMARK VINA RESULT: -6.226268056      0.000      0.000
REMARK  5 active torsions:
REMARK  status: ('A' for Active; 'I' for Inactive)
REMARK    1  A    between atoms: C2_2  and  N1_5
REMARK    2  A    between atoms: N1_5  and  C5_7
REMARK    3  A    between atoms: C5_7  and  O1_9
REMARK    4  A    between atoms: O1_9  and  C6_10
REMARK    5  A    between atoms: C6_10  and  C7_11
ROOT
HETATM    1  C7  UNL     1      -3.572   5.088  14.239  1.00  0.00     0.056 A
HETATM    2  C8  UNL     1      -2.441   4.528  14.984  1.00  0.00     0.087 A
HETATM    3  N2  UNL     1      -1.500   3.826  14.475  1.00  0.00    -0.315 N
ATOM      4  H2  UNL     1      -0.740   3.465  15.051  1.00  0.00     0.185 HD
HETATM    5  N3  UNL     1      -1.551   3.572  13.107  1.00  0.00    -0.295 N
ATOM      6  H3  UNL     1      -0.796   3.011  12.713  1.00  0.00     0.187 HD
HETATM    7  C9  UNL     1      -2.456   3.976  12.298  1.00  0.00     0.106 A
HETATM    8  C10 UNL     1      -2.405   3.647  10.878  1.00  0.00     0.114 C
HETATM    9  N4  UNL     1      -2.345   3.392   9.751  1.00  0.00    -0.190 NA
HETATM   10  C11 UNL     1      -3.572   4.785  12.786  1.00  0.00     0.082 A
ENDROOT
BRANCH   1  11
HETATM   11  C6  UNL     1      -4.862   4.585  14.928  1.00  0.00     0.188 C
BRANCH  11  12
HETATM   12  O1  UNL     1      -4.831   3.332  15.270  1.00  0.00    -0.326 OA
BRANCH  12  13
HETATM   13  C5  UNL     1      -4.820   2.092  15.603  1.00  0.00     0.210 C
HETATM   14  S1  UNL     1      -4.482   0.828  14.569  1.00  0.00    -0.033 SA
BRANCH  13  15
HETATM   15  N1  UNL     1      -5.108   1.663  16.946  1.00  0.00    -0.353 N
ATOM     16  H1  UNL     1      -4.338   1.301  17.509  1.00  0.00     0.163 HD
BRANCH  15  17
HETATM   17  C2  UNL     1      -6.415   1.715  17.543  1.00  0.00     0.022 C
HETATM   18  C1  UNL     1      -7.191   0.494  17.099  1.00  0.00     0.037 C
HETATM   19  C3  UNL     1      -7.151   2.972  17.095  1.00  0.00     0.037 C
HETATM   20  C4  UNL     1      -6.267   1.730  19.062  1.00  0.00     0.037 C
ENDBRANCH  15  17
ENDBRANCH  13  15
ENDBRANCH  12  13
ENDBRANCH  11  12
ENDBRANCH   1  11
TORSDOF 5
ENDMDL