MODEL 5
REMARK VINA RESULT: -6.023933464      2.977      5.436
REMARK  7 active torsions:
REMARK  status: ('A' for Active; 'I' for Inactive)
REMARK    1  A    between atoms: C2_2  and  O2_4
REMARK    2  A    between atoms: O2_4  and  C3_5
REMARK    3  A    between atoms: C5_7  and  O3_8
REMARK    4  A    between atoms: C5_7  and  C13_22
REMARK    5  A    between atoms: O3_8  and  C6_9
REMARK    6  A    between atoms: C9_13  and  C10_14
REMARK    7  A    between atoms: C12_17  and  N1_18
ROOT
HETATM    1  C3  UNL     1      -4.886   3.207  14.892  1.00  0.00     0.142 C
HETATM    2  C4  UNL     1      -6.080   3.488  13.978  1.00  0.00     0.072 C
HETATM    3  C5  UNL     1      -5.817   4.920  13.578  1.00  0.00     0.082 C
HETATM    4  C8  UNL     1      -5.403   5.487  14.947  1.00  0.00     0.050 C
HETATM    5  C9  UNL     1      -4.209   4.536  15.134  1.00  0.00     0.058 C
ENDROOT
BRANCH   1   6
HETATM    6  O2  UNL     1      -5.246   2.541  16.059  1.00  0.00    -0.316 OA
BRANCH   6   7
HETATM    7  C2  UNL     1      -4.763   1.288  16.404  1.00  0.00     0.255 C
HETATM    8  C1  UNL     1      -5.630   0.191  16.910  1.00  0.00     0.126 C
HETATM    9  O1  UNL     1      -3.528   1.095  16.274  1.00  0.00    -0.266 OA
ENDBRANCH   6   7
ENDBRANCH   1   6
BRANCH   5  10
HETATM   10  C10 UNL     1      -3.407   4.852  13.905  1.00  0.00     0.120 C
HETATM   11  F1  UNL     1      -3.831   5.981  13.260  1.00  0.00    -0.242 F
HETATM   12  C11 UNL     1      -3.026   3.714  13.030  1.00  0.00     0.078 C
HETATM   13  C12 UNL     1      -1.582   3.897  13.483  1.00  0.00     0.196 C
HETATM   14  C13 UNL     1      -1.991   4.955  14.493  1.00  0.00     0.091 C
BRANCH  13  15
HETATM   15  N1  UNL     1      -0.728   4.504  12.473  1.00  0.00    -0.074 N
ATOM     16  H13 UNL     1      -0.362   3.796  11.835  1.00  0.00     0.274 HD
ATOM     17  H12 UNL     1      -1.281   5.055  11.816  1.00  0.00     0.274 HD
ATOM     18  H11 UNL     1       0.030   5.064  12.862  1.00  0.00     0.274 HD
ENDBRANCH  13  15
ENDBRANCH   5  10
BRANCH   3  19
HETATM   19  O3  UNL     1      -6.872   5.589  13.023  1.00  0.00    -0.310 OA
BRANCH  19  20
HETATM   20  C6  UNL     1      -6.857   6.464  11.977  1.00  0.00     0.255 C
HETATM   21  C7  UNL     1      -7.744   7.640  12.008  1.00  0.00     0.126 C
HETATM   22  O4  UNL     1      -6.076   6.224  11.023  1.00  0.00    -0.266 OA
ENDBRANCH  19  20
ENDBRANCH   3  19
TORSDOF 7
ENDMDL