MODEL 2
REMARK VINA RESULT: -6.697013153      3.804      6.090
REMARK  4 active torsions:
REMARK  status: ('A' for Active; 'I' for Inactive)
REMARK    1  A    between atoms: C2_2  and  C3_4
REMARK    2  A    between atoms: C3_4  and  C4_5
REMARK       I    between atoms: N4_14  and  C9_15
REMARK    3  A    between atoms: C9_15  and  O2_17
REMARK    4  A    between atoms: O2_17  and  C10_18
ROOT
HETATM    1  C4  UNL     1      -4.449   4.643  13.128  1.00  0.00     0.151 C
HETATM    2  C5  UNL     1      -3.986   3.529  13.953  1.00  0.00     0.045 C
HETATM    3  C6  UNL     1      -4.558   3.042  15.031  1.00  0.00     0.120 C
HETATM    4  C7  UNL     1      -4.003   1.928  15.771  1.00  0.00     0.089 C
HETATM    5  N1  UNL     1      -3.566   1.044  16.380  1.00  0.00    -0.192 NA
HETATM    6  N2  UNL     1      -2.786   3.074  13.351  1.00  0.00    -0.331 N
ATOM      7  H2  UNL     1      -2.071   2.511  13.813  1.00  0.00     0.168 HD
HETATM    8  C8  UNL     1      -2.739   3.488  12.107  1.00  0.00     0.200 C
HETATM    9  N3  UNL     1      -1.680   3.216  11.210  1.00  0.00    -0.063 NA
HETATM   10  N4  UNL     1      -3.908   4.239  11.818  1.00  0.00    -0.256 N
HETATM   11  C9  UNL     1      -4.440   4.537  10.542  1.00  0.00     0.370 C
HETATM   12  O1  UNL     1      -3.859   4.117   9.528  1.00  0.00    -0.238 OA
ENDROOT
BRANCH   1  13
HETATM   13  C3  UNL     1      -3.870   5.973  13.424  1.00  0.00     0.069 C
BRANCH  13  14
HETATM   14  C2  UNL     1      -3.476   6.241  14.838  1.00  0.00     0.168 C
HETATM   15  C1  UNL     1      -2.587   7.455  14.978  1.00  0.00     0.045 C
HETATM   16  F1  UNL     1      -4.482   6.333  15.737  1.00  0.00    -0.250 F
ENDBRANCH  13  14
ENDBRANCH   1  13
BRANCH  11  17
HETATM   17  O2  UNL     1      -5.591   5.280  10.348  1.00  0.00    -0.293 OA
BRANCH  17  18
HETATM   18  C10 UNL     1      -5.656   6.640  10.121  1.00  0.00     0.061 C
HETATM   19  C11 UNL     1      -6.353   6.873   8.787  1.00  0.00     0.046 C
HETATM   20  C12 UNL     1      -6.503   7.344  11.174  1.00  0.00     0.046 C
HETATM   21  C13 UNL     1      -4.335   7.346  10.061  1.00  0.00     0.046 C
ENDBRANCH  17  18
ENDBRANCH  11  17
TORSDOF 4
ENDMDL