MODEL 2
REMARK VINA RESULT: -6.441822914      1.018      1.509
REMARK  4 active torsions:
REMARK  status: ('A' for Active; 'I' for Inactive)
REMARK    1  A    between atoms: O1_2  and  C2_3
REMARK    2  A    between atoms: C4_9  and  N3_10
REMARK    3  A    between atoms: N3_10  and  C5_12
REMARK    4  A    between atoms: C5_12  and  C6_13
ROOT
HETATM    1  C2  UNL     1      -4.630   0.363  15.931  1.00  0.00     0.186 A
HETATM    2  N1  UNL     1      -4.464  -0.668  15.103  1.00  0.00    -0.330 N
ATOM      3  H1  UNL     1      -4.532  -1.622  15.459  1.00  0.00     0.168 HD
HETATM    4  C3  UNL     1      -4.209  -0.455  13.796  1.00  0.00     0.184 A
HETATM    5  N2  UNL     1      -4.115   0.776  13.304  1.00  0.00    -0.336 N
ATOM      6  H2  UNL     1      -3.919   0.905  12.312  1.00  0.00     0.168 HD
HETATM    7  C4  UNL     1      -4.272   1.845  14.089  1.00  0.00     0.148 A
HETATM    8  C13 UNL     1      -4.539   1.636  15.450  1.00  0.00     0.210 A
HETATM    9  F1  UNL     1      -4.707   2.694  16.295  1.00  0.00    -0.197 F
ENDROOT
BRANCH   7  10
HETATM   10  N3  UNL     1      -4.199   3.021  13.729  1.00  0.00    -0.341 N
ATOM     11  H3  UNL     1      -4.962   3.535  14.170  1.00  0.00     0.164 HD
BRANCH  10  12
HETATM   12  C5  UNL     1      -3.469   3.913  12.948  1.00  0.00     0.142 C
HETATM   13  C10 UNL     1      -4.144   4.416  11.709  1.00  0.00     0.064 C
HETATM   14  C11 UNL     1      -3.015   4.573  10.702  1.00  0.00     0.031 C
HETATM   15  C12 UNL     1      -2.044   3.574  11.220  1.00  0.00     0.171 C
HETATM   16  O2  UNL     1      -2.215   3.423  12.557  1.00  0.00    -0.360 OA
BRANCH  12  17
HETATM   17  C6  UNL     1      -3.115   5.107  13.853  1.00  0.00    -0.001 C
HETATM   18  C7  UNL     1      -2.601   6.288  13.113  1.00  0.00     0.019 C
HETATM   19  C8  UNL     1      -4.289   5.456  14.728  1.00  0.00     0.019 C
HETATM   20  C9  UNL     1      -2.012   4.624  14.802  1.00  0.00     0.019 C
ENDBRANCH  12  17
ENDBRANCH  10  12
ENDBRANCH   7  10
BRANCH   1  21
HETATM   21  O1  UNL     1      -4.896   0.159  17.290  1.00  0.00    -0.338 OA
HETATM   22  C1  UNL     1      -6.232   0.049  17.698  1.00  0.00     0.211 C
ENDBRANCH   1  21
TORSDOF 4
ENDMDL