MODEL 4
REMARK VINA RESULT: -6.426534132      1.988      3.194
REMARK  3 active torsions:
REMARK  status: ('A' for Active; 'I' for Inactive)
REMARK    1  A    between atoms: O1_2  and  C2_3
REMARK    2  A    between atoms: C5_7  and  O3_8
REMARK    3  A    between atoms: C11_17  and  C12_18
ROOT
HETATM    1  C2  UNL     1      -5.100   1.368  16.183  1.00  0.00     0.220 A
HETATM    2  O2  UNL     1      -4.482   1.739  15.113  1.00  0.00    -0.286 OA
HETATM    3  C3  UNL     1      -4.840   2.906  14.698  1.00  0.00     0.112 A
HETATM    4  C4  UNL     1      -5.795   3.371  15.575  1.00  0.00     0.015 A
HETATM    5  C5  UNL     1      -5.968   2.380  16.539  1.00  0.00     0.133 A
HETATM    6  C6  UNL     1      -6.425   4.704  15.386  1.00  0.00     0.074 C
HETATM    7  C7  UNL     1      -6.381   5.004  13.913  1.00  0.00     0.279 C
HETATM    8  N1  UNL     1      -5.035   4.956  13.420  1.00  0.00     0.115 N
HETATM    9  C8  UNL     1      -4.201   5.970  13.979  1.00  0.00     0.311 C
HETATM   10  C9  UNL     1      -2.818   5.554  13.459  1.00  0.00     0.201 C
HETATM   11  F1  UNL     1      -1.857   6.107  14.268  1.00  0.00    -0.247 F
HETATM   12  C10 UNL     1      -2.905   4.044  13.644  1.00  0.00     0.096 C
HETATM   13  C11 UNL     1      -4.388   3.705  13.522  1.00  0.00     0.270 C
ENDROOT
BRANCH  13  14
HETATM   14  C12 UNL     1      -4.529   2.893  12.284  1.00  0.00     0.168 C
HETATM   15  C13 UNL     1      -3.555   2.926  11.160  1.00  0.00     0.094 C
HETATM   16  O4  UNL     1      -5.489   2.161  12.182  1.00  0.00    -0.295 OA
ENDBRANCH  13  14
BRANCH   1  17
HETATM   17  O1  UNL     1      -5.002   0.200  16.932  1.00  0.00    -0.333 OA
HETATM   18  C1  UNL     1      -6.079  -0.395  17.604  1.00  0.00     0.212 C
ENDBRANCH   1  17
BRANCH   5  19
HETATM   19  O3  UNL     1      -6.836   2.424  17.618  1.00  0.00    -0.356 OA
ATOM     20  H3  UNL     1      -7.762   2.215  17.636  1.00  0.00     0.218 HD
ENDBRANCH   5  19
TORSDOF 3
ENDMDL