MODEL 3
REMARK VINA RESULT: -6.321979227      1.135      1.193
REMARK  3 active torsions:
REMARK  status: ('A' for Active; 'I' for Inactive)
REMARK    1  A    between atoms: C10_14  and  C11_15
REMARK    2  A    between atoms: C11_15  and  C12_17
REMARK    3  A    between atoms: C12_17  and  N1_18
ROOT
HETATM    1  C1  UNL     1      -6.577   2.458  16.544  1.00  0.00     0.015 C
HETATM    2  C2  UNL     1      -5.725   3.299  15.616  1.00  0.00     0.046 C
HETATM    3  C3  UNL     1      -6.498   3.689  14.356  1.00  0.00     0.010 C
HETATM    4  C4  UNL     1      -6.247   5.108  13.964  1.00  0.00     0.004 C
HETATM    5  C5  UNL     1      -5.067   5.243  12.989  1.00  0.00     0.049 C
HETATM    6  C6  UNL     1      -3.896   4.616  13.619  1.00  0.00     0.173 C
HETATM    7  O1  UNL     1      -3.901   4.711  15.019  1.00  0.00    -0.219 OA
HETATM    8  O2  UNL     1      -3.407   3.580  15.479  1.00  0.00    -0.200 OA
HETATM    9  C7  UNL     1      -4.429   2.625  15.270  1.00  0.00     0.199 C
HETATM   10  C8  UNL     1      -4.147   1.409  16.096  1.00  0.00     0.082 C
HETATM   11  O3  UNL     1      -4.347   2.267  13.933  1.00  0.00    -0.319 OA
HETATM   12  C9  UNL     1      -3.714   3.194  13.146  1.00  0.00     0.304 C
HETATM   13  O4  UNL     1      -2.348   3.364  13.359  1.00  0.00    -0.348 OA
HETATM   14  C10 UNL     1      -2.556   4.734  13.066  1.00  0.00     0.187 C
ENDROOT
BRANCH  14  15
HETATM   15  C11 UNL     1      -2.316   4.986  11.633  1.00  0.00     0.140 C
HETATM   16 CL1  UNL     1      -2.724   6.597  11.069  1.00  0.00    -0.120 Cl
BRANCH  15  17
HETATM   17  C12 UNL     1      -0.807   4.804  11.396  1.00  0.00     0.252 C
BRANCH  17  18
HETATM   18  N1  UNL     1      -0.058   5.112  12.580  1.00  0.00    -0.078 N
ATOM     19  H13 UNL     1       0.147   4.274  13.124  1.00  0.00     0.274 HD
ATOM     20  H12 UNL     1       0.897   5.392  12.359  1.00  0.00     0.274 HD
ATOM     21  H11 UNL     1      -0.536   5.816  13.142  1.00  0.00     0.274 HD
ENDBRANCH  17  18
ENDBRANCH  15  17
ENDBRANCH  14  15
TORSDOF 3
ENDMDL