MODEL 3
REMARK VINA RESULT: -6.946931482      2.948      5.392
REMARK  3 active torsions:
REMARK  status: ('A' for Active; 'I' for Inactive)
REMARK    1  A    between atoms: C5_5  and  N1_6
REMARK    2  A    between atoms: N1_6  and  C6_8
REMARK    3  A    between atoms: C7_9  and  C8_10
ROOT
HETATM    1  C6  UNL     1      -4.857   3.143  14.402  1.00  0.00     0.218 C
HETATM    2  C7  UNL     1      -5.731   2.527  15.547  1.00  0.00     0.192 C
HETATM    3  O1  UNL     1      -4.934   1.922  16.440  1.00  0.00    -0.379 OA
HETATM    4  C9  UNL     1      -4.392   0.712  16.242  1.00  0.00     0.176 C
HETATM    5  C10 UNL     1      -4.543  -0.007  14.983  1.00  0.00     0.104 C
HETATM    6  C11 UNL     1      -4.614   0.761  13.735  1.00  0.00     0.102 A
HETATM    7  N2  UNL     1      -4.575   0.130  12.524  1.00  0.00    -0.288 N
ATOM      8  H2  UNL     1      -4.476  -0.876  12.380  1.00  0.00     0.188 HD
HETATM    9  N3  UNL     1      -4.684   1.035  11.573  1.00  0.00    -0.295 N
ATOM     10  H3  UNL     1      -4.683   0.829  10.574  1.00  0.00     0.187 HD
HETATM   11  C12 UNL     1      -4.797   2.259  12.095  1.00  0.00     0.203 A
HETATM   12  N4  UNL     1      -4.750   2.062  13.456  1.00  0.00    -0.306 N
ENDROOT
BRANCH   1  13
HETATM   13  N1  UNL     1      -3.693   3.555  15.001  1.00  0.00    -0.395 N
ATOM     14  H1  UNL     1      -3.314   2.949  15.729  1.00  0.00     0.155 HD
BRANCH  13  15
HETATM   15  C5  UNL     1      -2.974   4.717  14.716  1.00  0.00     0.078 C
HETATM   16  C4  UNL     1      -2.238   4.779  13.429  1.00  0.00     0.025 C
HETATM   17  C3  UNL     1      -2.586   5.978  12.560  1.00  0.00     0.006 C
HETATM   18  C2  UNL     1      -2.221   7.217  13.372  1.00  0.00    -0.019 C
HETATM   19  C1  UNL     1      -2.527   8.458  12.592  1.00  0.00     0.010 C
HETATM   20  C14 UNL     1      -2.905   7.162  14.729  1.00  0.00     0.006 C
HETATM   21  C13 UNL     1      -3.842   5.979  14.801  1.00  0.00     0.025 C
ENDBRANCH  13  15
ENDBRANCH   1  13
BRANCH   2  22
HETATM   22  C8  UNL     1      -6.490   3.678  16.211  1.00  0.00     0.258 C
HETATM   23  F1  UNL     1      -7.241   3.177  17.247  1.00  0.00    -0.253 F
ENDBRANCH   2  22
TORSDOF 3
ENDMDL