MODEL 2
REMARK VINA RESULT: -6.677261506      3.428      3.828
REMARK  4 active torsions:
REMARK  status: ('A' for Active; 'I' for Inactive)
REMARK    1  A    between atoms: O1_2  and  C2_3
REMARK       I    between atoms: C2_3  and  N1_5
REMARK    2  A    between atoms: C5_8  and  N2_10
REMARK       I    between atoms: N2_10  and  C7_12
REMARK    3  A    between atoms: C7_12  and  O4_14
REMARK    4  A    between atoms: O4_14  and  C8_15
ROOT
HETATM    1  C2  UNL     1      -4.595   1.401  16.364  1.00  0.00     0.362 C
HETATM    2  O2  UNL     1      -3.455   0.920  16.138  1.00  0.00    -0.238 OA
HETATM    3  N1  UNL     1      -5.168   2.250  15.391  1.00  0.00    -0.328 N
HETATM    4  C3  UNL     1      -4.496   2.578  14.164  1.00  0.00     0.130 C
HETATM    5  C4  UNL     1      -5.062   3.732  13.427  1.00  0.00     0.050 C
HETATM    6  C5  UNL     1      -5.693   4.796  14.265  1.00  0.00     0.034 C
HETATM    7  C6  UNL     1      -6.838   5.471  13.501  1.00  0.00     0.039 C
HETATM    8  C10 UNL     1      -6.232   4.340  15.570  1.00  0.00     0.050 C
HETATM    9  C11 UNL     1      -6.490   2.847  15.582  1.00  0.00     0.130 C
ENDROOT
BRANCH   6  10
HETATM   10  N2  UNL     1      -4.706   5.831  14.515  1.00  0.00    -0.328 N
HETATM   11  C7  UNL     1      -4.020   6.463  13.438  1.00  0.00     0.366 C
HETATM   12  O3  UNL     1      -4.282   6.111  12.262  1.00  0.00    -0.238 OA
ATOM     13  H2  UNL     1      -4.501   6.109  15.474  1.00  0.00     0.165 HD
BRANCH  11  14
HETATM   14  O4  UNL     1      -3.086   7.439  13.628  1.00  0.00    -0.233 OA
BRANCH  14  15
HETATM   15  C8  UNL     1      -2.172   7.507  14.696  1.00  0.00     0.358 C
HETATM   16  C9  UNL     1      -1.071   8.480  14.276  1.00  0.00     0.126 C
HETATM   17  F1  UNL     1      -1.632   6.268  15.002  1.00  0.00    -0.176 F
HETATM   18  F2  UNL     1      -2.727   8.009  15.848  1.00  0.00    -0.176 F
ENDBRANCH  14  15
ENDBRANCH  11  14
ENDBRANCH   6  10
BRANCH   1  19
HETATM   19  O1  UNL     1      -5.203   1.062  17.551  1.00  0.00    -0.309 OA
HETATM   20  C1  UNL     1      -6.116  -0.023  17.685  1.00  0.00     0.215 C
ENDBRANCH   1  19
TORSDOF 4
ENDMDL