MODEL 3
REMARK VINA RESULT: -6.488688377      2.022      4.810
REMARK  4 active torsions:
REMARK  status: ('A' for Active; 'I' for Inactive)
REMARK    1  A    between atoms: C2_2  and  O1_3
REMARK    2  A    between atoms: O1_3  and  C3_4
REMARK    3  A    between atoms: C3_4  and  C4_6
REMARK    4  A    between atoms: C11_14  and  O3_15
ROOT
HETATM    1  C4  UNL     1      -4.224   4.476  15.058  1.00  0.00     0.106 C
HETATM    2  C5  UNL     1      -5.012   5.557  14.391  1.00  0.00     0.053 C
HETATM    3  C6  UNL     1      -6.046   5.129  13.432  1.00  0.00     0.171 C
HETATM    4  F1  UNL     1      -7.113   6.040  13.391  1.00  0.00    -0.249 F
HETATM    5  C7  UNL     1      -6.644   3.779  13.621  1.00  0.00     0.038 C
HETATM    6  C8  UNL     1      -5.471   2.807  13.816  1.00  0.00     0.023 C
HETATM    7  C9  UNL     1      -4.882   3.162  15.143  1.00  0.00     0.063 C
HETATM    8  C10 UNL     1      -4.078   2.067  15.796  1.00  0.00     0.054 C
HETATM    9  C11 UNL     1      -4.821   0.749  15.779  1.00  0.00     0.143 C
HETATM   10  C12 UNL     1      -6.180   0.830  16.406  1.00  0.00     0.210 C
HETATM   11  O4  UNL     1      -6.772   2.115  16.332  1.00  0.00    -0.318 OA
HETATM   12  C13 UNL     1      -6.091   3.264  16.075  1.00  0.00     0.268 C
HETATM   13  O5  UNL     1      -6.389   4.366  16.543  1.00  0.00    -0.264 OA
ENDROOT
BRANCH   1  14
HETATM   14  C3  UNL     1      -2.916   4.413  14.407  1.00  0.00     0.264 C
HETATM   15  O2  UNL     1      -1.908   4.077  15.044  1.00  0.00    -0.265 OA
BRANCH  14  16
HETATM   16  O1  UNL     1      -2.719   4.719  13.050  1.00  0.00    -0.322 OA
BRANCH  16  17
HETATM   17  C2  UNL     1      -2.251   3.706  12.154  1.00  0.00     0.174 C
HETATM   18  C1  UNL     1      -3.229   3.540  11.009  1.00  0.00     0.034 C
ENDBRANCH  16  17
ENDBRANCH  14  16
ENDBRANCH   1  14
BRANCH   9  19
HETATM   19  O3  UNL     1      -4.008  -0.158  16.500  1.00  0.00    -0.393 OA
ATOM     20  H3  UNL     1      -3.835  -0.877  15.904  1.00  0.00     0.210 HD
ENDBRANCH   9  19
TORSDOF 4
ENDMDL