MODEL 2
REMARK VINA RESULT: -7.355029999      0.890      1.212
REMARK  6 active torsions:
REMARK  status: ('A' for Active; 'I' for Inactive)
REMARK    1  A    between atoms: C2_2  and  O2_4
REMARK    2  A    between atoms: O2_4  and  C3_5
REMARK    3  A    between atoms: C4_6  and  O3_7
REMARK    4  A    between atoms: O3_7  and  C5_8
REMARK    5  A    between atoms: C5_8  and  C6_10
REMARK    6  A    between atoms: C11_15  and  O5_16
ROOT
HETATM    1  C3  UNL     1      -4.123   3.278  13.338  1.00  0.00     0.167 C
HETATM    2  C4  UNL     1      -4.402   3.401  14.833  1.00  0.00     0.164 C
HETATM    3  C10 UNL     1      -3.787   4.749  15.125  1.00  0.00     0.067 C
HETATM    4  C11 UNL     1      -2.430   4.613  14.450  1.00  0.00     0.127 C
HETATM    5  C12 UNL     1      -2.728   3.808  13.203  1.00  0.00     0.042 C
HETATM    6  C13 UNL     1      -2.705   4.757  12.017  1.00  0.00     0.015 C
ENDROOT
BRANCH   2   7
HETATM    7  O3  UNL     1      -3.741   2.344  15.469  1.00  0.00    -0.310 OA
BRANCH   7   8
HETATM    8  C5  UNL     1      -4.386   1.155  15.854  1.00  0.00     0.283 C
HETATM    9  O4  UNL     1      -3.610   0.200  16.114  1.00  0.00    -0.260 OA
BRANCH   8  10
HETATM   10  C6  UNL     1      -5.828   1.065  15.938  1.00  0.00     0.084 C
HETATM   11  C7  UNL     1      -6.515   1.227  17.048  1.00  0.00    -0.082 C
HETATM   12  C8  UNL     1      -5.842   1.522  18.331  1.00  0.00     0.043 C
HETATM   13  C9  UNL     1      -7.998   1.114  17.025  1.00  0.00     0.043 C
ENDBRANCH   8  10
ENDBRANCH   7   8
ENDBRANCH   2   7
BRANCH   1  14
HETATM   14  O2  UNL     1      -4.264   1.958  12.886  1.00  0.00    -0.313 OA
BRANCH  14  15
HETATM   15  C2  UNL     1      -4.932   1.699  11.699  1.00  0.00     0.255 C
HETATM   16  C1  UNL     1      -5.055   0.335  11.125  1.00  0.00     0.126 C
HETATM   17  O1  UNL     1      -5.448   2.678  11.099  1.00  0.00    -0.266 OA
ENDBRANCH  14  15
ENDBRANCH   1  14
BRANCH   4  18
HETATM   18  O5  UNL     1      -1.540   3.936  15.279  1.00  0.00    -0.395 OA
ATOM     19  H5  UNL     1      -1.997   3.565  16.025  1.00  0.00     0.210 HD
ENDBRANCH   4  18
TORSDOF 6
ENDMDL