MODEL 2
REMARK VINA RESULT: -6.751944936      1.265      1.735
REMARK  6 active torsions:
REMARK  status: ('A' for Active; 'I' for Inactive)
REMARK    1  A    between atoms: O1_2  and  C2_3
REMARK    2  A    between atoms: C2_3  and  C3_4
REMARK    3  A    between atoms: C4_5  and  C5_6
REMARK    4  A    between atoms: C5_6  and  O2_7
REMARK    5  A    between atoms: O2_7  and  C6_8
REMARK    6  A    between atoms: C6_8  and  C7_10
ROOT
HETATM    1  C7  UNL     1      -3.952   3.516  11.746  1.00  0.00     0.195 C
HETATM    2  C8  UNL     1      -3.169   3.682  12.992  1.00  0.00     0.038 C
HETATM    3  C9  UNL     1      -2.632   5.084  13.237  1.00  0.00    -0.001 C
HETATM    4  C10 UNL     1      -3.082   6.066  12.167  1.00  0.00     0.029 C
HETATM    5  C11 UNL     1      -4.378   6.181  12.942  1.00  0.00     0.103 C
HETATM    6  N1  UNL     1      -5.332   5.219  12.516  1.00  0.00    -0.142 NA
HETATM    7  N2  UNL     1      -4.928   4.460  11.391  1.00  0.00    -0.133 NA
HETATM    8  C12 UNL     1      -3.585   5.818  14.188  1.00  0.00    -0.025 C
HETATM    9  C13 UNL     1      -2.908   7.049  14.760  1.00  0.00     0.017 C
HETATM   10  C14 UNL     1      -4.267   4.979  15.205  1.00  0.00     0.017 C
ENDROOT
BRANCH   1  11
HETATM   11  C6  UNL     1      -4.594   2.142  11.892  1.00  0.00     0.280 C
HETATM   12  O3  UNL     1      -5.729   1.856  11.488  1.00  0.00    -0.263 OA
BRANCH  11  13
HETATM   13  O2  UNL     1      -3.844   1.162  12.516  1.00  0.00    -0.308 OA
BRANCH  13  14
HETATM   14  C5  UNL     1      -4.251   0.195  13.364  1.00  0.00     0.272 C
BRANCH  14  15
HETATM   15  C4  UNL     1      -4.604   0.451  14.700  1.00  0.00    -0.078 C
HETATM   16  C3  UNL     1      -4.965   0.548  15.843  1.00  0.00    -0.078 C
BRANCH  16  17
HETATM   17  C2  UNL     1      -5.483   0.571  17.251  1.00  0.00     0.260 C
BRANCH  17  18
HETATM   18  O1  UNL     1      -6.752   0.083  17.191  1.00  0.00    -0.384 OA
HETATM   19  C1  UNL     1      -7.742   1.054  17.004  1.00  0.00     0.202 C
ENDBRANCH  17  18
ENDBRANCH  16  17
ENDBRANCH  14  15
ENDBRANCH  13  14
ENDBRANCH  11  13
ENDBRANCH   1  11
TORSDOF 6
ENDMDL