MODEL 5
REMARK VINA RESULT: -5.456803351      2.881      5.792
REMARK  4 active torsions:
REMARK  status: ('A' for Active; 'I' for Inactive)
REMARK    1  A    between atoms: C2_2  and  N1_4
REMARK    2  A    between atoms: C7_8  and  C8_9
REMARK    3  A    between atoms: C8_9  and  N3_14
REMARK    4  A    between atoms: N2_10  and  O1_12
ROOT
HETATM    1  C8  UNL     1      -4.471   2.676  14.831  1.00  0.00     0.109 C
HETATM    2  N2  UNL     1      -3.235   2.943  15.086  1.00  0.00    -0.256 N
ATOM      3  H2  UNL     1      -2.669   3.452  14.408  1.00  0.00     0.195 HD
ENDROOT
BRANCH   1   4
HETATM    4  C7  UNL     1      -5.018   3.138  13.530  1.00  0.00     0.083 C
HETATM    5  C6  UNL     1      -4.794   2.162  12.422  1.00  0.00     0.016 C
HETATM    6  C5  UNL     1      -4.535   2.753  11.081  1.00  0.00     0.031 C
HETATM    7  C4  UNL     1      -3.716   4.026  11.178  1.00  0.00     0.273 C
HETATM    8  N1  UNL     1      -4.570   4.967  11.922  1.00  0.00     0.093 N
HETATM    9  C12 UNL     1      -4.542   4.520  13.292  1.00  0.00     0.285 C
BRANCH   8  10
HETATM   10  C2  UNL     1      -3.965   6.298  11.903  1.00  0.00     0.215 C
HETATM   11  C1  UNL     1      -4.915   7.350  11.433  1.00  0.00     0.042 C
HETATM   12  C3  UNL     1      -3.593   6.606  13.348  1.00  0.00     0.042 C
ENDBRANCH   8  10
ENDBRANCH   1   4
BRANCH   1  13
HETATM   13  N3  UNL     1      -5.264   1.958  15.780  1.00  0.00    -0.339 N
HETATM   14  C9  UNL     1      -6.304   2.577  16.501  1.00  0.00     0.076 C
HETATM   15  C10 UNL     1      -6.427   2.000  17.873  1.00  0.00     0.120 C
HETATM   16  S1  UNL     1      -6.153   0.224  17.480  1.00  0.00    -0.144 SA
HETATM   17  C11 UNL     1      -5.050   0.572  16.051  1.00  0.00     0.203 C
ENDBRANCH   1  13
BRANCH   2  18
HETATM   18  O1  UNL     1      -2.687   2.536  16.271  1.00  0.00    -0.288 OA
ATOM     19  H1  UNL     1      -2.555   1.609  16.433  1.00  0.00     0.244 HD
ENDBRANCH   2  18
TORSDOF 4
ENDMDL