MODEL 5
REMARK VINA RESULT: -6.302492119      0.697      1.289
REMARK  3 active torsions:
REMARK  status: ('A' for Active; 'I' for Inactive)
REMARK    1  A    between atoms: C2_2  and  C5_6
REMARK    2  A    between atoms: C7_8  and  C8_9
REMARK    3  A    between atoms: C7_8  and  N3_17
ROOT
HETATM    1  C1  UNL     1      -7.557   2.088  16.367  1.00  0.00     0.031 C
HETATM    2  C2  UNL     1      -6.157   1.708  16.880  1.00  0.00     0.048 C
HETATM    3  C3  UNL     1      -6.265   1.937  18.409  1.00  0.00     0.031 C
HETATM    4  C4  UNL     1      -5.835   0.341  16.623  1.00  0.00     0.069 C
HETATM    5  N1  UNL     1      -5.593  -0.771  16.436  1.00  0.00    -0.196 NA
ENDROOT
BRANCH   2   6
HETATM    6  C5  UNL     1      -5.207   2.706  16.388  1.00  0.00     0.040 A
HETATM    7  C6  UNL     1      -3.748   2.162  16.339  1.00  0.00     0.043 A
HETATM    8  C7  UNL     1      -4.429   2.817  15.184  1.00  0.00     0.064 A
BRANCH   8   9
HETATM    9  C8  UNL     1      -3.965   4.242  14.800  1.00  0.00     0.019 C
HETATM   10  C9  UNL     1      -2.717   4.189  13.944  1.00  0.00     0.034 C
HETATM   11  C10 UNL     1      -2.126   5.584  13.934  1.00  0.00     0.232 C
HETATM   12  N2  UNL     1      -3.155   6.566  14.048  1.00  0.00    -0.075 N
HETATM   13  C11 UNL     1      -4.399   6.196  13.413  1.00  0.00     0.232 C
ATOM     14  H22 UNL     1      -3.310   6.809  15.026  1.00  0.00     0.277 HD
ATOM     15  H21 UNL     1      -2.829   7.466  13.696  1.00  0.00     0.277 HD
HETATM   16  C12 UNL     1      -5.042   5.007  14.080  1.00  0.00     0.034 C
ENDBRANCH   8   9
BRANCH   8  17
HETATM   17  N3  UNL     1      -4.534   1.995  14.006  1.00  0.00    -0.276 N
HETATM   18  C13 UNL     1      -5.180   2.343  12.892  1.00  0.00     0.202 A
HETATM   19  N4  UNL     1      -5.075   1.324  12.014  1.00  0.00    -0.346 N
HETATM   20  C14 UNL     1      -4.361   0.350  12.597  1.00  0.00     0.198 A
ATOM     21  H4  UNL     1      -5.468   1.299  11.073  1.00  0.00     0.167 HD
HETATM   22  N5  UNL     1      -4.044   0.795  13.821  1.00  0.00    -0.292 N
ATOM     23  H5  UNL     1      -3.501   0.273  14.509  1.00  0.00     0.188 HD
ENDBRANCH   8  17
ENDBRANCH   2   6
TORSDOF 3
ENDMDL