MODEL 3
REMARK VINA RESULT: -6.123526572      1.703      1.986
REMARK  3 active torsions:
REMARK  status: ('A' for Active; 'I' for Inactive)
REMARK    1  A    between atoms: N4_11  and  C5_12
REMARK    2  A    between atoms: C5_12  and  C6_13
REMARK    3  A    between atoms: C6_13  and  N5_14
ROOT
HETATM    1  S1  UNL     1      -0.673   4.745   9.671  1.00  0.00    -0.039 SA
HETATM    2  C1  UNL     1      -1.125   4.665  11.239  1.00  0.00     0.194 A
HETATM    3  N1  UNL     1      -0.381   4.844  12.340  1.00  0.00    -0.275 N
ATOM      4  H1  UNL     1       0.614   5.067  12.352  1.00  0.00     0.189 HD
HETATM    5  N2  UNL     1      -1.137   4.686  13.400  1.00  0.00    -0.285 N
ATOM      6  H2  UNL     1      -0.826   4.766  14.368  1.00  0.00     0.188 HD
HETATM    7  C2  UNL     1      -2.388   4.402  13.003  1.00  0.00     0.129 A
HETATM    8  N3  UNL     1      -2.358   4.394  11.648  1.00  0.00    -0.308 N
HETATM    9  C3  UNL     1      -3.660   4.087  11.043  1.00  0.00     0.163 C
HETATM   10  C4  UNL     1      -4.156   2.893  11.878  1.00  0.00     0.293 C
HETATM   11  N4  UNL     1      -4.652   3.459  13.108  1.00  0.00     0.098 N
HETATM   12  C11 UNL     1      -3.592   4.144  13.793  1.00  0.00     0.350 C
ENDROOT
BRANCH  11  13
HETATM   13  C5  UNL     1      -5.160   2.459  14.017  1.00  0.00     0.303 C
BRANCH  13  14
HETATM   14  C6  UNL     1      -5.961   2.967  15.151  1.00  0.00     0.302 C
BRANCH  14  15
HETATM   15  N5  UNL     1      -5.715   2.389  16.431  1.00  0.00     0.090 N
HETATM   16  C7  UNL     1      -5.228   1.050  16.428  1.00  0.00     0.272 C
HETATM   17  C8  UNL     1      -6.097   0.274  17.430  1.00  0.00     0.032 C
HETATM   18  C9  UNL     1      -7.447   0.967  17.184  1.00  0.00     0.032 C
HETATM   19  C10 UNL     1      -6.963   2.424  17.175  1.00  0.00     0.272 C
ENDBRANCH  14  15
ENDBRANCH  13  14
ENDBRANCH  11  13
TORSDOF 3
ENDMDL