MODEL 3
REMARK VINA RESULT: -6.863322924      0.736      1.685
REMARK  7 active torsions:
REMARK  status: ('A' for Active; 'I' for Inactive)
REMARK    1  A    between atoms: N1_6  and  C6_7
REMARK    2  A    between atoms: C6_7  and  O1_8
REMARK    3  A    between atoms: C6_7  and  O3_12
REMARK    4  A    between atoms: O1_8  and  C7_9
REMARK    5  A    between atoms: C7_9  and  O2_10
REMARK    6  A    between atoms: O3_12  and  C8_13
REMARK    7  A    between atoms: C8_13  and  C9_15
ROOT
HETATM    1  C6  UNL     1      -4.446   2.284  14.335  1.00  0.00     0.517 C
ENDROOT
BRANCH   1   2
HETATM    2  N1  UNL     1      -3.801   3.530  14.043  1.00  0.00     0.149 N
HETATM    3  C5  UNL     1      -4.621   4.454  13.337  1.00  0.00     0.233 C
HETATM    4  C2  UNL     1      -3.787   5.742  13.434  1.00  0.00     0.021 C
HETATM    5  C4  UNL     1      -5.498   5.126  14.405  1.00  0.00     0.043 C
HETATM    6  C1  UNL     1      -2.331   5.553  13.112  1.00  0.00     0.012 C
HETATM    7  C3  UNL     1      -4.127   5.600  14.910  1.00  0.00     0.022 C
HETATM    8  C13 UNL     1      -3.483   4.285  15.243  1.00  0.00     0.284 C
ENDBRANCH   1   2
BRANCH   1   9
HETATM    9  O1  UNL     1      -3.867   1.219  13.638  1.00  0.00    -0.312 OA
BRANCH   9  10
HETATM   10  C7  UNL     1      -4.581   0.826  12.537  1.00  0.00     0.340 C
BRANCH  10  11
HETATM   11  O2  UNL     1      -4.569  -0.568  12.501  1.00  0.00    -0.377 OA
ATOM     12  H2  UNL     1      -5.194  -0.878  13.146  1.00  0.00     0.212 HD
ENDBRANCH  10  11
ENDBRANCH   9  10
ENDBRANCH   1   9
BRANCH   1  13
HETATM   13  O3  UNL     1      -4.513   2.015  15.721  1.00  0.00    -0.262 OA
BRANCH  13  14
HETATM   14  C8  UNL     1      -5.473   1.182  16.276  1.00  0.00     0.270 C
HETATM   15  O4  UNL     1      -5.380  -0.046  16.016  1.00  0.00    -0.264 OA
BRANCH  14  16
HETATM   16  C9  UNL     1      -6.571   1.720  17.146  1.00  0.00     0.037 C
HETATM   17  C10 UNL     1      -7.813   0.851  17.051  1.00  0.00     0.025 C
HETATM   18  C11 UNL     1      -6.889   3.147  16.835  1.00  0.00     0.025 C
HETATM   19  C12 UNL     1      -6.084   1.632  18.576  1.00  0.00     0.025 C
ENDBRANCH  14  16
ENDBRANCH  13  14
ENDBRANCH   1  13
TORSDOF 7
ENDMDL