MODEL 2
REMARK VINA RESULT: -6.270765477      2.205      3.070
REMARK  4 active torsions:
REMARK  status: ('A' for Active; 'I' for Inactive)
REMARK    1  A    between atoms: C2_2  and  O1_3
REMARK    2  A    between atoms: C8_10  and  C9_11
REMARK    3  A    between atoms: C9_11  and  C10_12
REMARK    4  A    between atoms: C10_12  and  N1_13
ROOT
HETATM    1  C1  UNL     1      -1.617   8.691  15.075  1.00  0.00     0.078 C
HETATM    2  C2  UNL     1      -2.149   7.748  14.037  1.00  0.00     0.159 C
HETATM    3  C3  UNL     1      -1.127   6.834  13.457  1.00  0.00     0.071 C
HETATM    4  C4  UNL     1      -1.702   5.435  13.645  1.00  0.00     0.043 C
HETATM    5  C5  UNL     1      -3.097   5.722  14.039  1.00  0.00     0.065 C
HETATM    6  C6  UNL     1      -4.084   5.691  12.895  1.00  0.00     0.038 C
HETATM    7  C7  UNL     1      -5.405   5.792  13.665  1.00  0.00     0.007 C
HETATM    8  C8  UNL     1      -5.141   5.161  14.989  1.00  0.00    -0.010 C
HETATM    9  C13 UNL     1      -3.701   4.693  14.976  1.00  0.00     0.043 C
HETATM   10  O2  UNL     1      -3.149   6.984  14.610  1.00  0.00    -0.345 OA
ENDROOT
BRANCH   8  11
HETATM   11  C9  UNL     1      -6.100   4.068  15.350  1.00  0.00     0.026 C
BRANCH  11  12
HETATM   12  C10 UNL     1      -5.686   2.715  14.883  1.00  0.00     0.150 C
BRANCH  12  13
HETATM   13  N1  UNL     1      -5.999   1.771  15.960  1.00  0.00    -0.287 N
HETATM   14  C11 UNL     1      -5.203   0.787  16.418  1.00  0.00     0.201 A
HETATM   15  N2  UNL     1      -5.823   0.123  17.414  1.00  0.00    -0.346 N
HETATM   16  C12 UNL     1      -7.013   0.696  17.578  1.00  0.00     0.198 A
ATOM     17  H2  UNL     1      -5.451  -0.667  17.941  1.00  0.00     0.167 HD
HETATM   18  N3  UNL     1      -7.104   1.707  16.678  1.00  0.00    -0.293 N
ATOM     19  H3  UNL     1      -7.908   2.325  16.573  1.00  0.00     0.188 HD
ENDBRANCH  12  13
ENDBRANCH  11  12
ENDBRANCH   8  11
BRANCH   2  20
HETATM   20  O1  UNL     1      -2.695   8.504  13.003  1.00  0.00    -0.366 OA
ATOM     21  H1  UNL     1      -3.261   7.939  12.491  1.00  0.00     0.213 HD
ENDBRANCH   2  20
TORSDOF 4
ENDMDL