MODEL 3
REMARK VINA RESULT: -6.755215475      2.738      3.363
REMARK  5 active torsions:
REMARK  status: ('A' for Active; 'I' for Inactive)
REMARK    1  A    between atoms: O1_1  and  C1_3
REMARK    2  A    between atoms: C1_3  and  C2_4
REMARK    3  A    between atoms: N1_8  and  C6_9
REMARK    4  A    between atoms: C9_12  and  C10_13
REMARK    5  A    between atoms: C10_13  and  N2_14
ROOT
HETATM    1  C6  UNL     1      -5.630   3.315  15.149  1.00  0.00     0.223 C
HETATM    2  C7  UNL     1      -6.467   4.512  15.448  1.00  0.00     0.036 C
HETATM    3  C8  UNL     1      -6.097   5.578  14.439  1.00  0.00     0.008 C
HETATM    4  C9  UNL     1      -5.021   5.177  13.490  1.00  0.00     0.006 C
HETATM    5  C13 UNL     1      -3.808   4.561  14.091  1.00  0.00     0.008 C
HETATM    6  C14 UNL     1      -4.181   3.696  15.266  1.00  0.00     0.036 C
ENDROOT
BRANCH   1   7
HETATM    7  N1  UNL     1      -5.992   2.133  15.864  1.00  0.00     0.099 N
HETATM    8  C2  UNL     1      -4.986   1.413  16.531  1.00  0.00     0.246 C
HETATM    9  C3  UNL     1      -5.751   0.598  17.579  1.00  0.00     0.040 C
HETATM   10  C4  UNL     1      -7.189   1.011  17.469  1.00  0.00     0.032 C
HETATM   11  C5  UNL     1      -7.118   2.342  16.752  1.00  0.00     0.273 C
BRANCH   8  12
HETATM   12  C1  UNL     1      -4.219   0.404  15.719  1.00  0.00     0.199 C
BRANCH  12  13
HETATM   13  O1  UNL     1      -4.991  -0.787  15.742  1.00  0.00    -0.399 OA
ATOM     14  H1  UNL     1      -4.386  -1.488  15.953  1.00  0.00     0.209 HD
ENDBRANCH  12  13
ENDBRANCH   8  12
ENDBRANCH   1   7
BRANCH   4  15
HETATM   15  C10 UNL     1      -4.581   6.430  12.753  1.00  0.00     0.154 C
BRANCH  15  16
HETATM   16  N2  UNL     1      -5.361   6.696  11.564  1.00  0.00    -0.287 N
HETATM   17  C11 UNL     1      -5.133   6.233  10.342  1.00  0.00     0.130 A
HETATM   18  C12 UNL     1      -6.122   6.737   9.526  1.00  0.00     0.127 A
HETATM   19  N3  UNL     1      -6.924   7.495  10.285  1.00  0.00    -0.296 N
HETATM   20  N4  UNL     1      -6.460   7.466  11.507  1.00  0.00    -0.241 N
ATOM     21  H3  UNL     1      -7.748   8.004   9.966  1.00  0.00     0.187 HD
ATOM     22  H4  UNL     1      -6.873   7.955  12.301  1.00  0.00     0.208 HD
ENDBRANCH  15  16
ENDBRANCH   4  15
TORSDOF 5
ENDMDL