MODEL 4
REMARK VINA RESULT: -7.256802415      3.344      6.172
REMARK  5 active torsions:
REMARK  status: ('A' for Active; 'I' for Inactive)
REMARK    1  A    between atoms: C4_6  and  C6_9
REMARK    2  A    between atoms: C6_9  and  O1_10
REMARK    3  A    between atoms: C6_9  and  N4_12
REMARK    4  A    between atoms: N4_12  and  N5_14
REMARK    5  A    between atoms: C7_16  and  C8_17
ROOT
HETATM    1  N1  UNL     1      -3.859  -1.610  11.911  1.00  0.00    -0.191 NA
HETATM    2  C1  UNL     1      -4.122  -0.673  12.584  1.00  0.00     0.112 C
HETATM    3  C2  UNL     1      -4.424   0.405  13.429  1.00  0.00     0.149 C
HETATM    4  C3  UNL     1      -4.328   0.145  14.889  1.00  0.00     0.112 C
HETATM    5  N2  UNL     1      -4.235  -0.047  16.005  1.00  0.00    -0.191 NA
HETATM    6  C4  UNL     1      -4.778   1.598  13.074  1.00  0.00     0.128 C
HETATM    7  C5  UNL     1      -5.027   2.513  14.249  1.00  0.00     0.106 C
HETATM    8  N3  UNL     1      -5.222   3.222  15.130  1.00  0.00    -0.191 NA
ENDROOT
BRANCH   6   9
HETATM    9  C6  UNL     1      -4.970   2.193  11.787  1.00  0.00     0.178 C
BRANCH   9  10
HETATM   10  O1  UNL     1      -6.004   1.771  11.114  1.00  0.00    -0.344 OA
ATOM     11  H1  UNL     1      -5.915   1.780  10.168  1.00  0.00     0.219 HD
ENDBRANCH   9  10
BRANCH   9  12
HETATM   12  N4  UNL     1      -4.221   3.157  11.141  1.00  0.00    -0.280 N
ATOM     13  H4  UNL     1      -4.239   3.240  10.125  1.00  0.00     0.189 HD
BRANCH  12  14
HETATM   14  N5  UNL     1      -3.417   4.037  11.936  1.00  0.00    -0.313 N
HETATM   15  C7  UNL     1      -3.793   5.218  12.207  1.00  0.00     0.085 C
ATOM     16  H5  UNL     1      -2.521   3.705  12.294  1.00  0.00     0.185 HD
BRANCH  15  17
HETATM   17  C8  UNL     1      -2.931   6.096  13.032  1.00  0.00     0.029 C
HETATM   18  C9  UNL     1      -3.017   7.545  12.571  1.00  0.00     0.036 C
HETATM   19  C10 UNL     1      -2.030   8.304  13.387  1.00  0.00    -0.030 C
HETATM   20  C11 UNL     1      -2.098   8.159  14.706  1.00  0.00    -0.031 C
HETATM   21  C12 UNL     1      -3.152   7.252  15.255  1.00  0.00     0.027 C
HETATM   22  C13 UNL     1      -3.216   5.955  14.494  1.00  0.00     0.014 C
ENDBRANCH  15  17
ENDBRANCH  12  14
ENDBRANCH   9  12
ENDBRANCH   6   9
TORSDOF 5
ENDMDL