MODEL 2
REMARK VINA RESULT: -8.737334073      3.911      6.476
REMARK  5 active torsions:
REMARK  status: ('A' for Active; 'I' for Inactive)
REMARK    1  A    between atoms: C2_2  and  C3_3
REMARK    2  A    between atoms: C6_6  and  N1_7
REMARK       I    between atoms: N1_7  and  C7_9
REMARK    3  A    between atoms: C7_9  and  C8_11
REMARK    4  A    between atoms: C8_11  and  N2_12
REMARK    5  A    between atoms: C10_17  and  C11_18
ROOT
HETATM    1  N2  UNL     1      -2.962   4.217  10.774  1.00  0.00    -0.265 N
HETATM    2  N3  UNL     1      -3.048   4.170   9.443  1.00  0.00    -0.019 NA
HETATM    3  N4  UNL     1      -3.945   5.047   9.020  1.00  0.00    -0.281 N
ATOM      4  H4  UNL     1      -4.201   5.212   8.046  1.00  0.00     0.184 HD
HETATM    5  C9  UNL     1      -4.463   5.686  10.085  1.00  0.00     0.087 A
HETATM    6  C10 UNL     1      -5.421   6.684  10.230  1.00  0.00     0.027 A
HETATM    7  C16 UNL     1      -5.767   7.166  11.496  1.00  0.00    -0.047 A
HETATM    8  C17 UNL     1      -6.785   8.219  11.582  1.00  0.00     0.049 C
HETATM    9  C18 UNL     1      -5.127   6.622  12.591  1.00  0.00     0.010 A
HETATM   10  C19 UNL     1      -4.166   5.620  12.449  1.00  0.00     0.034 A
HETATM   11  C20 UNL     1      -3.837   5.156  11.193  1.00  0.00     0.078 A
ENDROOT
BRANCH   1  12
HETATM   12  C8  UNL     1      -2.076   3.389  11.563  1.00  0.00     0.250 C
BRANCH  12  13
HETATM   13  C7  UNL     1      -2.684   2.049  11.726  1.00  0.00     0.242 C
HETATM   14  N1  UNL     1      -4.069   1.893  12.074  1.00  0.00    -0.312 N
ATOM     15  H1  UNL     1      -4.771   1.860  11.335  1.00  0.00     0.170 HD
HETATM   16  O1  UNL     1      -1.971   1.027  11.555  1.00  0.00    -0.271 OA
BRANCH  14  17
HETATM   17  C6  UNL     1      -4.437   1.797  13.290  1.00  0.00     0.107 A
HETATM   18  C5  UNL     1      -5.200   2.808  13.836  1.00  0.00     0.049 A
HETATM   19  C4  UNL     1      -5.576   2.665  15.152  1.00  0.00     0.012 A
HETATM   20  C3  UNL     1      -5.223   1.580  15.907  1.00  0.00    -0.043 A
HETATM   21  C21 UNL     1      -4.451   0.588  15.307  1.00  0.00     0.096 A
HETATM   22  N6  UNL     1      -4.076   0.718  14.012  1.00  0.00    -0.352 N
ATOM     23  H6  UNL     1      -3.511  -0.012  13.577  1.00  0.00     0.166 HD
BRANCH  20  24
HETATM   24  C2  UNL     1      -5.649   1.469  17.318  1.00  0.00     0.035 C
HETATM   25  C1  UNL     1      -7.124   1.094  17.309  1.00  0.00     0.010 C
ENDBRANCH  20  24
ENDBRANCH  14  17
ENDBRANCH  12  13
ENDBRANCH   1  12
BRANCH   6  26
HETATM   26  C11 UNL     1      -6.085   7.246   9.057  1.00  0.00     0.045 A
HETATM   27  C12 UNL     1      -7.300   6.719   8.662  1.00  0.00     0.030 A
HETATM   28  C13 UNL     1      -7.975   7.210   7.558  1.00  0.00     0.004 A
HETATM   29  C14 UNL     1      -7.433   8.250   6.831  1.00  0.00     0.017 A
HETATM   30  C15 UNL     1      -6.220   8.749   7.258  1.00  0.00     0.088 A
HETATM   31  N5  UNL     1      -5.578   8.257   8.335  1.00  0.00    -0.365 N
ATOM     32  H5  UNL     1      -4.682   8.662   8.608  1.00  0.00     0.165 HD
ENDBRANCH   6  26
TORSDOF 5
ENDMDL