MODEL 5
REMARK VINA RESULT: -6.252173234      1.147      1.361
REMARK  4 active torsions:
REMARK  status: ('A' for Active; 'I' for Inactive)
REMARK    1  A    between atoms: C12_15  and  C13_16
REMARK       I    between atoms: C13_16  and  N3_18
REMARK    2  A    between atoms: N3_18  and  C14_20
REMARK    3  A    between atoms: C14_20  and  C15_21
REMARK    4  A    between atoms: C15_21  and  N4_22
ROOT
HETATM    1  C1  UNL     1      -1.777   7.851  13.169  1.00  0.00     0.052 C
HETATM    2  C2  UNL     1      -0.566   7.157  12.643  1.00  0.00    -0.022 A
HETATM    3  C3  UNL     1      -0.675   5.885  12.120  1.00  0.00     0.023 A
HETATM    4  C4  UNL     1       0.457   5.253  11.636  1.00  0.00    -0.019 A
HETATM    5  C5  UNL     1       1.655   5.941  11.702  1.00  0.00     0.099 A
HETATM    6  N1  UNL     1       1.727   7.195  12.225  1.00  0.00    -0.364 N
HETATM    7  C6  UNL     1       3.002   7.915  12.291  1.00  0.00     0.155 C
HETATM    8  C7  UNL     1       0.643   7.830  12.701  1.00  0.00     0.014 A
HETATM    9  C8  UNL     1       0.713   9.212  13.279  1.00  0.00     0.069 C
HETATM   10  C9  UNL     1       0.630   3.924  11.035  1.00  0.00     0.036 C
HETATM   11  C10 UNL     1       1.833   3.956  10.082  1.00  0.00     0.017 C
HETATM   12  C11 UNL     1      -0.531   3.438  10.226  1.00  0.00     0.147 C
HETATM   13  N2  UNL     1      -1.631   2.930  11.012  1.00  0.00    -0.309 N
HETATM   14  S1  UNL     1      -2.436   1.491  11.320  1.00  0.00    -0.003 SA
HETATM   15  C12 UNL     1      -3.310   2.558  12.309  1.00  0.00     0.123 A
HETATM   16  C18 UNL     1      -2.461   3.562  11.855  1.00  0.00     0.107 A
HETATM   17  S2  UNL     1      -2.349   5.336  12.203  1.00  0.00    -0.069 SA
ENDROOT
BRANCH  15  18
HETATM   18  C13 UNL     1      -4.441   2.428  13.210  1.00  0.00     0.262 C
HETATM   19  O1  UNL     1      -5.593   2.356  12.739  1.00  0.00    -0.267 OA
HETATM   20  N3  UNL     1      -4.293   2.380  14.624  1.00  0.00    -0.355 N
ATOM     21  H3  UNL     1      -3.356   2.437  15.023  1.00  0.00     0.162 HD
BRANCH  20  22
HETATM   22  C14 UNL     1      -5.420   2.253  15.513  1.00  0.00     0.153 C
BRANCH  22  23
HETATM   23  C15 UNL     1      -5.062   1.383  16.673  1.00  0.00     0.291 C
BRANCH  23  24
HETATM   24  N4  UNL     1      -6.107   1.154  17.615  1.00  0.00     0.081 N
HETATM   25  C16 UNL     1      -6.091   1.993  18.772  1.00  0.00     0.309 C
HETATM   26  C17 UNL     1      -7.418   1.004  17.057  1.00  0.00     0.309 C
ENDBRANCH  23  24
ENDBRANCH  22  23
ENDBRANCH  20  22
ENDBRANCH  15  18
TORSDOF 4
ENDMDL