MODEL 5
REMARK VINA RESULT: -7.398496779      2.455      7.407
REMARK  6 active torsions:
REMARK  status: ('A' for Active; 'I' for Inactive)
REMARK    1  A    between atoms: C7_9  and  O3_10
REMARK    2  A    between atoms: O3_10  and  C8_11
REMARK    3  A    between atoms: C11_15  and  C12_16
REMARK    4  A    between atoms: C13_17  and  C14_18
REMARK    5  A    between atoms: C15_19  and  C16_20
REMARK    6  A    between atoms: C16_20  and  O5_21
ROOT
HETATM    1  C1  UNL     1      -3.920   2.117  16.172  1.00  0.00     0.025 C
HETATM    2  C2  UNL     1      -4.190   1.591  14.991  1.00  0.00     0.015 C
HETATM    3  C3  UNL     1      -4.454   0.174  14.722  1.00  0.00     0.289 C
HETATM    4  O1  UNL     1      -4.840  -0.691  15.578  1.00  0.00    -0.260 OA
HETATM    5  O2  UNL     1      -4.201  -0.014  13.378  1.00  0.00    -0.311 OA
HETATM    6  C4  UNL     1      -4.589   1.169  12.722  1.00  0.00     0.149 C
HETATM    7  C5  UNL     1      -4.286   2.297  13.722  1.00  0.00     0.061 C
HETATM    8  C6  UNL     1      -3.045   2.863  13.154  1.00  0.00     0.036 C
HETATM    9  C7  UNL     1      -2.648   4.238  13.574  1.00  0.00     0.160 C
HETATM   10  C10 UNL     1      -1.418   4.547  12.756  1.00  0.00     0.013 C
HETATM   11  C11 UNL     1      -1.285   4.173  11.505  1.00  0.00    -0.055 C
HETATM   12  C17 UNL     1      -2.347   3.409  10.781  1.00  0.00     0.019 C
HETATM   13  C18 UNL     1      -3.032   4.399   9.827  1.00  0.00     0.015 C
HETATM   14  C19 UNL     1      -3.427   2.884  11.664  1.00  0.00     0.012 C
HETATM   15  C20 UNL     1      -3.741   1.441  11.497  1.00  0.00    -0.015 C
HETATM   16  C21 UNL     1      -4.497   1.132  10.227  1.00  0.00     0.018 C
HETATM   17  C22 UNL     1      -2.478   0.592  11.520  1.00  0.00     0.018 C
ENDROOT
BRANCH  11  18
HETATM   18  C12 UNL     1      -0.072   4.506  10.785  1.00  0.00     0.007 C
HETATM   19  C13 UNL     1       0.644   3.644  10.066  1.00  0.00     0.000 C
BRANCH  19  20
HETATM   20  C14 UNL     1       1.846   4.064   9.377  1.00  0.00    -0.002 C
HETATM   21  C15 UNL     1       1.929   4.092   8.073  1.00  0.00    -0.001 C
BRANCH  21  22
HETATM   22  C16 UNL     1       0.853   3.714   7.137  1.00  0.00     0.191 C
BRANCH  22  23
HETATM   23  O5  UNL     1       1.348   2.965   6.059  1.00  0.00    -0.397 OA
ATOM     24  H5  UNL     1       0.652   2.500   5.609  1.00  0.00     0.209 HD
ENDBRANCH  22  23
ENDBRANCH  21  22
ENDBRANCH  19  20
ENDBRANCH  11  18
BRANCH   9  25
HETATM   25  O3  UNL     1      -3.576   5.227  13.253  1.00  0.00    -0.312 OA
BRANCH  25  26
HETATM   26  C8  UNL     1      -4.222   5.892  14.283  1.00  0.00     0.255 C
HETATM   27  C9  UNL     1      -5.624   5.572  14.674  1.00  0.00     0.126 C
HETATM   28  O4  UNL     1      -3.665   6.805  14.949  1.00  0.00    -0.266 OA
ENDBRANCH  25  26
ENDBRANCH   9  25
TORSDOF 6
ENDMDL