MODEL 5
REMARK VINA RESULT: -6.685566539      2.532      7.958
REMARK  6 active torsions:
REMARK  status: ('A' for Active; 'I' for Inactive)
REMARK    1  A    between atoms: N1_2  and  C2_4
REMARK    2  A    between atoms: C2_4  and  O2_28
REMARK    3  A    between atoms: N2_5  and  C3_7
REMARK    4  A    between atoms: C3_7  and  C5_9
REMARK    5  A    between atoms: C9_15  and  C10_16
REMARK    6  A    between atoms: C11_17  and  C12_18
ROOT
HETATM    1  C5  UNL     1      -2.595   6.165   9.962  1.00  0.00     0.120 C
HETATM    2  C6  UNL     1      -1.066   6.196   9.964  1.00  0.00     0.106 C
HETATM    3  S1  UNL     1      -0.807   6.503  11.763  1.00  0.00    -0.107 SA
HETATM    4  C7  UNL     1      -2.532   6.147  12.295  1.00  0.00     0.190 C
HETATM    5  C8  UNL     1      -3.310   7.404  12.489  1.00  0.00     0.085 C
HETATM    6  O1  UNL     1      -2.573   5.260  13.353  1.00  0.00    -0.308 OA
HETATM    7  C9  UNL     1      -3.329   4.165  12.982  1.00  0.00     0.095 C
HETATM    8  C17 UNL     1      -3.565   4.226  11.685  1.00  0.00     0.040 C
HETATM    9  C18 UNL     1      -4.350   3.212  10.930  1.00  0.00     0.071 C
HETATM   10  N4  UNL     1      -2.971   5.387  11.119  1.00  0.00    -0.334 N
ENDROOT
BRANCH   1  11
HETATM   11  C3  UNL     1      -3.060   5.598   8.673  1.00  0.00     0.104 C
HETATM   12  C4  UNL     1      -1.898   4.897   8.006  1.00  0.00     0.034 C
BRANCH  11  13
HETATM   13  N2  UNL     1      -3.521   6.637   7.762  1.00  0.00    -0.350 N
HETATM   14  C2  UNL     1      -4.792   6.843   7.689  1.00  0.00     0.214 C
ATOM     15  H2  UNL     1      -2.863   7.181   7.204  1.00  0.00     0.163 HD
BRANCH  14  16
HETATM   16  N1  UNL     1      -5.752   6.114   8.442  1.00  0.00    -0.361 N
HETATM   17  C1  UNL     1      -7.149   6.476   8.490  1.00  0.00     0.150 C
ATOM     18  H1  UNL     1      -5.440   5.301   8.972  1.00  0.00     0.162 HD
ENDBRANCH  14  16
BRANCH  14  19
HETATM   19  O2  UNL     1      -5.256   7.827   6.829  1.00  0.00    -0.327 OA
HETATM   20  C19 UNL     1      -4.792   9.165   7.052  1.00  0.00     0.213 C
ENDBRANCH  14  19
ENDBRANCH  11  13
ENDBRANCH   1  11
BRANCH   7  21
HETATM   21  C10 UNL     1      -3.792   3.100  13.906  1.00  0.00     0.040 C
HETATM   22  C11 UNL     1      -4.814   3.363  14.688  1.00  0.00     0.015 C
BRANCH  22  23
HETATM   23  C12 UNL     1      -5.326   2.372  15.618  1.00  0.00    -0.021 A
HETATM   24  C13 UNL     1      -6.502   2.556  16.340  1.00  0.00     0.014 A
HETATM   25  C14 UNL     1      -6.912   1.562  17.198  1.00  0.00     0.018 A
HETATM   26  C15 UNL     1      -6.153   0.419  17.322  1.00  0.00     0.087 A
HETATM   27  N3  UNL     1      -5.014   0.266  16.609  1.00  0.00    -0.374 N
HETATM   28  C16 UNL     1      -4.586   1.196  15.774  1.00  0.00     0.099 A
ATOM     29  H3  UNL     1      -4.471  -0.591  16.719  1.00  0.00     0.164 HD
ENDBRANCH  22  23
ENDBRANCH   7  21
TORSDOF 6
ENDMDL