MODEL 4
REMARK VINA RESULT: -7.025914195      1.788      1.788
REMARK  5 active torsions:
REMARK  status: ('A' for Active; 'I' for Inactive)
REMARK    1  A    between atoms: O1_2  and  C2_3
REMARK    2  A    between atoms: C5_6  and  N1_7
REMARK    3  A    between atoms: N1_7  and  N2_9
REMARK    4  A    between atoms: C6_11  and  C7_12
REMARK    5  A    between atoms: C20_29  and  O2_30
ROOT
HETATM    1  C2  UNL     1      -3.585   3.946  10.457  1.00  0.00     0.102 A
HETATM    2  C3  UNL     1      -3.364   4.333  11.762  1.00  0.00     0.057 A
HETATM    3  C4  UNL     1      -2.732   5.515  12.103  1.00  0.00     0.041 A
HETATM    4  C5  UNL     1      -2.525   5.865  13.450  1.00  0.00     0.156 A
HETATM    5  N3  UNL     1      -1.903   7.026  13.680  1.00  0.00    -0.221 N
HETATM    6  N4  UNL     1      -1.572   7.616  14.840  1.00  0.00    -0.295 N
ATOM      7  H4  UNL     1      -1.763   7.228  15.764  1.00  0.00     0.187 HD
HETATM    8  C13 UNL     1      -0.953   8.788  14.616  1.00  0.00     0.026 A
HETATM    9  C14 UNL     1      -0.422   9.766  15.595  1.00  0.00     0.070 C
HETATM   10  C15 UNL     1      -0.909   8.914  13.249  1.00  0.00     0.076 A
HETATM   11  C16 UNL     1      -1.501   7.816  12.648  1.00  0.00     0.133 A
HETATM   12  N5  UNL     1      -1.695   7.488  11.349  1.00  0.00    -0.335 N
HETATM   13  C17 UNL     1      -1.231   8.385  10.310  1.00  0.00     0.158 C
HETATM   14  C18 UNL     1      -2.309   6.339  11.084  1.00  0.00     0.052 A
HETATM   15  C19 UNL     1      -2.523   5.971   9.752  1.00  0.00     0.070 A
HETATM   16  C20 UNL     1      -3.156   4.782   9.450  1.00  0.00     0.103 A
ENDROOT
BRANCH   4  17
HETATM   17  N1  UNL     1      -2.920   5.093  14.299  1.00  0.00    -0.284 N
ATOM     18  H1  UNL     1      -2.213   5.222  15.023  1.00  0.00     0.188 HD
BRANCH  17  19
HETATM   19  N2  UNL     1      -3.676   4.217  14.849  1.00  0.00    -0.309 N
HETATM   20  C6  UNL     1      -3.846   2.970  14.905  1.00  0.00     0.118 C
ATOM     21  H2  UNL     1      -4.368   4.683  15.436  1.00  0.00     0.186 HD
BRANCH  20  22
HETATM   22  C7  UNL     1      -4.910   2.356  15.723  1.00  0.00    -0.019 A
HETATM   23  C8  UNL     1      -6.123   3.000  15.905  1.00  0.00     0.013 A
HETATM   24  C9  UNL     1      -7.103   2.426  16.665  1.00  0.00     0.001 A
HETATM   25  C10 UNL     1      -6.948   1.194  17.287  1.00  0.00     0.000 A
HETATM   26  C11 UNL     1      -5.731   0.571  17.092  1.00  0.00     0.001 A
HETATM   27  C12 UNL     1      -4.738   1.131  16.332  1.00  0.00     0.013 A
ENDBRANCH  20  22
ENDBRANCH  17  19
ENDBRANCH   4  17
BRANCH   1  28
HETATM   28  O1  UNL     1      -4.231   2.736  10.162  1.00  0.00    -0.353 OA
HETATM   29  C1  UNL     1      -4.675   1.933  11.256  1.00  0.00     0.210 C
ENDBRANCH   1  28
BRANCH  16  30
HETATM   30  O2  UNL     1      -3.342   4.461   8.120  1.00  0.00    -0.353 OA
HETATM   31  C21 UNL     1      -3.301   5.351   7.053  1.00  0.00     0.210 C
ENDBRANCH  16  30
TORSDOF 5
ENDMDL