MODEL 4
REMARK VINA RESULT: -7.149435685      2.195      3.673
REMARK  4 active torsions:
REMARK  status: ('A' for Active; 'I' for Inactive)
REMARK    1  A    between atoms: C3_3  and  N1_4
REMARK    2  A    between atoms: C9_12  and  N3_13
REMARK    3  A    between atoms: N4_16  and  C12_17
REMARK    4  A    between atoms: C12_17  and  C13_18
ROOT
HETATM    1  C1  UNL     1      -8.820  10.602   7.500  1.00  0.00     0.051 C
HETATM    2  C2  UNL     1      -7.837  10.105   8.523  1.00  0.00    -0.027 A
HETATM    3  C3  UNL     1      -6.968  11.040   9.043  1.00  0.00     0.044 A
HETATM    4  C6  UNL     1      -6.063  10.592   9.979  1.00  0.00    -0.005 A
HETATM    5  C7  UNL     1      -5.101  11.560  10.559  1.00  0.00     0.053 C
HETATM    6  C8  UNL     1      -6.037   9.256  10.370  1.00  0.00     0.085 A
HETATM    7  N2  UNL     1      -5.221   8.623  11.253  1.00  0.00    -0.189 N
ATOM      8  H2  UNL     1      -4.474   9.048  11.803  1.00  0.00     0.184 HD
HETATM    9  C9  UNL     1      -5.589   7.317  11.265  1.00  0.00     0.681 A
HETATM   10  N5  UNL     1      -6.608   7.175  10.406  1.00  0.00    -0.189 N
ATOM     11  H5  UNL     1      -7.083   6.293  10.215  1.00  0.00     0.184 HD
HETATM   12  C20 UNL     1      -6.922   8.353   9.826  1.00  0.00     0.083 A
HETATM   13  C21 UNL     1      -7.826   8.781   8.899  1.00  0.00    -0.024 A
HETATM   14  C22 UNL     1      -8.797   7.826   8.308  1.00  0.00     0.051 C
ENDROOT
BRANCH   9  15
HETATM   15  N3  UNL     1      -4.903   6.381  12.082  1.00  0.00    -0.214 N
HETATM   16  C10 UNL     1      -5.577   5.797  13.199  1.00  0.00     0.161 C
HETATM   17  C11 UNL     1      -5.002   4.419  13.541  1.00  0.00     0.142 C
HETATM   18  N4  UNL     1      -4.130   3.952  12.554  1.00  0.00    -0.389 N
HETATM   19  C18 UNL     1      -3.025   4.792  12.234  1.00  0.00     0.142 C
HETATM   20  C19 UNL     1      -3.526   6.110  11.695  1.00  0.00     0.161 C
BRANCH  18  21
HETATM   21  C12 UNL     1      -4.456   2.969  11.632  1.00  0.00     0.069 C
BRANCH  21  22
HETATM   22  C13 UNL     1      -3.988   1.581  11.870  1.00  0.00     0.011 C
HETATM   23  C14 UNL     1      -4.076   1.063  13.267  1.00  0.00     0.023 C
HETATM   24  C15 UNL     1      -4.776   0.595  10.971  1.00  0.00     0.043 C
HETATM   25  C16 UNL     1      -3.739  -0.464  10.740  1.00  0.00     0.168 C
HETATM   26  O1  UNL     1      -2.576   0.235  10.558  1.00  0.00    -0.390 OA
HETATM   27  C17 UNL     1      -2.577   1.348  11.359  1.00  0.00     0.182 C
ENDBRANCH  21  22
ENDBRANCH  18  21
ENDBRANCH   9  15
BRANCH   3  28
HETATM   28  N1  UNL     1      -6.930  12.398   8.658  1.00  0.00    -0.389 N
HETATM   29  C4  UNL     1      -7.740  13.351   9.398  1.00  0.00     0.149 C
HETATM   30  C5  UNL     1      -6.131  12.912   7.571  1.00  0.00     0.149 C
ENDBRANCH   3  28
TORSDOF 4
ENDMDL