MODEL 3
REMARK VINA RESULT: -7.309571163      2.719      5.250
REMARK  5 active torsions:
REMARK  status: ('A' for Active; 'I' for Inactive)
REMARK    1  A    between atoms: O1_2  and  C2_3
REMARK    2  A    between atoms: C6_9  and  C7_10
REMARK    3  A    between atoms: C7_10  and  C12_18
REMARK       I    between atoms: N2_11  and  C8_13
REMARK    4  A    between atoms: C8_13  and  C9_15
REMARK       I    between atoms: C12_18  and  N3_20
REMARK    5  A    between atoms: N3_20  and  C13_22
ROOT
HETATM    1  C7  UNL     1      -3.856   2.219  12.333  1.00  0.00     0.130 C
HETATM    2  N2  UNL     1      -3.251   1.128  12.156  1.00  0.00    -0.320 N
ATOM      3  H2  UNL     1      -3.309   0.553  12.996  1.00  0.00     0.169 HD
HETATM    4  C8  UNL     1      -2.546   0.482  11.191  1.00  0.00     0.225 C
HETATM    5  O2  UNL     1      -1.398   0.907  10.825  1.00  0.00    -0.273 OA
ENDROOT
BRANCH   1   6
HETATM    6  C6  UNL     1      -4.471   2.386  13.653  1.00  0.00     0.067 A
HETATM    7  N1  UNL     1      -5.163   3.544  13.878  1.00  0.00    -0.358 N
HETATM    8  C4  UNL     1      -5.778   3.844  15.027  1.00  0.00     0.008 A
ATOM      9  H1  UNL     1      -5.213   4.224  13.120  1.00  0.00     0.166 HD
HETATM   10  C3  UNL     1      -5.707   2.920  16.053  1.00  0.00     0.061 A
HETATM   11  C5  UNL     1      -6.517   5.120  15.213  1.00  0.00     0.068 C
HETATM   12  C2  UNL     1      -5.027   1.735  15.896  1.00  0.00     0.072 A
HETATM   13  C18 UNL     1      -4.399   1.476  14.660  1.00  0.00     0.068 A
BRANCH  12  14
HETATM   14  O1  UNL     1      -4.928   0.781  16.886  1.00  0.00    -0.356 OA
HETATM   15  C1  UNL     1      -6.059   0.338  17.601  1.00  0.00     0.210 C
ENDBRANCH  12  14
ENDBRANCH   1   6
BRANCH   1  16
HETATM   16  C12 UNL     1      -3.930   3.227  11.309  1.00  0.00     0.276 C
HETATM   17  O3  UNL     1      -4.665   3.242  10.304  1.00  0.00    -0.266 OA
HETATM   18  N3  UNL     1      -3.068   4.387  11.404  1.00  0.00    -0.302 N
ATOM     19  H3  UNL     1      -2.103   4.322  11.730  1.00  0.00     0.171 HD
BRANCH  18  20
HETATM   20  C13 UNL     1      -3.610   5.528  11.042  1.00  0.00     0.152 A
HETATM   21  N4  UNL     1      -4.773   6.045  11.434  1.00  0.00    -0.339 N
HETATM   22  C14 UNL     1      -5.138   7.200  10.958  1.00  0.00     0.020 A
ATOM     23  H4  UNL     1      -5.367   5.545  12.095  1.00  0.00     0.168 HD
HETATM   24  C15 UNL     1      -6.448   7.869  11.346  1.00  0.00     0.069 C
HETATM   25  C16 UNL     1      -4.292   7.820  10.073  1.00  0.00     0.004 A
HETATM   26  C17 UNL     1      -4.484   9.148   9.386  1.00  0.00     0.058 C
HETATM   27  S1  UNL     1      -3.006   6.704   9.968  1.00  0.00    -0.057 SA
ENDBRANCH  18  20
ENDBRANCH   1  16
BRANCH   4  28
HETATM   28  C9  UNL     1      -3.077  -0.750  10.525  1.00  0.00     0.070 C
HETATM   29  C10 UNL     1      -4.537  -0.560  10.222  1.00  0.00     0.019 C
HETATM   30  C11 UNL     1      -2.850  -1.979  11.334  1.00  0.00     0.019 C
ENDBRANCH   4  28
TORSDOF 5
ENDMDL