MODEL 5
REMARK VINA RESULT: -6.608682935      3.248      6.243
REMARK  6 active torsions:
REMARK  status: ('A' for Active; 'I' for Inactive)
REMARK    1  A    between atoms: C2_2  and  N1_3
REMARK    2  A    between atoms: C2_2  and  N7_29
REMARK    3  A    between atoms: N1_3  and  C3_5
REMARK    4  A    between atoms: C4_8  and  C5_9
REMARK    5  A    between atoms: C12_18  and  N4_19
REMARK    6  A    between atoms: N4_19  and  C14_21
ROOT
HETATM    1  C3  UNL     1       0.021   4.161  11.722  1.00  0.00     0.682 A
HETATM    2  N2  UNL     1      -0.652   2.993  11.684  1.00  0.00    -0.189 N
ATOM      3  H2  UNL     1      -0.119   2.136  11.536  1.00  0.00     0.184 HD
HETATM    4  C4  UNL     1      -1.984   2.891  11.828  1.00  0.00     0.090 A
HETATM    5  C11 UNL     1      -2.657   4.102  12.027  1.00  0.00     0.122 A
HETATM    6  N3  UNL     1      -3.932   4.350  12.198  1.00  0.00    -0.185 N
ATOM      7  H3  UNL     1      -4.673   3.649  12.214  1.00  0.00     0.184 HD
HETATM    8  C12 UNL     1      -4.113   5.694  12.351  1.00  0.00     0.684 A
HETATM    9  N5  UNL     1      -2.903   6.269  12.270  1.00  0.00    -0.170 N
HETATM   10  C17 UNL     1      -2.540   7.658  12.365  1.00  0.00     0.177 C
HETATM   11  C18 UNL     1      -1.965   5.287  12.065  1.00  0.00     0.168 A
HETATM   12  N6  UNL     1      -0.623   5.324  11.913  1.00  0.00    -0.174 N
ATOM     13  H6  UNL     1      -0.114   6.207  11.943  1.00  0.00     0.186 HD
ENDROOT
BRANCH   1  14
HETATM   14  N1  UNL     1       1.268   4.094  11.570  1.00  0.00    -0.194 N
ATOM     15  H1  UNL     1       1.652   3.176  11.793  1.00  0.00     0.180 HD
BRANCH  14  16
HETATM   16  C2  UNL     1       2.241   5.016  11.157  1.00  0.00     0.331 C
HETATM   17  C1  UNL     1       3.404   5.219  12.059  1.00  0.00     0.066 C
BRANCH  16  18
HETATM   18  N7  UNL     1       2.653   4.665   9.787  1.00  0.00     0.102 N
HETATM   19  C19 UNL     1       4.075   4.844   9.601  1.00  0.00     0.312 C
HETATM   20  C20 UNL     1       1.923   5.593   8.917  1.00  0.00     0.312 C
ENDBRANCH  16  18
ENDBRANCH  14  16
ENDBRANCH   1  14
BRANCH   4  21
HETATM   21  C5  UNL     1      -2.688   1.611  11.783  1.00  0.00    -0.006 A
HETATM   22  C6  UNL     1      -3.801   1.424  12.574  1.00  0.00     0.014 A
HETATM   23  C7  UNL     1      -4.451   0.205  12.516  1.00  0.00     0.001 A
HETATM   24  C8  UNL     1      -3.985  -0.789  11.683  1.00  0.00     0.000 A
HETATM   25  C9  UNL     1      -2.872  -0.607  10.889  1.00  0.00     0.001 A
HETATM   26  C10 UNL     1      -2.208   0.605  10.933  1.00  0.00     0.014 A
ENDBRANCH   4  21
BRANCH   8  27
HETATM   27  N4  UNL     1      -5.381   6.272  12.551  1.00  0.00    -0.218 N
HETATM   28  C13 UNL     1      -6.251   5.899  13.688  1.00  0.00     0.169 C
BRANCH  27  29
HETATM   29  C14 UNL     1      -5.944   7.263  11.683  1.00  0.00     0.093 C
HETATM   30  C15 UNL     1      -5.864   7.068  10.229  1.00  0.00     0.032 C
HETATM   31  C16 UNL     1      -7.424   7.476  12.045  1.00  0.00     0.032 C
ENDBRANCH  27  29
ENDBRANCH   8  27
TORSDOF 6
ENDMDL