MODEL 3
REMARK VINA RESULT: -8.136240896      2.044      2.680
REMARK  7 active torsions:
REMARK  status: ('A' for Active; 'I' for Inactive)
REMARK    1  A    between atoms: C2_2  and  C5_5
REMARK    2  A    between atoms: C6_10  and  N3_11
REMARK    3  A    between atoms: C7_13  and  O1_14
REMARK    4  A    between atoms: C7_13  and  C8_16
REMARK    5  A    between atoms: N5_23  and  C13_24
REMARK    6  A    between atoms: C13_24  and  C14_25
REMARK    7  A    between atoms: C14_25  and  C15_26
ROOT
HETATM    1  C15 UNL     1      -4.673   4.340  14.694  1.00  0.00    -0.053 A
HETATM    2  C16 UNL     1      -3.686   3.420  14.889  1.00  0.00     0.009 A
HETATM    3  C17 UNL     1      -3.993   2.202  15.508  1.00  0.00     0.023 A
HETATM    4  C18 UNL     1      -5.255   1.892  15.935  1.00  0.00     0.044 A
HETATM    5  C19 UNL     1      -5.594   0.668  16.591  1.00  0.00     0.099 C
HETATM    6  N6  UNL     1      -5.876  -0.327  17.099  1.00  0.00    -0.191 NA
HETATM    7  C20 UNL     1      -6.260   2.838  15.730  1.00  0.00     0.023 A
HETATM    8  C21 UNL     1      -5.988   4.040  15.123  1.00  0.00     0.009 A
ENDROOT
BRANCH   1   9
HETATM    9  C14 UNL     1      -4.416   5.653  14.034  1.00  0.00     0.084 C
BRANCH   9  10
HETATM   10  C13 UNL     1      -4.523   5.498  12.537  1.00  0.00     0.094 C
BRANCH  10  11
HETATM   11  N5  UNL     1      -3.314   5.204  11.876  1.00  0.00    -0.147 N
HETATM   12  C5  UNL     1      -2.207   5.883  11.742  1.00  0.00     0.127 A
HETATM   13  N1  UNL     1      -1.343   5.112  10.994  1.00  0.00    -0.273 N
HETATM   14  N2  UNL     1      -1.924   3.970  10.678  1.00  0.00    -0.130 N
ATOM     15  H1  UNL     1      -0.398   5.383  10.725  1.00  0.00     0.189 HD
HETATM   16  C6  UNL     1      -3.148   3.991  11.203  1.00  0.00     0.706 A
ATOM     17  H2  UNL     1      -1.513   3.213  10.133  1.00  0.00     0.205 HD
BRANCH  12  18
HETATM   18  C2  UNL     1      -1.799   7.218  12.208  1.00  0.00     0.010 C
HETATM   19  C1  UNL     1      -0.541   7.689  11.452  1.00  0.00     0.023 C
HETATM   20  C3  UNL     1      -1.302   7.165  13.666  1.00  0.00     0.023 C
HETATM   21  C4  UNL     1      -2.785   8.329  12.009  1.00  0.00     0.023 C
ENDBRANCH  12  18
BRANCH  16  22
HETATM   22  N3  UNL     1      -4.012   3.146  11.161  1.00  0.00    -0.166 N
HETATM   23  C7  UNL     1      -4.558   1.963  11.248  1.00  0.00     0.182 C
ATOM     24  H3  UNL     1      -4.817   3.708  10.886  1.00  0.00     0.186 HD
BRANCH  23  25
HETATM   25  O1  UNL     1      -5.888   1.913  11.290  1.00  0.00    -0.344 OA
ATOM     26  H1  UNL     1      -6.344   1.885  10.457  1.00  0.00     0.219 HD
ENDBRANCH  23  25
BRANCH  23  27
HETATM   27  C8  UNL     1      -3.953   0.624  11.308  1.00  0.00     0.084 A
HETATM   28  C9  UNL     1      -2.626   0.475  11.011  1.00  0.00     0.034 A
HETATM   29  C10 UNL     1      -2.031  -0.795  11.085  1.00  0.00     0.004 A
HETATM   30  C11 UNL     1      -2.756  -1.892  11.449  1.00  0.00     0.017 A
HETATM   31  C12 UNL     1      -4.109  -1.677  11.742  1.00  0.00     0.088 A
HETATM   32  N4  UNL     1      -4.632  -0.474  11.660  1.00  0.00    -0.362 N
ATOM     33  H4  UNL     1      -5.623  -0.370  11.880  1.00  0.00     0.165 HD
ENDBRANCH  23  27
ENDBRANCH  16  22
ENDBRANCH  10  11
ENDBRANCH   9  10
ENDBRANCH   1   9
TORSDOF 7
ENDMDL