MODEL 3
REMARK VINA RESULT: -6.624557693      1.118      1.350
REMARK  7 active torsions:
REMARK  status: ('A' for Active; 'I' for Inactive)
REMARK    1  A    between atoms: C2_2  and  C3_3
REMARK    2  A    between atoms: C3_3  and  C4_4
REMARK    3  A    between atoms: C3_3  and  N2_9
REMARK    4  A    between atoms: C3_3  and  C9_23
REMARK    5  A    between atoms: C4_4  and  N1_5
REMARK       I    between atoms: N2_9  and  C5_11
REMARK    6  A    between atoms: C5_11  and  C6_13
REMARK    7  A    between atoms: C6_13  and  N3_14
REMARK       I    between atoms: N3_14  and  C7_16
REMARK       I    between atoms: C7_16  and  N5_20
REMARK       I    between atoms: C9_23  and  N6_25
ROOT
HETATM    1  N2  UNL     1      29.116  64.679  10.175  1.00  0.00    -0.340 N
ATOM      2  H2  UNL     1      29.628  63.825   9.956  1.00  0.00     0.163 HD
HETATM    3  C5  UNL     1      29.721  65.940   9.899  1.00  0.00     0.236 C
HETATM    4  O1  UNL     1      29.147  67.028  10.135  1.00  0.00    -0.272 OA
ENDROOT
BRANCH   1   5
HETATM    5  C3  UNL     1      27.781  64.577  10.766  1.00  0.00     0.137 C
BRANCH   5   6
HETATM    6  C2  UNL     1      27.746  63.205  11.422  1.00  0.00     0.038 C
HETATM    7  C1  UNL     1      28.111  63.189  12.857  1.00  0.00     0.008 C
ENDBRANCH   5   6
BRANCH   5   8
HETATM    8  C4  UNL     1      27.575  65.615  11.834  1.00  0.00     0.270 C
BRANCH   8   9
HETATM    9  N1  UNL     1      26.473  66.480  11.574  1.00  0.00    -0.076 N
ATOM     10  H13 UNL     1      25.771  66.404  12.310  1.00  0.00     0.274 HD
ATOM     11  H12 UNL     1      26.741  67.456  11.698  1.00  0.00     0.274 HD
ATOM     12  H11 UNL     1      26.053  66.334  10.656  1.00  0.00     0.274 HD
ENDBRANCH   8   9
ENDBRANCH   5   8
BRANCH   5  13
HETATM   13  C9  UNL     1      26.780  64.585   9.693  1.00  0.00     0.250 C
HETATM   14  O2  UNL     1      26.947  65.517   8.819  1.00  0.00    -0.270 OA
HETATM   15  N6  UNL     1      25.696  63.680   9.568  1.00  0.00    -0.347 N
HETATM   16  C10 UNL     1      24.839  62.547   9.962  1.00  0.00     0.145 A
HETATM   17  C11 UNL     1      24.553  63.273   8.768  1.00  0.00     0.145 A
ENDBRANCH   5  13
ENDBRANCH   1   5
BRANCH   3  18
HETATM   18  C6  UNL     1      31.075  65.980   9.314  1.00  0.00     0.240 C
BRANCH  18  19
HETATM   19  N3  UNL     1      30.999  65.799   7.886  1.00  0.00    -0.218 N
HETATM   20  C7  UNL     1      30.812  66.840   6.937  1.00  0.00     0.667 C
HETATM   21  N4  UNL     1      31.741  67.185   6.110  1.00  0.00    -0.235 N
HETATM   22  N5  UNL     1      29.550  67.511   6.904  1.00  0.00    -0.231 N
ATOM     23  H42 UNL     1      32.642  66.706   6.133  1.00  0.00     0.174 HD
ATOM     24  H41 UNL     1      31.607  67.932   5.428  1.00  0.00     0.174 HD
HETATM   25  C8  UNL     1      28.418  66.721   6.461  1.00  0.00     0.165 C
ATOM     26  H5  UNL     1      29.452  68.489   7.177  1.00  0.00     0.177 HD
ATOM     27  H3  UNL     1      31.087  64.848   7.528  1.00  0.00     0.178 HD
ENDBRANCH  18  19
ENDBRANCH   3  18
TORSDOF 7
ENDMDL