MODEL 1
REMARK VINA RESULT: -5.947616548      0.000      0.000
REMARK  7 active torsions:
REMARK  status: ('A' for Active; 'I' for Inactive)
REMARK    1  A    between atoms: C2_2  and  S1_3
REMARK    2  A    between atoms: S1_3  and  N1_6
REMARK    3  A    between atoms: N1_6  and  C3_8
REMARK    4  A    between atoms: C3_8  and  C4_9
REMARK    5  A    between atoms: C4_9  and  N2_10
REMARK       I    between atoms: N2_10  and  C5_12
REMARK       I    between atoms: C5_12  and  N3_14
REMARK    6  A    between atoms: N3_14  and  N4_15
REMARK    7  A    between atoms: N4_15  and  C6_17
ROOT
HETATM    1  N2  UNL     1      26.147  66.827   8.875  1.00  0.00    -0.308 N
ATOM      2  H2  UNL     1      26.783  67.595   9.091  1.00  0.00     0.170 HD
HETATM    3  C5  UNL     1      26.524  65.989   7.740  1.00  0.00     0.416 C
HETATM    4  O3  UNL     1      25.770  65.020   7.448  1.00  0.00    -0.228 OA
HETATM    5  N3  UNL     1      27.680  66.411   7.124  1.00  0.00    -0.263 NA
ENDROOT
BRANCH   1   6
HETATM    6  C4  UNL     1      25.044  66.712   9.691  1.00  0.00     0.087 C
BRANCH   6   7
HETATM    7  C3  UNL     1      25.236  65.944  10.976  1.00  0.00     0.176 C
BRANCH   7   8
HETATM    8  N1  UNL     1      25.010  64.553  10.543  1.00  0.00    -0.315 N
ATOM      9  H1  UNL     1      24.110  64.210  10.208  1.00  0.00     0.172 HD
BRANCH   8  10
HETATM   10  S1  UNL     1      26.385  63.585  10.655  1.00  0.00     0.226 S
HETATM   11  O1  UNL     1      27.674  64.236  10.260  1.00  0.00    -0.206 OA
HETATM   12  O2  UNL     1      26.487  63.099  12.089  1.00  0.00    -0.206 OA
BRANCH  10  13
HETATM   13  C2  UNL     1      26.107  62.102   9.680  1.00  0.00     0.158 C
HETATM   14  C1  UNL     1      24.636  62.199   9.206  1.00  0.00     0.023 C
ENDBRANCH  10  13
ENDBRANCH   8  10
ENDBRANCH   7   8
ENDBRANCH   6   7
ENDBRANCH   1   6
BRANCH   5  15
HETATM   15  N4  UNL     1      28.768  66.806   6.544  1.00  0.00    -0.206 N
ATOM     16  H4  UNL     1      28.637  67.216   5.620  1.00  0.00     0.204 HD
BRANCH  15  17
HETATM   17  C6  UNL     1      30.109  66.761   6.988  1.00  0.00     0.210 C
HETATM   18  N5  UNL     1      31.178  67.198   6.204  1.00  0.00    -0.068 NA
HETATM   19  S2  UNL     1      30.441  66.149   8.482  1.00  0.00    -0.042 SA
ENDBRANCH  15  17
ENDBRANCH   5  15
TORSDOF 7
ENDMDL