MODEL 2
REMARK VINA RESULT: -6.371753206      1.640      2.748
REMARK  5 active torsions:
REMARK  status: ('A' for Active; 'I' for Inactive)
REMARK    1  A    between atoms: C2_2  and  C4_4
REMARK    2  A    between atoms: C4_4  and  N1_5
REMARK    3  A    between atoms: C4_4  and  C6_10
REMARK       I    between atoms: C6_10  and  N4_12
REMARK    4  A    between atoms: N4_12  and  C7_14
REMARK    5  A    between atoms: C7_14  and  C8_15
ROOT
HETATM    1  C6  UNL     1      27.542  65.702   9.375  1.00  0.00     0.241 C
HETATM    2  O1  UNL     1      26.940  65.503   8.296  1.00  0.00    -0.271 OA
HETATM    3  N4  UNL     1      27.062  65.025  10.524  1.00  0.00    -0.340 N
ATOM      4  H4  UNL     1      27.553  65.189  11.403  1.00  0.00     0.163 HD
ENDROOT
BRANCH   3   5
HETATM    5  C7  UNL     1      25.953  64.136  10.551  1.00  0.00     0.137 C
HETATM    6  C9  UNL     1      25.633  63.770  11.984  1.00  0.00     0.070 C
HETATM    7  C10 UNL     1      24.123  63.845  12.066  1.00  0.00     0.235 C
HETATM    8  N6  UNL     1      23.878  65.052  11.264  1.00  0.00    -0.072 N
HETATM    9  C11 UNL     1      24.662  64.773  10.095  1.00  0.00     0.272 C
ATOM     10  H62 UNL     1      22.897  65.271  11.090  1.00  0.00     0.277 HD
ATOM     11  H61 UNL     1      24.085  65.936  11.729  1.00  0.00     0.277 HD
BRANCH   5  12
HETATM   12  C8  UNL     1      26.199  62.843   9.838  1.00  0.00     0.261 C
HETATM   13  N5  UNL     1      27.282  62.005  10.194  1.00  0.00    -0.060 NA
HETATM   14  O2  UNL     1      25.471  62.423   8.893  1.00  0.00    -0.274 OA
ENDBRANCH   5  12
ENDBRANCH   3   5
BRANCH   1  15
HETATM   15  C4  UNL     1      28.695  66.625   9.348  1.00  0.00     0.179 C
BRANCH  15  16
HETATM   16  C2  UNL     1      29.816  66.141   8.462  1.00  0.00     0.009 C
HETATM   17  C1  UNL     1      29.922  66.920   7.185  1.00  0.00     0.012 C
HETATM   18  C3  UNL     1      31.126  66.126   9.182  1.00  0.00     0.012 C
ENDBRANCH  15  16
BRANCH  15  19
HETATM   19  N1  UNL     1      29.197  66.731  10.704  1.00  0.00    -0.353 N
HETATM   20  C5  UNL     1      28.726  67.570  11.560  1.00  0.00     0.197 C
HETATM   21  N2  UNL     1      27.670  68.412  11.123  1.00  0.00    -0.067 NA
HETATM   22  N3  UNL     1      29.216  67.670  12.872  1.00  0.00    -0.067 NA
ATOM     23  H1  UNL     1      29.957  66.114  10.993  1.00  0.00     0.162 HD
ENDBRANCH  15  19
ENDBRANCH   1  15
TORSDOF 5
ENDMDL