MODEL 2
REMARK VINA RESULT: -7.164923583      1.268      1.995
REMARK  8 active torsions:
REMARK  status: ('A' for Active; 'I' for Inactive)
REMARK    1  A    between atoms: N1_6  and  N2_7
REMARK    2  A    between atoms: N1_6  and  C6_10
REMARK    3  A    between atoms: C6_10  and  C7_11
REMARK    4  A    between atoms: C7_11  and  O1_12
REMARK    5  A    between atoms: O1_12  and  N3_13
REMARK    6  A    between atoms: N3_13  and  C8_15
REMARK    7  A    between atoms: C8_15  and  C9_19
REMARK    8  A    between atoms: N5_20  and  N6_22
ROOT
HETATM    1  N3  UNL     1      30.745  66.112   9.637  1.00  0.00    -0.250 N
ATOM      2  H3  UNL     1      30.375  67.021   9.915  1.00  0.00     0.196 HD
ENDROOT
BRANCH   1   3
HETATM    3  O1  UNL     1      29.910  65.050   9.589  1.00  0.00    -0.277 OA
BRANCH   3   4
HETATM    4  C7  UNL     1      28.659  65.354  10.119  1.00  0.00     0.231 C
BRANCH   4   5
HETATM    5  C6  UNL     1      27.816  66.150   9.155  1.00  0.00     0.293 C
BRANCH   5   6
HETATM    6  N1  UNL     1      26.432  65.831   9.424  1.00  0.00     0.009 N
HETATM    7  C5  UNL     1      25.674  65.494   8.263  1.00  0.00     0.265 C
HETATM    8  C4  UNL     1      24.536  64.666   8.853  1.00  0.00     0.041 C
HETATM    9  C2  UNL     1      25.162  63.924   9.985  1.00  0.00    -0.020 C
HETATM   10  C1  UNL     1      25.432  62.474   9.593  1.00  0.00     0.016 C
HETATM   11  C3  UNL     1      24.300  63.890  11.225  1.00  0.00     0.016 C
HETATM   12  C11 UNL     1      26.417  64.675  10.299  1.00  0.00     0.273 C
BRANCH   6  13
HETATM   13  N2  UNL     1      25.873  66.939  10.074  1.00  0.00    -0.261 N
ATOM     14  H22 UNL     1      24.926  67.278   9.907  1.00  0.00     0.183 HD
ATOM     15  H21 UNL     1      26.542  67.348  10.726  1.00  0.00     0.183 HD
ENDBRANCH   6  13
ENDBRANCH   5   6
ENDBRANCH   4   5
ENDBRANCH   3   4
ENDBRANCH   1   3
BRANCH   1  16
HETATM   16  C8  UNL     1      32.118  65.997   9.311  1.00  0.00     0.136 C
HETATM   17  N4  UNL     1      32.834  65.133   9.929  1.00  0.00    -0.383 N
ATOM     18  H42 UNL     1      32.387  64.554  10.640  1.00  0.00     0.157 HD
ATOM     19  H41 UNL     1      33.824  65.051   9.694  1.00  0.00     0.157 HD
BRANCH  16  20
HETATM   20  C9  UNL     1      32.756  66.826   8.295  1.00  0.00     0.156 C
HETATM   21  N5  UNL     1      32.474  66.809   7.045  1.00  0.00    -0.306 N
ATOM     22  H5  UNL     1      32.983  67.432   6.418  1.00  0.00     0.186 HD
BRANCH  21  23
HETATM   23  N6  UNL     1      31.510  65.981   6.518  1.00  0.00    -0.276 N
HETATM   24  C10 UNL     1      30.293  66.377   6.408  1.00  0.00     0.215 C
HETATM   25  N7  UNL     1      29.341  65.485   5.858  1.00  0.00    -0.065 NA
HETATM   26  N8  UNL     1      29.934  67.675   6.829  1.00  0.00    -0.065 NA
ATOM     27  H6  UNL     1      31.765  65.043   6.211  1.00  0.00     0.189 HD
ENDBRANCH  21  23
ENDBRANCH  16  20
ENDBRANCH   1  16
TORSDOF 8
ENDMDL