MODEL 1
REMARK VINA RESULT: -7.996947113      0.000      0.000
REMARK  6 active torsions:
REMARK  status: ('A' for Active; 'I' for Inactive)
REMARK    1  A    between atoms: N1_1  and  N2_4
REMARK       I    between atoms: N2_4  and  C1_6
REMARK       I    between atoms: N4_8  and  C2_10
REMARK    2  A    between atoms: C2_10  and  C3_12
REMARK    3  A    between atoms: C3_12  and  N5_13
REMARK    4  A    between atoms: N5_13  and  N6_14
REMARK       I    between atoms: N6_14  and  C4_16
REMARK    5  A    between atoms: C4_16  and  C5_18
REMARK    6  A    between atoms: C5_18  and  N7_19
ROOT
HETATM    1  C3  UNL     1      25.723  64.410  11.663  1.00  0.00     0.238 C
ENDROOT
BRANCH   1   2
HETATM    2  C2  UNL     1      25.427  63.600  10.493  1.00  0.00     0.240 C
HETATM    3  N4  UNL     1      26.263  62.573  10.005  1.00  0.00    -0.299 N
HETATM    4  C1  UNL     1      25.792  61.594   9.290  1.00  0.00     0.209 C
ATOM      5  H4  UNL     1      27.261  62.598  10.218  1.00  0.00     0.171 HD
HETATM    6  N2  UNL     1      24.416  61.563   8.993  1.00  0.00    -0.280 N
HETATM    7  N3  UNL     1      26.664  60.589   8.821  1.00  0.00    -0.062 NA
ATOM      8  H2  UNL     1      23.763  61.454   9.770  1.00  0.00     0.189 HD
HETATM    9  O1  UNL     1      24.335  63.853   9.886  1.00  0.00    -0.272 OA
BRANCH   6  10
HETATM   10  N1  UNL     1      23.889  61.671   7.716  1.00  0.00    -0.343 N
ATOM     11  H12 UNL     1      24.094  60.911   7.069  1.00  0.00     0.176 HD
ATOM     12  H11 UNL     1      23.320  62.454   7.393  1.00  0.00     0.176 HD
ENDBRANCH   6  10
ENDBRANCH   1   2
BRANCH   1  13
HETATM   13  N5  UNL     1      27.085  64.197  12.115  1.00  0.00    -0.130 NA
BRANCH  13  14
HETATM   14  N6  UNL     1      27.870  65.308  11.736  1.00  0.00    -0.272 N
HETATM   15  C4  UNL     1      28.804  65.164  10.703  1.00  0.00     0.261 C
HETATM   16  O2  UNL     1      28.879  64.009  10.142  1.00  0.00    -0.270 OA
ATOM     17  H6  UNL     1      27.757  66.204  12.208  1.00  0.00     0.185 HD
BRANCH  15  18
HETATM   18  C5  UNL     1      29.710  66.210  10.207  1.00  0.00     0.375 C
BRANCH  18  19
HETATM   19  N7  UNL     1      30.394  65.877   8.970  1.00  0.00     0.097 N
HETATM   20  C6  UNL     1      29.673  66.715   7.965  1.00  0.00     0.273 C
HETATM   21  C7  UNL     1      30.264  66.331   6.619  1.00  0.00     0.030 C
HETATM   22  C8  UNL     1      31.629  66.985   6.596  1.00  0.00     0.003 C
HETATM   23  C9  UNL     1      32.437  66.639   7.791  1.00  0.00     0.030 C
HETATM   24  C10 UNL     1      31.741  66.423   9.073  1.00  0.00     0.273 C
ENDBRANCH  18  19
ENDBRANCH  15  18
ENDBRANCH  13  14
ENDBRANCH   1  13
TORSDOF 6
ENDMDL