MODEL 2
REMARK VINA RESULT: -6.719610823      3.778      7.700
REMARK  6 active torsions:
REMARK  status: ('A' for Active; 'I' for Inactive)
REMARK       I    between atoms: C1_4  and  N2_5
REMARK       I    between atoms: C1_4  and  N4_12
REMARK    1  A    between atoms: N2_5  and  C2_7
REMARK    2  A    between atoms: C2_7  and  C3_8
REMARK    3  A    between atoms: C3_8  and  C4_9
REMARK    4  A    between atoms: N5_15  and  C7_16
REMARK    5  A    between atoms: C7_16  and  C8_17
REMARK       I    between atoms: C8_17  and  N6_19
REMARK    6  A    between atoms: N6_19  and  N7_21
ROOT
HETATM    1  N1  UNL     1      24.427  63.003  12.827  1.00  0.00    -0.235 N
ATOM      2  H11 UNL     1      24.682  62.518  11.966  1.00  0.00     0.174 HD
ATOM      3  H12 UNL     1      23.799  62.567  13.502  1.00  0.00     0.174 HD
HETATM    4  C1  UNL     1      24.899  64.166  13.060  1.00  0.00     0.669 C
HETATM    5  N2  UNL     1      24.546  64.836  14.249  1.00  0.00    -0.226 N
ATOM      6  H2  UNL     1      25.170  65.545  14.636  1.00  0.00     0.177 HD
HETATM    7  N4  UNL     1      25.767  64.770  12.127  1.00  0.00    -0.215 N
HETATM    8  C5  UNL     1      27.076  65.205  12.612  1.00  0.00     0.160 C
HETATM    9  C6  UNL     1      28.083  64.508  11.721  1.00  0.00     0.137 C
HETATM   10  N5  UNL     1      27.939  64.858  10.353  1.00  0.00    -0.401 N
HETATM   11  C9  UNL     1      26.636  64.643   9.835  1.00  0.00     0.137 C
HETATM   12  C10 UNL     1      25.498  65.004  10.738  1.00  0.00     0.160 C
ENDROOT
BRANCH   5  13
HETATM   13  C2  UNL     1      23.321  64.532  14.918  1.00  0.00     0.147 C
BRANCH  13  14
HETATM   14  C3  UNL     1      23.027  65.478  16.060  1.00  0.00     0.119 C
BRANCH  14  15
HETATM   15  C4  UNL     1      23.563  64.973  17.347  1.00  0.00     0.232 C
HETATM   16  N3  UNL     1      23.115  63.728  17.838  1.00  0.00    -0.062 NA
HETATM   17  O1  UNL     1      24.411  65.601  18.044  1.00  0.00    -0.277 OA
ENDBRANCH  14  15
ENDBRANCH  13  14
ENDBRANCH   5  13
BRANCH  10  18
HETATM   18  C7  UNL     1      28.613  66.012   9.891  1.00  0.00     0.221 C
BRANCH  18  19
HETATM   19  C8  UNL     1      29.934  65.695   9.295  1.00  0.00     0.253 C
HETATM   20  O2  UNL     1      30.023  65.369   8.102  1.00  0.00    -0.270 OA
HETATM   21  N6  UNL     1      31.137  65.752  10.063  1.00  0.00    -0.275 N
ATOM     22  H6  UNL     1      31.094  66.018  11.048  1.00  0.00     0.189 HD
BRANCH  21  23
HETATM   23  N7  UNL     1      32.371  65.449   9.486  1.00  0.00    -0.343 N
ATOM     24  H72 UNL     1      32.408  65.267   8.483  1.00  0.00     0.176 HD
ATOM     25  H71 UNL     1      33.219  65.410  10.052  1.00  0.00     0.176 HD
ENDBRANCH  21  23
ENDBRANCH  18  19
ENDBRANCH  10  18
TORSDOF 6
ENDMDL