MODEL 4
REMARK VINA RESULT: -6.479369395      2.229      5.758
REMARK  7 active torsions:
REMARK  status: ('A' for Active; 'I' for Inactive)
REMARK    1  A    between atoms: C2_2  and  N1_3
REMARK    2  A    between atoms: C3_5  and  C4_6
REMARK    3  A    between atoms: C3_5  and  N4_12
REMARK    4  A    between atoms: C4_6  and  N2_7
REMARK       I    between atoms: N2_7  and  C5_9
REMARK    5  A    between atoms: N4_12  and  N5_14
REMARK       I    between atoms: N5_14  and  C6_16
REMARK    6  A    between atoms: C6_16  and  C7_18
REMARK    7  A    between atoms: C7_18  and  N6_19
REMARK       I    between atoms: N6_19  and  C8_21
ROOT
HETATM    1  N4  UNL     1      29.977  65.122  10.410  1.00  0.00    -0.285 N
ATOM      2  H4  UNL     1      30.797  65.227  11.007  1.00  0.00     0.188 HD
ENDROOT
BRANCH   1   3
HETATM    3  C3  UNL     1      29.877  65.921   9.216  1.00  0.00     0.110 C
HETATM    4  N1  UNL     1      30.731  65.678   8.319  1.00  0.00    -0.378 N
ATOM      5  H1  UNL     1      31.411  64.958   8.561  1.00  0.00     0.160 HD
BRANCH   4   6
HETATM    6  C2  UNL     1      30.897  66.245   7.029  1.00  0.00     0.116 C
HETATM    7  C1  UNL     1      32.184  67.052   6.907  1.00  0.00     0.026 C
ENDBRANCH   4   6
BRANCH   3   8
HETATM    8  C4  UNL     1      28.825  66.939   9.031  1.00  0.00     0.201 C
BRANCH   8   9
HETATM    9  N2  UNL     1      27.816  66.526   8.060  1.00  0.00    -0.338 N
HETATM   10  C5  UNL     1      26.581  66.091   8.591  1.00  0.00     0.329 C
HETATM   11  N3  UNL     1      25.505  65.661   7.728  1.00  0.00    -0.040 NA
HETATM   12  O1  UNL     1      26.315  66.041   9.814  1.00  0.00    -0.251 OA
ATOM     13  H2  UNL     1      27.993  66.550   7.055  1.00  0.00     0.164 HD
ENDBRANCH   8   9
ENDBRANCH   3   8
ENDBRANCH   1   3
BRANCH   1  14
HETATM   14  N5  UNL     1      28.988  64.210  10.772  1.00  0.00    -0.267 N
HETATM   15  C6  UNL     1      28.175  64.369  11.916  1.00  0.00     0.253 C
HETATM   16  O2  UNL     1      28.365  65.387  12.630  1.00  0.00    -0.270 OA
ATOM     17  H5  UNL     1      28.844  63.389  10.183  1.00  0.00     0.190 HD
BRANCH  15  18
HETATM   18  C7  UNL     1      27.152  63.336  12.208  1.00  0.00     0.227 C
BRANCH  18  19
HETATM   19  N6  UNL     1      25.997  63.411  11.364  1.00  0.00    -0.353 N
HETATM   20  C8  UNL     1      25.951  62.634  10.187  1.00  0.00     0.213 C
HETATM   21  C9  UNL     1      24.814  62.644   9.250  1.00  0.00     0.117 C
HETATM   22  O3  UNL     1      26.954  61.890   9.936  1.00  0.00    -0.274 OA
ATOM     23  H6  UNL     1      25.217  64.020  11.612  1.00  0.00     0.162 HD
ENDBRANCH  18  19
ENDBRANCH  15  18
ENDBRANCH   1  14
TORSDOF 7
ENDMDL