MODEL 1
REMARK VINA RESULT: -7.212889545      0.000      0.000
REMARK  5 active torsions:
REMARK  status: ('A' for Active; 'I' for Inactive)
REMARK    1  A    between atoms: C4_5  and  N2_6
REMARK    2  A    between atoms: C4_5  and  C6_11
REMARK       I    between atoms: N2_6  and  C5_8
REMARK       I    between atoms: C6_11  and  N4_13
REMARK    3  A    between atoms: N4_13  and  C7_15
REMARK    4  A    between atoms: C7_15  and  C8_16
REMARK    5  A    between atoms: C8_16  and  N5_17
ROOT
HETATM    1  C1  UNL     1      26.943  64.514  14.911  1.00  0.00     0.310 C
HETATM    2  N1  UNL     1      26.703  63.878  13.657  1.00  0.00     0.087 N
HETATM    3  C2  UNL     1      25.637  64.460  12.888  1.00  0.00     0.275 C
HETATM    4  C3  UNL     1      25.874  63.993  11.472  1.00  0.00     0.073 C
HETATM    5  C4  UNL     1      27.355  63.658  11.395  1.00  0.00     0.142 C
HETATM    6  C10 UNL     1      27.839  63.736  12.813  1.00  0.00     0.312 C
ENDROOT
BRANCH   5   7
HETATM    7  N2  UNL     1      27.550  62.372  10.804  1.00  0.00    -0.325 N
HETATM    8  C5  UNL     1      26.757  61.880   9.722  1.00  0.00     0.329 C
HETATM    9  N3  UNL     1      26.980  60.595   9.159  1.00  0.00    -0.040 NA
HETATM   10  O1  UNL     1      25.821  62.556   9.211  1.00  0.00    -0.251 OA
ATOM     11  H2  UNL     1      28.292  61.776  11.172  1.00  0.00     0.165 HD
ENDBRANCH   5   7
BRANCH   5  12
HETATM   12  C6  UNL     1      28.070  64.681  10.588  1.00  0.00     0.248 C
HETATM   13  O2  UNL     1      27.529  65.123   9.552  1.00  0.00    -0.271 OA
HETATM   14  N4  UNL     1      29.344  65.176  10.948  1.00  0.00    -0.357 N
ATOM     15  H4  UNL     1      29.778  64.811  11.796  1.00  0.00     0.162 HD
BRANCH  14  16
HETATM   16  C7  UNL     1      30.060  66.158  10.196  1.00  0.00     0.142 C
BRANCH  16  17
HETATM   17  C8  UNL     1      31.076  65.614   9.251  1.00  0.00     0.141 C
BRANCH  17  18
HETATM   18  N5  UNL     1      30.746  66.152   7.925  1.00  0.00    -0.365 N
HETATM   19  C9  UNL     1      31.666  66.773   7.273  1.00  0.00     0.197 C
HETATM   20  N6  UNL     1      31.372  67.297   5.999  1.00  0.00    -0.067 NA
HETATM   21  N7  UNL     1      32.972  66.948   7.799  1.00  0.00    -0.067 NA
ATOM     22  H5  UNL     1      29.813  66.036   7.530  1.00  0.00     0.161 HD
ENDBRANCH  17  18
ENDBRANCH  16  17
ENDBRANCH  14  16
ENDBRANCH   5  12
TORSDOF 5
ENDMDL