MODEL 2
REMARK VINA RESULT: -6.422684580      1.625      1.977
REMARK  8 active torsions:
REMARK  status: ('A' for Active; 'I' for Inactive)
REMARK    1  A    between atoms: C2_2  and  N1_3
REMARK    2  A    between atoms: N1_3  and  C3_5
REMARK    3  A    between atoms: C3_5  and  N2_7
REMARK    4  A    between atoms: N2_7  and  N3_9
REMARK       I    between atoms: N3_9  and  C4_11
REMARK    5  A    between atoms: C4_11  and  C5_13
REMARK    6  A    between atoms: C5_13  and  N4_14
REMARK       I    between atoms: N4_14  and  C6_15
REMARK    7  A    between atoms: C6_15  and  C7_17
REMARK    8  A    between atoms: C7_17  and  C8_18
ROOT
HETATM    1  N3  UNL     1      30.099  65.882  10.761  1.00  0.00    -0.262 N
ATOM      2  H3  UNL     1      30.182  66.672  11.400  1.00  0.00     0.190 HD
HETATM    3  C4  UNL     1      28.953  65.078  10.796  1.00  0.00     0.288 C
HETATM    4  O1  UNL     1      28.839  64.094  10.036  1.00  0.00    -0.264 OA
ENDROOT
BRANCH   1   5
HETATM    5  N2  UNL     1      31.119  65.612   9.867  1.00  0.00    -0.274 N
ATOM      6  H2  UNL     1      31.916  65.127  10.279  1.00  0.00     0.189 HD
BRANCH   5   7
HETATM    7  C3  UNL     1      31.258  65.879   8.514  1.00  0.00     0.186 C
HETATM    8  S1  UNL     1      32.651  66.753   8.078  1.00  0.00    -0.040 SA
BRANCH   7   9
HETATM    9  N1  UNL     1      30.419  65.526   7.474  1.00  0.00    -0.366 N
ATOM     10  H1  UNL     1      30.034  64.583   7.528  1.00  0.00     0.161 HD
BRANCH   9  11
HETATM   11  C2  UNL     1      30.011  66.283   6.340  1.00  0.00     0.117 C
HETATM   12  C1  UNL     1      28.558  66.743   6.461  1.00  0.00     0.026 C
ENDBRANCH   9  11
ENDBRANCH   7   9
ENDBRANCH   5   7
ENDBRANCH   1   5
BRANCH   3  13
HETATM   13  C5  UNL     1      27.834  65.335  11.726  1.00  0.00     0.262 C
BRANCH  13  14
HETATM   14  N4  UNL     1      26.701  64.567  11.550  1.00  0.00    -0.377 NA
HETATM   15  C6  UNL     1      25.584  63.804  11.393  1.00  0.00     0.299 C
HETATM   16  O2  UNL     1      25.029  63.123  12.276  1.00  0.00    -0.257 OA
BRANCH  15  17
HETATM   17  C7  UNL     1      25.013  63.811   9.990  1.00  0.00     0.218 C
BRANCH  17  18
HETATM   18  C8  UNL     1      25.136  62.546   9.275  1.00  0.00     0.240 C
HETATM   19  N5  UNL     1      26.336  61.749   9.483  1.00  0.00    -0.062 NA
HETATM   20  O3  UNL     1      24.329  62.058   8.492  1.00  0.00    -0.276 OA
ENDBRANCH  17  18
ENDBRANCH  15  17
ENDBRANCH  13  14
ENDBRANCH   3  13
TORSDOF 8
ENDMDL