MODEL 3
REMARK VINA RESULT: -7.117886417      2.751      4.402
REMARK  6 active torsions:
REMARK  status: ('A' for Active; 'I' for Inactive)
REMARK    1  A    between atoms: C2_2  and  N1_3
REMARK    2  A    between atoms: C2_2  and  C3_7
REMARK    3  A    between atoms: C2_2  and  C7_16
REMARK    4  A    between atoms: C3_7  and  C4_8
REMARK       I    between atoms: C4_8  and  N2_10
REMARK    5  A    between atoms: C5_12  and  C6_13
REMARK       I    between atoms: C7_16  and  N4_18
REMARK    6  A    between atoms: N4_18  and  C8_20
ROOT
HETATM    1  C1  UNL     1      29.157  64.515  13.149  1.00  0.00     0.057 C
HETATM    2  C2  UNL     1      28.965  65.652  12.174  1.00  0.00     0.207 C
ENDROOT
BRANCH   2   3
HETATM    3  N1  UNL     1      29.538  66.832  12.759  1.00  0.00    -0.061 N
ATOM      4  H13 UNL     1      29.857  66.684  13.716  1.00  0.00     0.275 HD
ATOM      5  H12 UNL     1      30.440  67.078  12.352  1.00  0.00     0.275 HD
ATOM      6  H11 UNL     1      28.850  67.582  12.682  1.00  0.00     0.275 HD
ENDBRANCH   2   3
BRANCH   2   7
HETATM    7  C3  UNL     1      27.477  65.871  11.887  1.00  0.00     0.151 C
BRANCH   7   8
HETATM    8  C4  UNL     1      27.281  66.846  10.802  1.00  0.00     0.224 C
HETATM    9  O1  UNL     1      27.806  67.975  10.883  1.00  0.00    -0.273 OA
HETATM   10  N2  UNL     1      26.508  66.519   9.677  1.00  0.00    -0.332 N
HETATM   11  C5  UNL     1      25.815  65.409   9.699  1.00  0.00     0.161 C
ATOM     12  H2  UNL     1      26.487  67.131   8.862  1.00  0.00     0.168 HD
BRANCH  11  13
HETATM   13  C6  UNL     1      24.994  65.014   8.564  1.00  0.00     0.270 C
HETATM   14  N3  UNL     1      23.596  65.096   8.658  1.00  0.00    -0.057 NA
HETATM   15  O2  UNL     1      25.581  64.606   7.523  1.00  0.00    -0.270 OA
ENDBRANCH  11  13
ENDBRANCH   7   8
ENDBRANCH   2   7
BRANCH   2  16
HETATM   16  C7  UNL     1      29.584  65.270  10.892  1.00  0.00     0.255 C
HETATM   17  O3  UNL     1      29.092  64.283  10.285  1.00  0.00    -0.271 OA
HETATM   18  N4  UNL     1      30.691  65.950  10.319  1.00  0.00    -0.331 N
ATOM     19  H4  UNL     1      31.077  66.748  10.824  1.00  0.00     0.164 HD
BRANCH  18  20
HETATM   20  C8  UNL     1      31.296  65.584   9.074  1.00  0.00     0.286 C
HETATM   21  C9  UNL     1      32.292  66.627   8.590  1.00  0.00     0.054 C
HETATM   22  C10 UNL     1      32.378  66.461   7.068  1.00  0.00     0.005 C
HETATM   23  C11 UNL     1      31.109  67.102   6.518  1.00  0.00     0.028 C
HETATM   24  C12 UNL     1      30.001  66.810   7.493  1.00  0.00     0.235 C
HETATM   25  N5  UNL     1      30.235  65.510   8.077  1.00  0.00    -0.054 N
ATOM     26  H52 UNL     1      30.431  64.804   7.367  1.00  0.00     0.279 HD
ATOM     27  H51 UNL     1      29.381  65.106   8.461  1.00  0.00     0.279 HD
ENDBRANCH  18  20
ENDBRANCH   2  16
TORSDOF 6
ENDMDL