MODEL 3
REMARK VINA RESULT: -7.246755546      1.793      2.290
REMARK  6 active torsions:
REMARK  status: ('A' for Active; 'I' for Inactive)
REMARK    1  A    between atoms: N1_4  and  C4_6
REMARK    2  A    between atoms: C4_6  and  C5_10
REMARK    3  A    between atoms: C5_10  and  N3_11
REMARK    4  A    between atoms: C5_10  and  C7_16
REMARK       I    between atoms: N3_11  and  C6_13
REMARK       I    between atoms: C7_16  and  N5_18
REMARK    5  A    between atoms: N5_18  and  C8_20
REMARK    6  A    between atoms: C8_20  and  C9_21
ROOT
HETATM    1  C1  UNL     1      23.117  65.761  11.826  1.00  0.00     0.018 C
HETATM    2  C2  UNL     1      23.611  64.774  12.344  1.00  0.00    -0.072 C
HETATM    3  C3  UNL     1      24.169  63.602  12.939  1.00  0.00     0.153 C
HETATM    4  N1  UNL     1      25.389  63.285  13.034  1.00  0.00    -0.347 N
ATOM      5  H1  UNL     1      25.632  62.407  13.494  1.00  0.00     0.167 HD
ENDROOT
BRANCH   4   6
HETATM    6  C4  UNL     1      26.429  64.098  12.530  1.00  0.00     0.107 C
HETATM    7  N2  UNL     1      26.746  65.161  13.182  1.00  0.00    -0.387 N
ATOM      8  H22 UNL     1      26.242  65.373  14.043  1.00  0.00     0.157 HD
ATOM      9  H21 UNL     1      27.497  65.747  12.818  1.00  0.00     0.157 HD
BRANCH   6  10
HETATM   10  C5  UNL     1      27.155  63.792  11.292  1.00  0.00     0.245 C
BRANCH  10  11
HETATM   11  N3  UNL     1      26.375  64.145  10.152  1.00  0.00    -0.325 N
HETATM   12  C6  UNL     1      25.498  63.239   9.509  1.00  0.00     0.329 C
HETATM   13  N4  UNL     1      24.754  63.650   8.383  1.00  0.00    -0.040 NA
HETATM   14  O1  UNL     1      25.382  62.080   9.936  1.00  0.00    -0.251 OA
ATOM     15  H3  UNL     1      26.452  65.093   9.784  1.00  0.00     0.165 HD
ENDBRANCH  10  11
BRANCH  10  16
HETATM   16  C7  UNL     1      28.454  64.528  11.231  1.00  0.00     0.248 C
HETATM   17  O2  UNL     1      29.284  64.360  12.135  1.00  0.00    -0.271 OA
HETATM   18  N5  UNL     1      28.749  65.407  10.157  1.00  0.00    -0.356 N
ATOM     19  H5  UNL     1      28.064  65.537   9.413  1.00  0.00     0.162 HD
BRANCH  18  20
HETATM   20  C8  UNL     1      30.004  66.123  10.100  1.00  0.00     0.154 C
BRANCH  20  21
HETATM   21  C9  UNL     1      30.657  65.943   8.743  1.00  0.00     0.139 C
HETATM   22  C10 UNL     1      29.919  66.683   7.653  1.00  0.00     0.035 C
HETATM   23  C11 UNL     1      31.004  66.702   6.576  1.00  0.00     0.029 C
HETATM   24  C12 UNL     1      32.221  66.882   7.432  1.00  0.00     0.168 C
HETATM   25  O3  UNL     1      31.918  66.513   8.709  1.00  0.00    -0.384 OA
ENDBRANCH  20  21
ENDBRANCH  18  20
ENDBRANCH  10  16
ENDBRANCH   6  10
ENDBRANCH   4   6
TORSDOF 6
ENDMDL