MODEL 3
REMARK VINA RESULT: -6.551191821      2.624      2.820
REMARK  7 active torsions:
REMARK  status: ('A' for Active; 'I' for Inactive)
REMARK    1  A    between atoms: C2_2  and  C3_3
REMARK    2  A    between atoms: C7_7  and  C8_8
REMARK       I    between atoms: C8_8  and  N1_10
REMARK    3  A    between atoms: N1_10  and  N2_12
REMARK       I    between atoms: N2_12  and  C9_14
REMARK    4  A    between atoms: C9_14  and  C10_16
REMARK    5  A    between atoms: C10_16  and  N3_17
REMARK    6  A    between atoms: N3_17  and  S1_19
REMARK    7  A    between atoms: S1_19  and  N4_20
ROOT
HETATM    1  N2  UNL     1      26.345  65.309   9.824  1.00  0.00    -0.266 N
ATOM      2  H2  UNL     1      26.396  65.351  10.842  1.00  0.00     0.190 HD
HETATM    3  C9  UNL     1      25.496  64.382   9.179  1.00  0.00     0.254 C
HETATM    4  O2  UNL     1      25.408  64.307   7.925  1.00  0.00    -0.270 OA
ENDROOT
BRANCH   1   5
HETATM    5  N1  UNL     1      27.117  66.171   9.032  1.00  0.00    -0.267 N
HETATM    6  C8  UNL     1      28.518  65.991   8.863  1.00  0.00     0.240 C
HETATM    7  O1  UNL     1      29.025  65.012   9.468  1.00  0.00    -0.271 OA
ATOM      8  H1  UNL     1      26.660  66.952   8.562  1.00  0.00     0.190 HD
BRANCH   6   9
HETATM    9  C7  UNL     1      29.245  66.933   8.020  1.00  0.00     0.087 C
HETATM   10  C3  UNL     1      30.733  66.864   8.038  1.00  0.00     0.020 C
HETATM   11  C4  UNL     1      31.157  66.506   6.639  1.00  0.00     0.009 C
HETATM   12  C5  UNL     1      29.930  65.722   6.146  1.00  0.00     0.002 C
HETATM   13  C6  UNL     1      28.841  66.730   6.548  1.00  0.00     0.015 C
BRANCH  10  14
HETATM   14  C2  UNL     1      31.321  66.075   9.102  1.00  0.00    -0.031 C
HETATM   15  C1  UNL     1      32.605  66.046   9.329  1.00  0.00     0.007 C
ENDBRANCH  10  14
ENDBRANCH   6   9
ENDBRANCH   1   5
BRANCH   3  16
HETATM   16  C10 UNL     1      24.679  63.464  10.013  1.00  0.00     0.238 C
BRANCH  16  17
HETATM   17  N3  UNL     1      23.951  64.233  11.038  1.00  0.00    -0.294 N
ATOM     18  H3  UNL     1      23.162  64.856  10.864  1.00  0.00     0.174 HD
BRANCH  17  19
HETATM   19  S1  UNL     1      24.659  63.902  12.598  1.00  0.00     0.313 S
HETATM   20  O3  UNL     1      25.997  63.255  12.451  1.00  0.00    -0.183 OA
HETATM   21  O4  UNL     1      24.801  65.211  13.342  1.00  0.00    -0.183 OA
BRANCH  19  22
HETATM   22  N4  UNL     1      23.661  62.871  13.539  1.00  0.00    -0.312 N
ATOM     23  H42 UNL     1      23.000  63.213  14.237  1.00  0.00     0.170 HD
ATOM     24  H41 UNL     1      23.815  61.889  13.309  1.00  0.00     0.170 HD
ENDBRANCH  19  22
ENDBRANCH  17  19
ENDBRANCH  16  17
ENDBRANCH   3  16
TORSDOF 7
ENDMDL