MODEL 1
REMARK VINA RESULT: -6.763084844      0.000      0.000
REMARK  6 active torsions:
REMARK  status: ('A' for Active; 'I' for Inactive)
REMARK    1  A    between atoms: C1_2  and  C2_4
REMARK    2  A    between atoms: C2_4  and  N2_5
REMARK       I    between atoms: N2_5  and  C3_6
REMARK    3  A    between atoms: C3_6  and  C4_8
REMARK       I    between atoms: C4_8  and  N3_10
REMARK    4  A    between atoms: N3_10  and  C5_12
REMARK    5  A    between atoms: C5_12  and  C6_13
REMARK    6  A    between atoms: C6_13  and  N4_14
REMARK       I    between atoms: N4_14  and  C7_16
REMARK       I    between atoms: C7_16  and  N5_18
ROOT
HETATM    1  C4  UNL     1      27.478  63.801  11.565  1.00  0.00     0.324 C
HETATM    2  O3  UNL     1      28.089  63.418  10.546  1.00  0.00    -0.261 OA
HETATM    3  N3  UNL     1      26.404  64.694  11.326  1.00  0.00    -0.350 N
ATOM      4  H3  UNL     1      25.851  65.036  12.112  1.00  0.00     0.163 HD
ENDROOT
BRANCH   3   5
HETATM    5  C5  UNL     1      26.081  65.125   9.995  1.00  0.00     0.143 C
BRANCH   5   6
HETATM    6  C6  UNL     1      26.816  66.342   9.567  1.00  0.00     0.144 C
BRANCH   6   7
HETATM    7  N4  UNL     1      27.901  66.151   8.656  1.00  0.00    -0.341 N
HETATM    8  C7  UNL     1      29.242  66.363   9.149  1.00  0.00     0.318 C
HETATM    9  O4  UNL     1      29.329  66.697  10.384  1.00  0.00    -0.247 OA
HETATM   10  N5  UNL     1      30.377  66.209   8.374  1.00  0.00    -0.334 N
HETATM   11  C8  UNL     1      31.751  66.298   8.910  1.00  0.00     0.127 C
HETATM   12  C11 UNL     1      30.529  66.004   6.929  1.00  0.00     0.127 C
HETATM   13  C9  UNL     1      32.606  66.749   7.751  1.00  0.00     0.022 C
HETATM   14  C10 UNL     1      31.569  67.141   6.687  1.00  0.00     0.022 C
ATOM     15  H4  UNL     1      27.734  65.874   7.688  1.00  0.00     0.164 HD
ENDBRANCH   6   7
ENDBRANCH   5   6
ENDBRANCH   3   5
BRANCH   1  16
HETATM   16  C3  UNL     1      27.779  63.380  12.940  1.00  0.00     0.383 C
HETATM   17  N2  UNL     1      27.633  64.338  14.080  1.00  0.00    -0.370 NA
HETATM   18  O2  UNL     1      28.162  62.194  13.053  1.00  0.00    -0.246 OA
BRANCH  17  19
HETATM   19  C2  UNL     1      27.516  65.114  15.004  1.00  0.00     0.257 C
BRANCH  19  20
HETATM   20  C1  UNL     1      26.258  65.092  15.911  1.00  0.00     0.283 C
HETATM   21  N1  UNL     1      26.313  65.109  17.302  1.00  0.00    -0.056 NA
HETATM   22  O1  UNL     1      25.172  65.055  15.326  1.00  0.00    -0.269 OA
ENDBRANCH  19  20
ENDBRANCH  17  19
ENDBRANCH   1  16
TORSDOF 6
ENDMDL