MODEL 3
REMARK VINA RESULT: -7.036143251      2.307      5.905
REMARK  6 active torsions:
REMARK  status: ('A' for Active; 'I' for Inactive)
REMARK    1  A    between atoms: C3_3  and  O1_4
REMARK    2  A    between atoms: O1_4  and  C4_5
REMARK    3  A    between atoms: C4_5  and  C5_6
REMARK    4  A    between atoms: C5_6  and  C6_7
REMARK       I    between atoms: C6_7  and  N1_9
REMARK    5  A    between atoms: N1_9  and  N2_11
REMARK       I    between atoms: N2_11  and  C7_13
REMARK       I    between atoms: N4_15  and  C8_17
REMARK    6  A    between atoms: C8_17  and  C9_19
ROOT
HETATM    1  C1  UNL     1      32.342  66.202   9.423  1.00  0.00     0.014 C
HETATM    2  C2  UNL     1      32.339  66.551   8.271  1.00  0.00    -0.091 C
HETATM    3  C3  UNL     1      32.359  66.985   6.874  1.00  0.00     0.260 C
ENDROOT
BRANCH   3   4
HETATM    4  O1  UNL     1      31.099  67.273   6.374  1.00  0.00    -0.379 OA
BRANCH   4   5
HETATM    5  C4  UNL     1      30.285  66.162   6.416  1.00  0.00     0.178 C
BRANCH   5   6
HETATM    6  C5  UNL     1      28.841  66.542   6.301  1.00  0.00     0.131 C
BRANCH   6   7
HETATM    7  C6  UNL     1      28.142  66.404   7.602  1.00  0.00     0.238 C
HETATM    8  O2  UNL     1      28.852  66.469   8.651  1.00  0.00    -0.272 OA
HETATM    9  N1  UNL     1      26.742  66.208   7.691  1.00  0.00    -0.268 N
ATOM     10  H1  UNL     1      26.206  66.162   6.825  1.00  0.00     0.190 HD
BRANCH   9  11
HETATM   11  N2  UNL     1      26.058  66.075   8.896  1.00  0.00    -0.271 N
HETATM   12  C7  UNL     1      26.246  64.926   9.703  1.00  0.00     0.209 C
HETATM   13  N3  UNL     1      25.217  63.951   9.730  1.00  0.00    -0.062 NA
HETATM   14  N4  UNL     1      27.298  64.724  10.410  1.00  0.00    -0.300 N
HETATM   15  C8  UNL     1      27.480  63.586  11.205  1.00  0.00     0.229 C
ATOM     16  H4  UNL     1      28.038  65.427  10.392  1.00  0.00     0.171 HD
HETATM   17  O3  UNL     1      27.478  62.455  10.604  1.00  0.00    -0.273 OA
ATOM     18  H2  UNL     1      25.418  66.810   9.199  1.00  0.00     0.189 HD
BRANCH  15  19
HETATM   19  C9  UNL     1      27.670  63.550  12.653  1.00  0.00     0.105 C
HETATM   20  C10 UNL     1      26.527  64.178  13.445  1.00  0.00     0.043 C
HETATM   21  C11 UNL     1      27.202  64.207  14.826  1.00  0.00     0.233 C
HETATM   22  N5  UNL     1      28.484  64.797  14.492  1.00  0.00    -0.074 N
HETATM   23  C12 UNL     1      28.815  64.433  13.143  1.00  0.00     0.246 C
ATOM     24  H52 UNL     1      28.501  65.806  14.642  1.00  0.00     0.277 HD
ATOM     25  H51 UNL     1      29.215  64.546  15.157  1.00  0.00     0.277 HD
ENDBRANCH  15  19
ENDBRANCH   9  11
ENDBRANCH   6   7
ENDBRANCH   5   6
ENDBRANCH   4   5
ENDBRANCH   3   4
TORSDOF 6
ENDMDL