MODEL 4
REMARK VINA RESULT: -7.551130812      1.716      2.822
REMARK  6 active torsions:
REMARK  status: ('A' for Active; 'I' for Inactive)
REMARK       I    between atoms: N1_2  and  C2_4
REMARK       I    between atoms: C2_4  and  N4_9
REMARK    1  A    between atoms: N4_9  and  S1_11
REMARK    2  A    between atoms: S1_11  and  N5_14
REMARK    3  A    between atoms: N5_14  and  C4_16
REMARK    4  A    between atoms: C4_16  and  C5_17
REMARK    5  A    between atoms: C5_17  and  N6_18
REMARK       I    between atoms: N6_18  and  C6_20
REMARK       I    between atoms: C6_20  and  N7_22
REMARK    6  A    between atoms: N7_22  and  N8_24
ROOT
HETATM    1  C1  UNL     1      23.852  65.654  12.184  1.00  0.00     0.165 C
HETATM    2  N1  UNL     1      24.906  65.756  11.212  1.00  0.00    -0.229 N
ATOM      3  H1  UNL     1      25.503  66.583  11.188  1.00  0.00     0.177 HD
HETATM    4  C2  UNL     1      25.110  64.706  10.292  1.00  0.00     0.697 C
HETATM    5  N2  UNL     1      24.077  64.323   9.601  1.00  0.00    -0.125 N
ATOM      6  H2  UNL     1      23.179  64.786   9.748  1.00  0.00     0.197 HD
HETATM    7  C3  UNL     1      24.167  63.293   8.662  1.00  0.00     0.196 C
HETATM    8  N3  UNL     1      24.226  62.446   7.874  1.00  0.00    -0.171 NA
HETATM    9  N4  UNL     1      26.369  64.073  10.100  1.00  0.00    -0.099 N
ATOM     10  H4  UNL     1      26.730  63.972   9.152  1.00  0.00     0.199 HD
ENDROOT
BRANCH   9  11
HETATM   11  S1  UNL     1      27.306  63.469  11.420  1.00  0.00     0.333 S
HETATM   12  O1  UNL     1      27.738  62.043  11.168  1.00  0.00    -0.182 OA
HETATM   13  O2  UNL     1      26.459  63.419  12.685  1.00  0.00    -0.182 OA
BRANCH  11  14
HETATM   14  N5  UNL     1      28.720  64.416  11.668  1.00  0.00    -0.301 N
ATOM     15  H5  UNL     1      29.662  64.031  11.726  1.00  0.00     0.173 HD
BRANCH  14  16
HETATM   16  C4  UNL     1      28.413  65.824  11.785  1.00  0.00     0.153 C
BRANCH  16  17
HETATM   17  C5  UNL     1      28.959  66.562  10.595  1.00  0.00     0.144 C
BRANCH  17  18
HETATM   18  N6  UNL     1      30.394  66.521  10.485  1.00  0.00    -0.340 N
HETATM   19  C6  UNL     1      31.101  65.926   9.432  1.00  0.00     0.335 C
HETATM   20  O3  UNL     1      30.461  65.381   8.498  1.00  0.00    -0.246 OA
HETATM   21  N7  UNL     1      32.512  65.890   9.336  1.00  0.00    -0.237 N
ATOM     22  H7  UNL     1      33.077  65.457  10.066  1.00  0.00     0.193 HD
ATOM     23  H6  UNL     1      30.937  66.957  11.230  1.00  0.00     0.164 HD
BRANCH  21  24
HETATM   24  N8  UNL     1      33.044  66.404   8.333  1.00  0.00    -0.245 N
HETATM   25  N9  UNL     1      33.014  66.852   7.168  1.00  0.00    -0.331 N
ATOM     26  H92 UNL     1      32.032  66.720   6.928  1.00  0.00     0.178 HD
ATOM     27  H91 UNL     1      33.450  67.272   6.347  1.00  0.00     0.178 HD
ATOM     28  H8  UNL     1      34.019  66.519   8.611  1.00  0.00     0.208 HD
ENDBRANCH  21  24
ENDBRANCH  17  18
ENDBRANCH  16  17
ENDBRANCH  14  16
ENDBRANCH  11  14
ENDBRANCH   9  11
TORSDOF 6
ENDMDL