MODEL 4
REMARK VINA RESULT: -6.523230807      3.738      5.397
REMARK  4 active torsions:
REMARK  status: ('A' for Active; 'I' for Inactive)
REMARK       I    between atoms: N1_2  and  C2_4
REMARK       I    between atoms: C2_4  and  N3_8
REMARK    1  A    between atoms: N3_8  and  N4_10
REMARK    2  A    between atoms: C3_12  and  C4_13
REMARK       I    between atoms: C4_13  and  N5_15
REMARK    3  A    between atoms: N5_15  and  C5_17
REMARK    4  A    between atoms: C5_17  and  C6_18
ROOT
HETATM    1  C4  UNL     1      28.560  65.290  12.109  1.00  0.00     0.258 C
HETATM    2  O1  UNL     1      27.321  65.196  12.318  1.00  0.00    -0.267 OA
HETATM    3  N5  UNL     1      29.463  65.626  13.152  1.00  0.00    -0.353 N
ATOM      4  H5  UNL     1      30.461  65.697  12.953  1.00  0.00     0.162 HD
ENDROOT
BRANCH   1   5
HETATM    5  C3  UNL     1      29.042  65.040  10.737  1.00  0.00     0.181 C
HETATM    6  N4  UNL     1      30.189  65.411  10.348  1.00  0.00    -0.292 N
ATOM      7  H4  UNL     1      30.814  65.899  10.990  1.00  0.00     0.186 HD
BRANCH   6   8
HETATM    8  N3  UNL     1      30.594  65.150   9.042  1.00  0.00    -0.133 N
HETATM    9  C2  UNL     1      30.492  66.131   8.002  1.00  0.00     0.685 C
HETATM   10  N1  UNL     1      31.562  66.312   7.091  1.00  0.00    -0.230 N
HETATM   11  N2  UNL     1      29.434  66.865   7.874  1.00  0.00    -0.234 N
HETATM   12  C1  UNL     1      32.822  66.818   7.576  1.00  0.00     0.165 C
ATOM     13  H1  UNL     1      31.442  66.086   6.103  1.00  0.00     0.177 HD
ATOM     14  H22 UNL     1      29.362  67.563   7.134  1.00  0.00     0.174 HD
ATOM     15  H21 UNL     1      28.664  66.735   8.530  1.00  0.00     0.174 HD
ATOM     16  H3  UNL     1      30.975  64.231   8.819  1.00  0.00     0.205 HD
ENDBRANCH   6   8
ENDBRANCH   1   5
BRANCH   3  17
HETATM   17  C5  UNL     1      28.989  65.866  14.474  1.00  0.00     0.186 C
BRANCH  17  18
HETATM   18  C6  UNL     1      29.601  67.020  15.183  1.00  0.00     0.404 C
HETATM   19  N6  UNL     1      30.438  67.743  14.229  1.00  0.00    -0.034 N
HETATM   20  C7  UNL     1      30.827  68.889  15.027  1.00  0.00     0.145 C
ATOM     21  H62 UNL     1      31.206  67.208  13.824  1.00  0.00     0.280 HD
ATOM     22  H61 UNL     1      30.000  67.958  13.334  1.00  0.00     0.280 HD
HETATM   23  C8  UNL     1      31.859  68.533  16.067  1.00  0.00     0.048 C
HETATM   24  C9  UNL     1      31.314  70.030  14.173  1.00  0.00     0.048 C
HETATM   25  C10 UNL     1      29.537  69.208  15.736  1.00  0.00     0.277 C
HETATM   26  N7  UNL     1      28.701  68.019  15.639  1.00  0.00    -0.042 N
HETATM   27  C11 UNL     1      28.189  67.796  16.985  1.00  0.00     0.274 C
HETATM   28  C12 UNL     1      27.634  68.328  14.719  1.00  0.00     0.274 C
ENDBRANCH  17  18
ENDBRANCH   3  17
TORSDOF 4
ENDMDL