MODEL 2
REMARK VINA RESULT: -7.372968611      1.376      1.890
REMARK  9 active torsions:
REMARK  status: ('A' for Active; 'I' for Inactive)
REMARK    1  A    between atoms: N1_1  and  C1_4
REMARK    2  A    between atoms: C1_4  and  N2_5
REMARK    3  A    between atoms: N2_5  and  C2_7
REMARK    4  A    between atoms: C2_7  and  C6_17
REMARK    5  A    between atoms: N3_8  and  C3_10
REMARK    6  A    between atoms: C3_10  and  C4_11
REMARK    7  A    between atoms: C3_10  and  C5_14
REMARK    8  A    between atoms: C6_17  and  O4_18
REMARK    9  A    between atoms: C6_17  and  C7_20
ROOT
HETATM    1  C2  UNL     1      28.454  65.215  11.185  1.00  0.00     0.112 C
HETATM    2  N3  UNL     1      27.105  65.065  11.139  1.00  0.00    -0.334 N
ATOM      3  H3  UNL     1      26.684  65.370  12.017  1.00  0.00     0.167 HD
ENDROOT
BRANCH   1   4
HETATM    4  N2  UNL     1      29.067  64.473  12.082  1.00  0.00    -0.340 N
ATOM      5  H2  UNL     1      30.074  64.339  11.984  1.00  0.00     0.168 HD
BRANCH   4   6
HETATM    6  C1  UNL     1      28.414  63.847  13.179  1.00  0.00     0.174 C
BRANCH   6   7
HETATM    7  N1  UNL     1      28.275  62.607  13.180  1.00  0.00    -0.395 N
ATOM      8  H12 UNL     1      27.526  62.188  13.732  1.00  0.00     0.156 HD
ATOM      9  H11 UNL     1      28.912  62.032  12.630  1.00  0.00     0.156 HD
ENDBRANCH   6   7
ENDBRANCH   4   6
ENDBRANCH   1   4
BRANCH   1  10
HETATM   10  C6  UNL     1      29.211  66.193  10.400  1.00  0.00     0.189 C
BRANCH  10  11
HETATM   11  O4  UNL     1      28.468  67.252   9.904  1.00  0.00    -0.388 OA
ATOM     12  H4  UNL     1      28.296  67.951  10.524  1.00  0.00     0.210 HD
ENDBRANCH  10  11
BRANCH  10  13
HETATM   13  C7  UNL     1      29.864  65.654   9.112  1.00  0.00     0.022 C
HETATM   14  C8  UNL     1      31.309  65.687   9.039  1.00  0.00     0.007 C
HETATM   15  C9  UNL     1      31.910  66.746   8.129  1.00  0.00     0.000 C
HETATM   16  C10 UNL     1      31.394  66.708   6.732  1.00  0.00     0.000 C
HETATM   17  C11 UNL     1      29.950  66.252   6.681  1.00  0.00     0.000 C
HETATM   18  C12 UNL     1      29.304  66.562   7.999  1.00  0.00     0.007 C
ENDBRANCH  10  13
ENDBRANCH   1  10
BRANCH   2  19
HETATM   19  C3  UNL     1      26.102  64.614  10.242  1.00  0.00     0.176 C
BRANCH  19  20
HETATM   20  C4  UNL     1      25.906  63.195  10.085  1.00  0.00     0.288 C
HETATM   21  N4  UNL     1      26.991  62.263  10.217  1.00  0.00    -0.056 NA
HETATM   22  O1  UNL     1      24.758  62.657   9.851  1.00  0.00    -0.269 OA
ENDBRANCH  19  20
BRANCH  19  23
HETATM   23  C5  UNL     1      25.930  65.358   9.003  1.00  0.00     0.232 C
HETATM   24  O2  UNL     1      25.781  66.609   9.001  1.00  0.00    -0.643 OA
HETATM   25  O3  UNL     1      25.911  64.716   7.751  1.00  0.00    -0.643 OA
ENDBRANCH  19  23
ENDBRANCH   2  19
TORSDOF 9
ENDMDL