MODEL 4
REMARK VINA RESULT: -6.481638129      1.787      1.973
REMARK  6 active torsions:
REMARK  status: ('A' for Active; 'I' for Inactive)
REMARK    1  A    between atoms: C2_2  and  C3_3
REMARK       I    between atoms: C3_3  and  N1_5
REMARK    2  A    between atoms: N1_5  and  C4_7
REMARK    3  A    between atoms: C4_7  and  C5_8
REMARK    4  A    between atoms: C5_8  and  N2_9
REMARK       I    between atoms: N2_9  and  C6_11
REMARK    5  A    between atoms: C6_11  and  C7_13
REMARK    6  A    between atoms: C7_13  and  N3_14
REMARK       I    between atoms: N4_20  and  C10_21
ROOT
HETATM    1  C5  UNL     1      28.372  65.486  11.488  1.00  0.00     0.068 C
HETATM    2  C8  UNL     1      27.393  64.380  12.086  1.00  0.00     0.056 C
HETATM    3  C9  UNL     1      26.024  64.517  11.537  1.00  0.00     0.130 C
HETATM    4  N4  UNL     1      26.037  64.863  10.150  1.00  0.00    -0.336 N
HETATM    5  C10 UNL     1      25.418  64.049   9.193  1.00  0.00     0.330 C
HETATM    6  N5  UNL     1      24.763  62.855   9.596  1.00  0.00    -0.040 NA
HETATM    7  O3  UNL     1      25.401  64.308   7.958  1.00  0.00    -0.251 OA
HETATM    8  C11 UNL     1      26.728  66.111   9.800  1.00  0.00     0.130 C
HETATM    9  C12 UNL     1      27.524  66.569  11.010  1.00  0.00     0.056 C
ENDROOT
BRANCH   1  10
HETATM   10  C4  UNL     1      29.174  64.764  10.460  1.00  0.00     0.095 C
BRANCH  10  11
HETATM   11  N1  UNL     1      30.249  65.428   9.858  1.00  0.00    -0.335 N
HETATM   12  C3  UNL     1      30.601  65.836   8.576  1.00  0.00     0.244 C
HETATM   13  O1  UNL     1      29.904  65.632   7.572  1.00  0.00    -0.268 OA
ATOM     14  H1  UNL     1      30.963  65.681  10.542  1.00  0.00     0.168 HD
BRANCH  12  15
HETATM   15  C2  UNL     1      31.863  66.558   8.325  1.00  0.00     0.064 C
HETATM   16  C1  UNL     1      32.155  66.924   7.108  1.00  0.00     0.017 C
ENDBRANCH  12  15
ENDBRANCH  10  11
ENDBRANCH   1  10
BRANCH   1  17
HETATM   17  N2  UNL     1      29.218  65.744  12.634  1.00  0.00    -0.346 N
HETATM   18  C6  UNL     1      28.810  66.431  13.794  1.00  0.00     0.244 C
HETATM   19  O2  UNL     1      27.663  66.904  13.977  1.00  0.00    -0.272 OA
ATOM     20  H2  UNL     1      30.178  65.402  12.599  1.00  0.00     0.163 HD
BRANCH  18  21
HETATM   21  C7  UNL     1      29.768  66.640  14.913  1.00  0.00     0.332 C
BRANCH  21  22
HETATM   22  N3  UNL     1      29.423  65.930  16.103  1.00  0.00    -0.071 N
ATOM     23  H33 UNL     1      28.631  66.372  16.569  1.00  0.00     0.274 HD
ATOM     24  H32 UNL     1      29.005  65.027  15.876  1.00  0.00     0.274 HD
ATOM     25  H31 UNL     1      30.202  65.811  16.751  1.00  0.00     0.274 HD
ENDBRANCH  21  22
ENDBRANCH  18  21
ENDBRANCH   1  17
TORSDOF 6
ENDMDL