MODEL 2
REMARK VINA RESULT: -6.381738165      2.534      4.319
REMARK  8 active torsions:
REMARK  status: ('A' for Active; 'I' for Inactive)
REMARK    1  A    between atoms: C2_2  and  C5_5
REMARK       I    between atoms: C5_5  and  N1_7
REMARK    2  A    between atoms: C6_9  and  C7_10
REMARK    3  A    between atoms: C6_9  and  N4_22
REMARK    4  A    between atoms: C7_10  and  C8_11
REMARK    5  A    between atoms: C8_11  and  C9_12
REMARK    6  A    between atoms: C9_12  and  N2_13
REMARK       I    between atoms: N2_13  and  C10_15
REMARK    7  A    between atoms: C10_15  and  C11_17
REMARK    8  A    between atoms: C11_17  and  N3_18
ROOT
HETATM    1  C5  UNL     1      23.776  64.860  12.229  1.00  0.00     0.230 C
HETATM    2  O1  UNL     1      23.162  65.180  11.165  1.00  0.00    -0.272 OA
HETATM    3  N1  UNL     1      25.100  64.422  12.307  1.00  0.00    -0.316 N
ATOM      4  H1  UNL     1      25.607  64.708  13.144  1.00  0.00     0.170 HD
HETATM    5  C6  UNL     1      25.774  63.705  11.469  1.00  0.00     0.085 C
ENDROOT
BRANCH   5   6
HETATM    6  C7  UNL     1      27.168  63.420  11.860  1.00  0.00     0.078 C
BRANCH   6   7
HETATM    7  C8  UNL     1      28.270  63.893  11.007  1.00  0.00     0.027 C
BRANCH   7   8
HETATM    8  C9  UNL     1      28.670  65.324  11.170  1.00  0.00     0.123 C
BRANCH   8   9
HETATM    9  N2  UNL     1      29.996  65.630  10.680  1.00  0.00    -0.360 N
HETATM   10  C10 UNL     1      30.305  65.923   9.350  1.00  0.00     0.243 C
HETATM   11  O2  UNL     1      29.423  65.944   8.468  1.00  0.00    -0.272 OA
ATOM     12  H2  UNL     1      30.761  65.632  11.355  1.00  0.00     0.162 HD
BRANCH  10  13
HETATM   13  C11 UNL     1      31.729  66.222   8.961  1.00  0.00     0.331 C
BRANCH  13  14
HETATM   14  N3  UNL     1      32.649  65.376   9.695  1.00  0.00    -0.071 N
ATOM     15  H33 UNL     1      32.241  64.465   9.903  1.00  0.00     0.274 HD
ATOM     16  H32 UNL     1      33.426  65.066   9.112  1.00  0.00     0.274 HD
ATOM     17  H31 UNL     1      32.975  65.846  10.540  1.00  0.00     0.274 HD
ENDBRANCH  13  14
ENDBRANCH  10  13
ENDBRANCH   8   9
ENDBRANCH   7   8
ENDBRANCH   6   7
ENDBRANCH   5   6
BRANCH   5  18
HETATM   18  N4  UNL     1      25.122  63.306  10.301  1.00  0.00    -0.323 N
HETATM   19  C12 UNL     1      25.291  62.382   9.485  1.00  0.00     0.202 C
HETATM   20  N5  UNL     1      24.362  62.317   8.373  1.00  0.00    -0.066 NA
HETATM   21  N6  UNL     1      26.286  61.379   9.480  1.00  0.00    -0.066 NA
ATOM     22  H4  UNL     1      24.331  63.904  10.065  1.00  0.00     0.169 HD
ENDBRANCH   5  18
BRANCH   1  23
HETATM   23  C2  UNL     1      23.055  64.948  13.556  1.00  0.00     0.030 C
HETATM   24  C1  UNL     1      22.723  63.551  13.979  1.00  0.00     0.025 C
HETATM   25  C3  UNL     1      24.017  65.586  14.514  1.00  0.00     0.025 C
HETATM   26  C4  UNL     1      21.829  65.820  13.430  1.00  0.00     0.025 C
ENDBRANCH   1  23
TORSDOF 8
ENDMDL