MODEL 2
REMARK VINA RESULT: -7.256651876      0.905      1.053
REMARK  10 active torsions:
REMARK  status: ('A' for Active; 'I' for Inactive)
REMARK    1  A    between atoms: C2_2  and  O1_3
REMARK    2  A    between atoms: O1_3  and  C3_4
REMARK    3  A    between atoms: C6_7  and  N1_8
REMARK       I    between atoms: N1_8  and  C7_10
REMARK    4  A    between atoms: C7_10  and  C8_12
REMARK    5  A    between atoms: C8_12  and  C9_13
REMARK    6  A    between atoms: C8_12  and  N3_23
REMARK    7  A    between atoms: C9_13  and  N2_14
REMARK       I    between atoms: N2_14  and  C10_16
REMARK    8  A    between atoms: C10_16  and  O4_18
REMARK    9  A    between atoms: O4_18  and  C11_19
REMARK       I    between atoms: N3_23  and  C15_25
REMARK   10  A    between atoms: C15_25  and  C16_27
ROOT
HETATM    1  C8  UNL     1     -40.849  16.001 -20.111  1.00  0.00     0.194 C
ENDROOT
BRANCH   1   2
HETATM    2  C7  UNL     1     -41.982  15.130 -20.497  1.00  0.00     0.242 C
HETATM    3  N1  UNL     1     -43.319  15.434 -20.133  1.00  0.00    -0.355 N
ATOM      4  H1  UNL     1     -43.515  16.274 -19.588  1.00  0.00     0.162 HD
HETATM    5  O2  UNL     1     -41.758  14.094 -21.167  1.00  0.00    -0.271 OA
BRANCH   3   6
HETATM    6  C6  UNL     1     -44.396  14.572 -20.520  1.00  0.00     0.084 C
HETATM    7  C5  UNL     1     -45.293  14.311 -19.344  1.00  0.00     0.028 C
HETATM    8  C4  UNL     1     -46.540  13.556 -19.755  1.00  0.00     0.034 C
HETATM    9  C3  UNL     1     -47.366  14.314 -20.768  1.00  0.00     0.121 C
HETATM   10  C19 UNL     1     -46.566  15.564 -21.120  1.00  0.00     0.034 C
HETATM   11  C18 UNL     1     -45.195  15.217 -21.608  1.00  0.00     0.028 C
BRANCH   9  12
HETATM   12  O1  UNL     1     -48.537  14.724 -20.201  1.00  0.00    -0.386 OA
BRANCH  12  13
HETATM   13  C2  UNL     1     -49.083  13.910 -19.252  1.00  0.00     0.163 C
HETATM   14  C1  UNL     1     -50.428  13.365 -19.526  1.00  0.00     0.033 C
ENDBRANCH  12  13
ENDBRANCH   9  12
ENDBRANCH   3   6
ENDBRANCH   1   2
BRANCH   1  15
HETATM   15  C9  UNL     1     -40.018  16.338 -21.336  1.00  0.00     0.159 C
BRANCH  15  16
HETATM   16  N2  UNL     1     -40.856  16.763 -22.438  1.00  0.00    -0.334 N
HETATM   17  C10 UNL     1     -40.599  17.947 -23.179  1.00  0.00     0.361 C
HETATM   18  O3  UNL     1     -39.589  18.652 -22.847  1.00  0.00    -0.238 OA
ATOM     19  H2  UNL     1     -41.661  16.191 -22.691  1.00  0.00     0.164 HD
BRANCH  17  20
HETATM   20  O4  UNL     1     -41.370  18.375 -24.224  1.00  0.00    -0.294 OA
BRANCH  20  21
HETATM   21  C11 UNL     1     -42.704  18.829 -24.116  1.00  0.00     0.061 C
HETATM   22  C12 UNL     1     -42.930  19.588 -22.826  1.00  0.00     0.046 C
HETATM   23  C13 UNL     1     -43.697  17.691 -24.217  1.00  0.00     0.046 C
HETATM   24  C14 UNL     1     -42.970  19.782 -25.259  1.00  0.00     0.046 C
ENDBRANCH  20  21
ENDBRANCH  17  20
ENDBRANCH  15  16
ENDBRANCH   1  15
BRANCH   1  25
HETATM   25  N3  UNL     1     -40.082  15.372 -19.084  1.00  0.00    -0.345 N
HETATM   26  C15 UNL     1     -39.543  16.018 -17.960  1.00  0.00     0.236 C
HETATM   27  O5  UNL     1     -39.733  17.250 -17.814  1.00  0.00    -0.272 OA
ATOM     28  H3  UNL     1     -39.912  14.371 -19.174  1.00  0.00     0.163 HD
BRANCH  26  29
HETATM   29  C16 UNL     1     -38.756  15.303 -16.929  1.00  0.00     0.170 C
HETATM   30  C17 UNL     1     -38.028  16.259 -16.009  1.00  0.00     0.036 C
HETATM   31 CL1  UNL     1     -39.803  14.252 -15.944  1.00  0.00    -0.115 Cl
ENDBRANCH  26  29
ENDBRANCH   1  25
TORSDOF 10
ENDMDL