MODEL 4
REMARK VINA RESULT: -7.188910400      1.437      1.816
REMARK  9 active torsions:
REMARK  status: ('A' for Active; 'I' for Inactive)
REMARK    1  A    between atoms: C2_2  and  C4_4
REMARK    2  A    between atoms: C4_4  and  C5_5
REMARK    3  A    between atoms: N1_7  and  C7_8
REMARK       I    between atoms: N2_11  and  C10_12
REMARK    4  A    between atoms: C10_12  and  C11_14
REMARK    5  A    between atoms: C11_14  and  N3_15
REMARK    6  A    between atoms: C11_14  and  C15_24
REMARK       I    between atoms: N3_15  and  C12_17
REMARK    7  A    between atoms: C12_17  and  C13_19
REMARK    8  A    between atoms: C13_19  and  O3_20
REMARK    9  A    between atoms: C13_19  and  C14_22
ROOT
HETATM    1  C7  UNL     1     -45.337  13.881 -20.397  1.00  0.00     0.112 C
HETATM    2  C8  UNL     1     -44.977  15.295 -20.012  1.00  0.00     0.047 C
HETATM    3  C9  UNL     1     -43.516  15.570 -20.317  1.00  0.00     0.128 C
HETATM    4  N2  UNL     1     -42.661  14.523 -19.824  1.00  0.00    -0.350 N
HETATM    5  C10 UNL     1     -41.391  14.835 -19.309  1.00  0.00     0.243 C
HETATM    6  O1  UNL     1     -40.734  13.826 -18.851  1.00  0.00    -0.271 OA
HETATM    7  C18 UNL     1     -43.101  13.145 -19.856  1.00  0.00     0.128 C
HETATM    8  C19 UNL     1     -44.560  12.981 -19.458  1.00  0.00     0.047 C
ENDROOT
BRANCH   5   9
HETATM    9  C11 UNL     1     -40.729  16.135 -19.225  1.00  0.00     0.180 C
BRANCH   9  10
HETATM   10  N3  UNL     1     -39.499  16.025 -18.382  1.00  0.00    -0.345 N
HETATM   11  C12 UNL     1     -39.443  16.665 -17.127  1.00  0.00     0.247 C
HETATM   12  O2  UNL     1     -40.428  17.325 -16.736  1.00  0.00    -0.271 OA
ATOM     13  H3  UNL     1     -38.700  15.487 -18.715  1.00  0.00     0.163 HD
BRANCH  11  14
HETATM   14  C13 UNL     1     -38.273  16.601 -16.236  1.00  0.00     0.220 C
BRANCH  14  15
HETATM   15  O3  UNL     1     -37.162  17.262 -16.748  1.00  0.00    -0.385 OA
ATOM     16  H3  UNL     1     -36.377  16.728 -16.744  1.00  0.00     0.210 HD
ENDBRANCH  14  15
BRANCH  14  17
HETATM   17  C14 UNL     1     -37.950  15.128 -16.066  1.00  0.00     0.127 C
HETATM   18  S1  UNL     1     -39.379  14.126 -15.681  1.00  0.00    -0.095 SA
ENDBRANCH  14  17
ENDBRANCH  11  14
ENDBRANCH   9  10
BRANCH   9  19
HETATM   19  C15 UNL     1     -40.136  16.598 -20.565  1.00  0.00     0.009 C
HETATM   20  C16 UNL     1     -40.907  17.655 -21.255  1.00  0.00     0.012 C
HETATM   21  C17 UNL     1     -39.844  15.462 -21.489  1.00  0.00     0.012 C
ENDBRANCH   9  19
ENDBRANCH   5   9
BRANCH   1  22
HETATM   22  N1  UNL     1     -46.742  13.651 -20.407  1.00  0.00    -0.282 N
HETATM   23  C6  UNL     1     -47.557  13.534 -21.470  1.00  0.00     0.138 A
HETATM   24  C5  UNL     1     -48.813  13.318 -20.979  1.00  0.00     0.044 A
HETATM   25  N5  UNL     1     -48.707  13.313 -19.621  1.00  0.00    -0.289 N
HETATM   26  N4  UNL     1     -47.466  13.513 -19.291  1.00  0.00    -0.240 N
ATOM     27  H5  UNL     1     -49.478  13.173 -18.967  1.00  0.00     0.188 HD
ATOM     28  H4  UNL     1     -47.104  13.558 -18.339  1.00  0.00     0.208 HD
BRANCH  24  29
HETATM   29  C4  UNL     1     -50.116  13.108 -21.636  1.00  0.00     0.064 C
BRANCH  29  30
HETATM   30  C2  UNL     1     -51.022  14.293 -21.587  1.00  0.00    -0.017 C
HETATM   31  C1  UNL     1     -50.572  15.362 -22.527  1.00  0.00     0.010 C
HETATM   32  C3  UNL     1     -52.416  13.802 -22.000  1.00  0.00     0.010 C
ENDBRANCH  29  30
ENDBRANCH  24  29
ENDBRANCH   1  22
TORSDOF 9
ENDMDL