MODEL 1
REMARK VINA RESULT: -7.283699283      0.000      0.000
REMARK  9 active torsions:
REMARK  status: ('A' for Active; 'I' for Inactive)
REMARK    1  A    between atoms: C2_2  and  C3_3
REMARK    2  A    between atoms: C3_3  and  C4_4
REMARK    3  A    between atoms: C4_4  and  C5_5
REMARK    4  A    between atoms: C5_5  and  C6_6
REMARK    5  A    between atoms: C9_12  and  C10_13
REMARK    6  A    between atoms: C9_12  and  C12_15
REMARK    7  A    between atoms: C12_15  and  N3_19
REMARK    8  A    between atoms: N3_19  and  O2_21
REMARK    9  A    between atoms: O2_21  and  C13_22
ROOT
HETATM    1  C5  UNL     1     -43.869  14.514 -21.172  1.00  0.00     0.144 C
HETATM    2  C8  UNL     1     -43.384  15.759 -21.880  1.00  0.00     0.242 C
HETATM    3  O1  UNL     1     -44.283  16.494 -22.326  1.00  0.00    -0.272 OA
HETATM    4  N1  UNL     1     -42.049  16.082 -22.034  1.00  0.00    -0.342 N
ATOM      5  H1  UNL     1     -41.806  16.624 -22.863  1.00  0.00     0.163 HD
HETATM    6  C9  UNL     1     -40.959  15.735 -21.150  1.00  0.00     0.106 C
HETATM    7  C18 UNL     1     -41.183  14.556 -20.282  1.00  0.00     0.180 C
HETATM    8  S1  UNL     1     -42.487  13.500 -20.877  1.00  0.00     0.164 S
HETATM    9  O3  UNL     1     -41.976  12.761 -22.043  1.00  0.00    -0.226 OA
HETATM   10  O4  UNL     1     -42.720  12.481 -19.790  1.00  0.00    -0.226 OA
ENDROOT
BRANCH   6  11
HETATM   11  C10 UNL     1     -39.657  15.675 -21.912  1.00  0.00     0.035 C
HETATM   12  C11 UNL     1     -38.823  14.469 -21.664  1.00  0.00     0.008 C
ENDBRANCH   6  11
BRANCH   6  13
HETATM   13  C12 UNL     1     -40.808  16.936 -20.249  1.00  0.00     0.141 C
HETATM   14  N2  UNL     1     -40.789  18.137 -20.642  1.00  0.00    -0.284 N
HETATM   15 CL1  UNL     1     -40.924  18.750 -22.236  1.00  0.00     0.012 Cl
ATOM     16  H2  UNL     1     -40.678  18.838 -19.909  1.00  0.00     0.182 HD
BRANCH  13  17
HETATM   17  N3  UNL     1     -40.704  16.740 -18.833  1.00  0.00    -0.251 N
ATOM     18  H3  UNL     1     -41.350  16.118 -18.346  1.00  0.00     0.196 HD
BRANCH  17  19
HETATM   19  O2  UNL     1     -39.742  17.390 -18.160  1.00  0.00    -0.272 OA
BRANCH  19  20
HETATM   20  C13 UNL     1     -39.717  17.053 -16.807  1.00  0.00     0.178 C
HETATM   21  C14 UNL     1     -38.637  17.762 -16.054  1.00  0.00     0.038 C
HETATM   22  C15 UNL     1     -37.523  16.782 -15.751  1.00  0.00     0.030 C
HETATM   23  C16 UNL     1     -38.013  15.643 -14.879  1.00  0.00     0.232 C
HETATM   24  N4  UNL     1     -39.352  15.230 -15.244  1.00  0.00    -0.073 N
HETATM   25  C17 UNL     1     -39.651  15.535 -16.631  1.00  0.00     0.266 C
ATOM     26  H42 UNL     1     -39.505  14.242 -15.040  1.00  0.00     0.277 HD
ATOM     27  H41 UNL     1     -40.049  15.632 -14.617  1.00  0.00     0.277 HD
ENDBRANCH  19  20
ENDBRANCH  17  19
ENDBRANCH  13  17
ENDBRANCH   6  13
BRANCH   1  28
HETATM   28  C4  UNL     1     -45.024  13.911 -21.835  1.00  0.00     0.035 C
BRANCH  28  29
HETATM   29  C3  UNL     1     -44.963  13.523 -23.256  1.00  0.00     0.002 C
BRANCH  29  30
HETATM   30  C2  UNL     1     -46.232  13.143 -23.934  1.00  0.00    -0.004 C
HETATM   31  C1  UNL     1     -47.292  13.092 -22.812  1.00  0.00     0.005 C
ENDBRANCH  29  30
ENDBRANCH  28  29
ENDBRANCH   1  28
BRANCH   1  32
HETATM   32  C6  UNL     1     -44.343  15.067 -19.821  1.00  0.00     0.031 C
HETATM   33  C7  UNL     1     -45.727  14.702 -19.452  1.00  0.00     0.007 C
ENDBRANCH   1  32
TORSDOF 9
ENDMDL