MODEL 4
REMARK VINA RESULT: -6.404902612      2.306      3.033
REMARK  14 active torsions:
REMARK  status: ('A' for Active; 'I' for Inactive)
REMARK    1  A    between atoms: C2_2  and  C3_3
REMARK    2  A    between atoms: C3_3  and  C4_4
REMARK    3  A    between atoms: C4_4  and  C5_5
REMARK    4  A    between atoms: C5_5  and  C6_6
REMARK    5  A    between atoms: C5_5  and  O1_8
REMARK    6  A    between atoms: O1_8  and  C7_9
REMARK    7  A    between atoms: C7_9  and  C9_17
REMARK    8  A    between atoms: N1_10  and  N2_12
REMARK    9  A    between atoms: N2_12  and  C8_14
REMARK   10  A    between atoms: C9_17  and  O2_18
REMARK   11  A    between atoms: C9_17  and  N4_20
REMARK   12  A    between atoms: N4_20  and  C10_22
REMARK       I    between atoms: N5_25  and  C13_26
REMARK   13  A    between atoms: C13_26  and  O4_28
REMARK   14  A    between atoms: O4_28  and  C14_29
ROOT
HETATM    1  C7  UNL     1     -41.778  13.396 -19.735  1.00  0.00     0.214 C
HETATM    2  N1  UNL     1     -41.258  14.391 -19.208  1.00  0.00    -0.274 N
ATOM      3  H1  UNL     1     -41.911  15.118 -18.916  1.00  0.00     0.189 HD
ENDROOT
BRANCH   1   4
HETATM    4  O1  UNL     1     -43.173  13.528 -19.804  1.00  0.00    -0.293 OA
BRANCH   4   5
HETATM    5  C5  UNL     1     -43.902  14.665 -20.156  1.00  0.00     0.065 C
BRANCH   5   6
HETATM    6  C4  UNL     1     -45.203  14.851 -19.530  1.00  0.00     0.007 C
BRANCH   6   7
HETATM    7  C3  UNL     1     -46.043  13.766 -19.028  1.00  0.00     0.029 C
BRANCH   7   8
HETATM    8  C2  UNL     1     -47.281  14.038 -18.254  1.00  0.00    -0.001 C
HETATM    9  C1  UNL     1     -48.560  14.201 -18.982  1.00  0.00     0.005 C
ENDBRANCH   7   8
ENDBRANCH   6   7
ENDBRANCH   5   6
BRANCH   5  10
HETATM   10  C6  UNL     1     -43.715  15.087 -21.582  1.00  0.00     0.179 C
HETATM   11 CL1  UNL     1     -44.614  16.453 -22.155  1.00  0.00    -0.123 Cl
ENDBRANCH   5  10
ENDBRANCH   4   5
ENDBRANCH   1   4
BRANCH   1  12
HETATM   12  C9  UNL     1     -41.110  12.227 -20.232  1.00  0.00     0.190 C
BRANCH  12  13
HETATM   13  O2  UNL     1     -40.461  11.524 -19.332  1.00  0.00    -0.343 OA
ATOM     14  H2  UNL     1     -39.922  10.822 -19.676  1.00  0.00     0.219 HD
ENDBRANCH  12  13
BRANCH  12  15
HETATM   15  N4  UNL     1     -41.060  11.740 -21.549  1.00  0.00    -0.361 N
ATOM     16  H4  UNL     1     -41.852  11.214 -21.919  1.00  0.00     0.162 HD
BRANCH  15  17
HETATM   17  C10 UNL     1     -39.886  11.975 -22.405  1.00  0.00     0.103 C
HETATM   18  C11 UNL     1     -40.436  12.286 -23.793  1.00  0.00     0.047 C
HETATM   19  C12 UNL     1     -40.972  13.670 -23.631  1.00  0.00     0.130 C
HETATM   20  N5  UNL     1     -40.056  14.302 -22.724  1.00  0.00    -0.326 N
HETATM   21  C13 UNL     1     -39.969  15.693 -22.508  1.00  0.00     0.362 C
HETATM   22  C16 UNL     1     -39.242  13.303 -22.065  1.00  0.00     0.153 C
HETATM   23  O3  UNL     1     -39.129  16.129 -21.690  1.00  0.00    -0.238 OA
BRANCH  21  24
HETATM   24  O4  UNL     1     -40.784  16.587 -23.171  1.00  0.00    -0.304 OA
BRANCH  24  25
HETATM   25  C14 UNL     1     -40.592  17.983 -23.150  1.00  0.00     0.176 C
HETATM   26  C15 UNL     1     -41.641  18.672 -22.338  1.00  0.00     0.034 C
ENDBRANCH  24  25
ENDBRANCH  21  24
ENDBRANCH  15  17
ENDBRANCH  12  15
ENDBRANCH   1  12
BRANCH   2  27
HETATM   27  N2  UNL     1     -39.947  14.657 -18.962  1.00  0.00    -0.277 N
ATOM     28  H2  UNL     1     -39.398  15.016 -19.743  1.00  0.00     0.189 HD
BRANCH  27  29
HETATM   29  C8  UNL     1     -39.268  14.485 -17.734  1.00  0.00     0.199 C
HETATM   30  N3  UNL     1     -38.643  13.240 -17.456  1.00  0.00    -0.068 NA
HETATM   31  S1  UNL     1     -39.185  15.668 -16.646  1.00  0.00    -0.043 SA
ENDBRANCH  27  29
ENDBRANCH   2  27
TORSDOF 14
ENDMDL