MODEL 2
REMARK VINA RESULT: -7.108161077      1.792      2.462
REMARK  11 active torsions:
REMARK  status: ('A' for Active; 'I' for Inactive)
REMARK    1  A    between atoms: C2_2  and  C4_4
REMARK    2  A    between atoms: C4_4  and  N1_5
REMARK       I    between atoms: N1_5  and  C5_6
REMARK    3  A    between atoms: C5_6  and  O2_8
REMARK    4  A    between atoms: O2_8  and  C6_9
REMARK    5  A    between atoms: C10_13  and  O3_14
REMARK    6  A    between atoms: C10_13  and  C11_16
REMARK       I    between atoms: C11_16  and  N2_18
REMARK    7  A    between atoms: N2_18  and  C12_20
REMARK    8  A    between atoms: C12_20  and  C13_21
REMARK    9  A    between atoms: C12_20  and  C16_24
REMARK   10  A    between atoms: C16_24  and  O5_25
REMARK   11  A    between atoms: C16_24  and  N3_27
ROOT
HETATM    1  C11 UNL     1     -43.277  14.607 -20.101  1.00  0.00     0.278 C
HETATM    2  O4  UNL     1     -43.008  13.486 -19.682  1.00  0.00    -0.265 OA
HETATM    3  N2  UNL     1     -42.185  15.527 -20.192  1.00  0.00    -0.346 N
ATOM      4  H2  UNL     1     -42.446  16.450 -20.540  1.00  0.00     0.163 HD
ENDROOT
BRANCH   1   5
HETATM    5  C10 UNL     1     -44.574  15.047 -20.510  1.00  0.00     0.171 C
HETATM    6  C4  UNL     1     -45.132  15.651 -21.676  1.00  0.00     0.133 C
BRANCH   6   7
HETATM    7  C2  UNL     1     -44.661  15.493 -23.053  1.00  0.00     0.045 C
HETATM    8  C1  UNL     1     -45.204  16.261 -24.179  1.00  0.00     0.017 C
HETATM    9  C3  UNL     1     -44.954  13.992 -23.418  1.00  0.00     0.017 C
ENDBRANCH   6   7
BRANCH   6  10
HETATM   10  N1  UNL     1     -46.595  15.645 -21.695  1.00  0.00    -0.347 NA
HETATM   11  C5  UNL     1     -47.911  15.654 -21.752  1.00  0.00     0.441 C
HETATM   12  O1  UNL     1     -48.662  16.011 -22.724  1.00  0.00    -0.221 OA
BRANCH  11  13
HETATM   13  O2  UNL     1     -48.725  15.232 -20.642  1.00  0.00    -0.282 OA
BRANCH  13  14
HETATM   14  C6  UNL     1     -49.035  13.935 -20.323  1.00  0.00     0.062 C
HETATM   15  C7  UNL     1     -48.301  12.873 -21.078  1.00  0.00     0.046 C
HETATM   16  C8  UNL     1     -50.527  13.626 -20.426  1.00  0.00     0.046 C
HETATM   17  C9  UNL     1     -48.683  13.748 -18.840  1.00  0.00     0.046 C
ENDBRANCH  13  14
ENDBRANCH  11  13
ENDBRANCH   6  10
BRANCH   5  18
HETATM   18  O3  UNL     1     -45.499  14.856 -19.552  1.00  0.00    -0.353 OA
ATOM     19  H3  UNL     1     -45.374  14.032 -19.098  1.00  0.00     0.218 HD
ENDBRANCH   5  18
ENDBRANCH   1   5
BRANCH   3  20
HETATM   20  C12 UNL     1     -40.806  15.392 -19.887  1.00  0.00     0.136 C
BRANCH  20  21
HETATM   21  C13 UNL     1     -39.998  15.654 -21.126  1.00  0.00     0.004 C
HETATM   22  C14 UNL     1     -38.917  14.667 -21.429  1.00  0.00     0.012 C
HETATM   23  C15 UNL     1     -40.956  15.527 -22.351  1.00  0.00     0.012 C
ENDBRANCH  20  21
BRANCH  20  24
HETATM   24  C16 UNL     1     -40.486  16.269 -18.719  1.00  0.00     0.238 C
BRANCH  24  25
HETATM   25  O5  UNL     1     -40.325  17.586 -19.268  1.00  0.00    -0.375 OA
ATOM     26  H5  UNL     1     -39.558  17.945 -18.837  1.00  0.00     0.212 HD
ENDBRANCH  24  25
BRANCH  24  27
HETATM   27  N3  UNL     1     -39.389  15.964 -17.915  1.00  0.00    -0.386 N
HETATM   28  C17 UNL     1     -39.035  17.012 -16.997  1.00  0.00     0.122 C
HETATM   29  C18 UNL     1     -39.488  16.567 -15.591  1.00  0.00     0.056 C
HETATM   30  C19 UNL     1     -38.486  15.549 -15.145  1.00  0.00     0.173 C
HETATM   31  F1  UNL     1     -37.370  16.222 -14.688  1.00  0.00    -0.249 F
HETATM   32  C20 UNL     1     -38.058  14.756 -16.364  1.00  0.00     0.056 C
HETATM   33  C21 UNL     1     -39.195  14.667 -17.404  1.00  0.00     0.122 C
ENDBRANCH  24  27
ENDBRANCH  20  24
ENDBRANCH   3  20
TORSDOF 11
ENDMDL