MODEL 3
REMARK VINA RESULT: -7.254778934      2.102      5.817
REMARK  10 active torsions:
REMARK  status: ('A' for Active; 'I' for Inactive)
REMARK    1  A    between atoms: N1_7  and  C6_9
REMARK    2  A    between atoms: C6_9  and  C7_11
REMARK    3  A    between atoms: C7_11  and  C8_12
REMARK    4  A    between atoms: C7_11  and  C15_19
REMARK    5  A    between atoms: C8_12  and  C9_13
REMARK    6  A    between atoms: C9_13  and  C10_14
REMARK    7  A    between atoms: C15_19  and  C16_21
REMARK    8  A    between atoms: C16_21  and  O3_22
REMARK    9  A    between atoms: C17_24  and  O4_25
REMARK   10  A    between atoms: C17_24  and  C18_27
ROOT
HETATM    1  C1  UNL     1     -39.958  14.097 -16.150  1.00  0.00     0.078 C
HETATM    2  C2  UNL     1     -39.245  14.629 -17.366  1.00  0.00     0.158 C
HETATM    3  C3  UNL     1     -38.080  15.493 -17.019  1.00  0.00     0.078 C
HETATM    4  O1  UNL     1     -40.145  15.259 -18.257  1.00  0.00    -0.342 OA
HETATM    5  C4  UNL     1     -40.951  14.200 -18.597  1.00  0.00     0.206 C
HETATM    6  C5  UNL     1     -41.339  14.123 -20.057  1.00  0.00     0.054 C
HETATM    7  N1  UNL     1     -42.380  14.591 -20.607  1.00  0.00    -0.361 N
ATOM      8  H1  UNL     1     -43.014  15.070 -19.969  1.00  0.00     0.162 HD
HETATM    9  C17 UNL     1     -40.094  13.384 -20.282  1.00  0.00     0.136 C
HETATM   10  C19 UNL     1     -39.968  13.080 -18.794  1.00  0.00     0.201 C
HETATM   11  O5  UNL     1     -38.810  13.574 -18.199  1.00  0.00    -0.344 OA
ENDROOT
BRANCH   7  12
HETATM   12  C6  UNL     1     -42.807  14.565 -21.921  1.00  0.00     0.280 C
HETATM   13  F1  UNL     1     -41.799  14.492 -22.863  1.00  0.00    -0.226 F
BRANCH  12  14
HETATM   14  C7  UNL     1     -43.702  15.739 -22.246  1.00  0.00     0.111 C
BRANCH  14  15
HETATM   15  C8  UNL     1     -44.889  15.821 -21.334  1.00  0.00     0.017 C
BRANCH  15  16
HETATM   16  C9  UNL     1     -45.885  14.781 -21.687  1.00  0.00     0.005 C
BRANCH  16  17
HETATM   17  C10 UNL     1     -46.537  14.139 -20.483  1.00  0.00    -0.014 C
HETATM   18  C11 UNL     1     -47.932  14.595 -20.224  1.00  0.00     0.004 C
HETATM   19  C12 UNL     1     -48.181  14.042 -18.818  1.00  0.00     0.000 C
HETATM   20  C13 UNL     1     -46.830  14.000 -18.155  1.00  0.00     0.000 C
HETATM   21  C14 UNL     1     -45.808  14.381 -19.206  1.00  0.00     0.004 C
ENDBRANCH  16  17
ENDBRANCH  15  16
ENDBRANCH  14  15
BRANCH  14  22
HETATM   22  C15 UNL     1     -42.920  16.977 -22.359  1.00  0.00     0.158 C
HETATM   23  O2  UNL     1     -41.867  17.136 -21.704  1.00  0.00    -0.295 OA
BRANCH  22  24
HETATM   24  C16 UNL     1     -43.260  18.128 -23.226  1.00  0.00     0.242 C
BRANCH  24  25
HETATM   25  O3  UNL     1     -43.453  19.276 -22.507  1.00  0.00    -0.394 OA
ATOM     26  H3  UNL     1     -42.738  19.893 -22.619  1.00  0.00     0.209 HD
ENDBRANCH  24  25
ENDBRANCH  22  24
ENDBRANCH  14  22
ENDBRANCH  12  14
ENDBRANCH   7  12
BRANCH   9  27
HETATM   27  O4  UNL     1     -40.224  12.178 -20.973  1.00  0.00    -0.380 OA
ATOM     28  H4  UNL     1     -40.975  11.647 -20.735  1.00  0.00     0.211 HD
ENDBRANCH   9  27
BRANCH   9  29
HETATM   29  C18 UNL     1     -38.902  14.137 -20.781  1.00  0.00     0.132 C
HETATM   30 BR1  UNL     1     -38.416  13.359 -22.506  1.00  0.00    -0.093 Br
ENDBRANCH   9  29
TORSDOF 10
ENDMDL