MODEL 5
REMARK VINA RESULT: -6.476750015      1.592      1.931
REMARK  12 active torsions:
REMARK  status: ('A' for Active; 'I' for Inactive)
REMARK    1  A    between atoms: O1_2  and  C2_3
REMARK    2  A    between atoms: C2_3  and  C3_4
REMARK    3  A    between atoms: C3_4  and  C4_5
REMARK    4  A    between atoms: C4_5  and  C5_6
REMARK    5  A    between atoms: C4_5  and  N2_13
REMARK    6  A    between atoms: C5_6  and  N1_7
REMARK    7  A    between atoms: N1_7  and  C6_9
REMARK    8  A    between atoms: N2_13  and  C10_15
REMARK    9  A    between atoms: C10_15  and  C11_16
REMARK   10  A    between atoms: C12_17  and  C13_18
REMARK   11  A    between atoms: N4_21  and  C14_22
REMARK   12  A    between atoms: C17_25  and  O2_26
ROOT
HETATM    1  C10 UNL     1     -43.248  17.086 -23.231  1.00  0.00     0.153 C
ENDROOT
BRANCH   1   2
HETATM    2  N2  UNL     1     -44.290  16.249 -23.550  1.00  0.00    -0.361 N
ATOM      3  H2  UNL     1     -44.667  16.288 -24.496  1.00  0.00     0.165 HD
BRANCH   2   4
HETATM    4  C4  UNL     1     -44.869  15.332 -22.634  1.00  0.00     0.026 C
BRANCH   4   5
HETATM    5  C3  UNL     1     -44.679  13.917 -22.904  1.00  0.00     0.084 C
BRANCH   5   6
HETATM    6  C2  UNL     1     -44.842  13.375 -24.266  1.00  0.00     0.173 C
BRANCH   6   7
HETATM    7  O1  UNL     1     -45.771  13.940 -25.095  1.00  0.00    -0.396 OA
HETATM    8  C1  UNL     1     -45.258  13.930 -26.385  1.00  0.00     0.201 C
ENDBRANCH   6   7
ENDBRANCH   5   6
ENDBRANCH   4   5
BRANCH   4   9
HETATM    9  C5  UNL     1     -46.206  15.847 -22.235  1.00  0.00     0.108 C
BRANCH   9  10
HETATM   10  N1  UNL     1     -47.356  15.527 -22.924  1.00  0.00    -0.389 N
ATOM     11  H1  UNL     1     -47.407  15.768 -23.914  1.00  0.00     0.159 HD
BRANCH  10  12
HETATM   12  C6  UNL     1     -48.459  14.890 -22.343  1.00  0.00     0.018 C
HETATM   13  C7  UNL     1     -48.365  13.347 -22.469  1.00  0.00     0.037 C
HETATM   14  C8  UNL     1     -49.839  15.319 -22.602  1.00  0.00     0.037 C
HETATM   15  C9  UNL     1     -48.263  15.085 -20.803  1.00  0.00     0.037 C
ENDBRANCH  10  12
ENDBRANCH   9  10
ENDBRANCH   4   9
ENDBRANCH   2   4
ENDBRANCH   1   2
BRANCH   1  16
HETATM   16  C11 UNL     1     -42.417  16.619 -22.113  1.00  0.00    -0.054 C
HETATM   17  C12 UNL     1     -41.685  16.252 -21.201  1.00  0.00    -0.040 C
BRANCH  17  18
HETATM   18  C13 UNL     1     -40.790  15.849 -20.142  1.00  0.00     0.120 A
HETATM   19  N3  UNL     1     -40.722  16.414 -18.901  1.00  0.00    -0.289 N
HETATM   20  N4  UNL     1     -39.815  15.820 -18.154  1.00  0.00    -0.294 N
ATOM     21  H3  UNL     1     -41.299  17.196 -18.592  1.00  0.00     0.188 HD
HETATM   22  C18 UNL     1     -39.237  14.823 -18.876  1.00  0.00     0.133 A
HETATM   23  C19 UNL     1     -39.848  14.843 -20.120  1.00  0.00     0.064 A
HETATM   24 BR1  UNL     1     -39.489  13.695 -21.587  1.00  0.00    -0.046 Br
BRANCH  20  25
HETATM   25  C14 UNL     1     -39.515  16.179 -16.785  1.00  0.00     0.136 C
HETATM   26  C15 UNL     1     -38.067  15.945 -16.419  1.00  0.00     0.032 C
HETATM   27  C16 UNL     1     -38.109  17.232 -15.649  1.00  0.00     0.036 C
HETATM   28  C17 UNL     1     -39.326  17.631 -16.494  1.00  0.00     0.143 C
BRANCH  28  29
HETATM   29  O2  UNL     1     -40.245  18.234 -15.640  1.00  0.00    -0.393 OA
ATOM     30  H2  UNL     1     -40.375  19.170 -15.734  1.00  0.00     0.210 HD
ENDBRANCH  28  29
ENDBRANCH  20  25
ENDBRANCH  17  18
ENDBRANCH   1  16
TORSDOF 12
ENDMDL