MODEL 3
REMARK VINA RESULT: -7.834276115      1.113      1.204
REMARK  10 active torsions:
REMARK  status: ('A' for Active; 'I' for Inactive)
REMARK    1  A    between atoms: C2_2  and  N1_3
REMARK       I    between atoms: N1_3  and  C3_5
REMARK       I    between atoms: C3_5  and  N2_7
REMARK    2  A    between atoms: N2_7  and  C4_9
REMARK    3  A    between atoms: C5_12  and  N4_13
REMARK    4  A    between atoms: C8_16  and  C9_17
REMARK    5  A    between atoms: C8_16  and  C11_19
REMARK    6  A    between atoms: C11_19  and  C12_20
REMARK    7  A    between atoms: C12_20  and  C13_21
REMARK    8  A    between atoms: C13_21  and  C14_22
REMARK    9  A    between atoms: C14_22  and  N5_23
REMARK   10  A    between atoms: C17_30  and  N6_31
ROOT
HETATM    1  C4  UNL     1     -41.955  17.294 -22.212  1.00  0.00     0.689 A
HETATM    2  N3  UNL     1     -43.196  16.779 -22.275  1.00  0.00    -0.173 N
ATOM      3  H3  UNL     1     -43.850  17.156 -22.961  1.00  0.00     0.186 HD
HETATM    4  C5  UNL     1     -43.606  15.787 -21.469  1.00  0.00     0.162 A
HETATM    5  C16 UNL     1     -42.695  15.314 -20.563  1.00  0.00     0.204 A
HETATM    6  F1  UNL     1     -42.995  14.327 -19.713  1.00  0.00    -0.198 F
HETATM    7  C17 UNL     1     -41.404  15.839 -20.486  1.00  0.00     0.162 A
HETATM    8  N7  UNL     1     -41.058  16.827 -21.319  1.00  0.00    -0.173 N
ATOM      9  H7  UNL     1     -40.120  17.226 -21.280  1.00  0.00     0.186 HD
ENDROOT
BRANCH   4  10
HETATM   10  N4  UNL     1     -44.924  15.221 -21.509  1.00  0.00    -0.363 N
HETATM   11  C6  UNL     1     -45.222  14.125 -22.429  1.00  0.00     0.125 C
HETATM   12  C7  UNL     1     -46.459  13.523 -21.857  1.00  0.00     0.031 C
HETATM   13  C8  UNL     1     -47.234  14.688 -21.275  1.00  0.00    -0.023 C
HETATM   14  C15 UNL     1     -46.061  15.585 -20.745  1.00  0.00     0.134 C
BRANCH  13  15
HETATM   15  C9  UNL     1     -48.030  14.332 -20.076  1.00  0.00     0.007 C
HETATM   16  C10 UNL     1     -47.142  14.100 -18.869  1.00  0.00     0.006 C
ENDBRANCH  13  15
BRANCH  13  17
HETATM   17  C11 UNL     1     -47.876  15.511 -22.312  1.00  0.00     0.011 C
BRANCH  17  18
HETATM   18  C12 UNL     1     -49.171  16.159 -22.097  1.00  0.00     0.002 C
BRANCH  18  19
HETATM   19  C13 UNL     1     -50.324  15.686 -22.929  1.00  0.00     0.027 C
BRANCH  19  20
HETATM   20  C14 UNL     1     -51.179  14.760 -22.050  1.00  0.00     0.229 C
BRANCH  20  21
HETATM   21  N5  UNL     1     -50.881  13.377 -22.318  1.00  0.00    -0.079 N
ATOM     22  H53 UNL     1     -50.086  13.050 -21.770  1.00  0.00     0.274 HD
ATOM     23  H52 UNL     1     -51.595  12.756 -21.937  1.00  0.00     0.274 HD
ATOM     24  H51 UNL     1     -50.740  13.221 -23.317  1.00  0.00     0.274 HD
ENDBRANCH  20  21
ENDBRANCH  19  20
ENDBRANCH  18  19
ENDBRANCH  17  18
ENDBRANCH  13  17
ENDBRANCH   4  10
BRANCH   1  25
HETATM   25  N2  UNL     1     -41.558  18.247 -22.986  1.00  0.00    -0.141 N
HETATM   26  C3  UNL     1     -42.307  18.746 -24.070  1.00  0.00     0.334 C
HETATM   27  N1  UNL     1     -42.254  18.163 -25.349  1.00  0.00    -0.343 N
HETATM   28  O1  UNL     1     -43.044  19.745 -23.884  1.00  0.00    -0.247 OA
ATOM     29  H1  UNL     1     -41.652  17.352 -25.494  1.00  0.00     0.164 HD
ATOM     30  H2  UNL     1     -40.646  18.665 -22.802  1.00  0.00     0.189 HD
BRANCH  27  31
HETATM   31  C2  UNL     1     -43.023  18.671 -26.476  1.00  0.00     0.120 C
HETATM   32  C1  UNL     1     -43.751  17.571 -27.189  1.00  0.00     0.026 C
ENDBRANCH  27  31
ENDBRANCH   1  25
BRANCH   7  33
HETATM   33  N6  UNL     1     -40.442  15.366 -19.559  1.00  0.00    -0.360 N
HETATM   34  C18 UNL     1     -40.180  16.193 -18.400  1.00  0.00     0.151 C
HETATM   35  C19 UNL     1     -39.362  15.492 -17.360  1.00  0.00     0.187 C
HETATM   36  O2  UNL     1     -38.524  14.528 -17.914  1.00  0.00    -0.388 OA
HETATM   37  C20 UNL     1     -39.298  13.538 -18.526  1.00  0.00     0.187 C
HETATM   38  C21 UNL     1     -39.797  14.114 -19.827  1.00  0.00     0.151 C
ENDBRANCH   7  33
TORSDOF 10
ENDMDL