MODEL 4
REMARK VINA RESULT: -6.728210527      3.520      7.465
REMARK  10 active torsions:
REMARK  status: ('A' for Active; 'I' for Inactive)
REMARK    1  A    between atoms: C3_5  and  C4_6
REMARK    2  A    between atoms: C4_6  and  N2_7
REMARK    3  A    between atoms: N2_7  and  C5_9
REMARK    4  A    between atoms: C5_9  and  N3_11
REMARK    5  A    between atoms: N3_11  and  C6_13
REMARK    6  A    between atoms: C6_13  and  C7_14
REMARK    7  A    between atoms: C7_14  and  N4_15
REMARK    8  A    between atoms: N4_15  and  C8_17
REMARK    9  A    between atoms: C8_17  and  C9_18
REMARK       I    between atoms: N5_22  and  C12_23
REMARK   10  A    between atoms: C12_23  and  C13_25
ROOT
HETATM    1  C7  UNL     1     -45.372  13.658 -19.572  1.00  0.00     0.138 C
ENDROOT
BRANCH   1   2
HETATM    2  C6  UNL     1     -46.700  13.625 -20.379  1.00  0.00     0.141 C
BRANCH   2   3
HETATM    3  N3  UNL     1     -47.052  14.917 -20.828  1.00  0.00    -0.366 N
ATOM      4  H3  UNL     1     -47.016  15.626 -20.096  1.00  0.00     0.161 HD
BRANCH   3   5
HETATM    5  C5  UNL     1     -47.435  15.412 -22.051  1.00  0.00     0.167 C
HETATM    6  S1  UNL     1     -49.101  15.781 -22.215  1.00  0.00    -0.041 SA
BRANCH   5   7
HETATM    7  N2  UNL     1     -46.727  15.679 -23.211  1.00  0.00    -0.362 N
ATOM      8  H2  UNL     1     -47.213  16.276 -23.881  1.00  0.00     0.162 HD
BRANCH   7   9
HETATM    9  C4  UNL     1     -45.434  15.258 -23.619  1.00  0.00     0.179 C
BRANCH   9  10
HETATM   10  C3  UNL     1     -44.535  16.477 -23.861  1.00  0.00     0.034 A
HETATM   11  N1  UNL     1     -43.693  16.876 -22.955  1.00  0.00    -0.356 N
HETATM   12  C2  UNL     1     -42.938  17.939 -23.180  1.00  0.00     0.047 A
ATOM     13  H1  UNL     1     -43.615  16.372 -22.073  1.00  0.00     0.166 HD
HETATM   14  C1  UNL     1     -41.911  18.557 -22.254  1.00  0.00     0.076 C
HETATM   15  S2  UNL     1     -43.427  18.412 -24.747  1.00  0.00    -0.087 SA
HETATM   16  C19 UNL     1     -44.593  17.195 -25.022  1.00  0.00     0.078 A
ENDBRANCH   9  10
ENDBRANCH   7   9
ENDBRANCH   5   7
ENDBRANCH   3   5
ENDBRANCH   2   3
ENDBRANCH   1   2
BRANCH   1  17
HETATM   17  N4  UNL     1     -44.446  14.531 -20.195  1.00  0.00    -0.398 N
ATOM     18  H4  UNL     1     -44.637  15.531 -20.253  1.00  0.00     0.158 HD
BRANCH  17  19
HETATM   19  C8  UNL     1     -43.264  13.999 -20.729  1.00  0.00     0.099 C
BRANCH  19  20
HETATM   20  C9  UNL     1     -41.939  14.365 -20.216  1.00  0.00     0.138 C
HETATM   21  F1  UNL     1     -41.643  13.391 -19.209  1.00  0.00    -0.237 F
HETATM   22  C10 UNL     1     -40.834  14.155 -21.222  1.00  0.00     0.069 C
HETATM   23  C11 UNL     1     -39.496  14.007 -20.428  1.00  0.00     0.129 C
HETATM   24  N5  UNL     1     -39.655  14.942 -19.318  1.00  0.00    -0.352 N
HETATM   25  C12 UNL     1     -39.079  14.638 -18.074  1.00  0.00     0.224 C
HETATM   26  C17 UNL     1     -40.412  16.137 -19.547  1.00  0.00     0.129 C
HETATM   27  O1  UNL     1     -38.427  13.563 -17.882  1.00  0.00    -0.273 OA
HETATM   28  C18 UNL     1     -41.895  15.727 -19.617  1.00  0.00     0.069 C
BRANCH  25  29
HETATM   29  C13 UNL     1     -39.206  15.554 -16.937  1.00  0.00     0.078 C
HETATM   30  C14 UNL     1     -37.970  16.301 -16.502  1.00  0.00     0.014 C
HETATM   31  C15 UNL     1     -38.444  16.072 -15.052  1.00  0.00     0.002 C
HETATM   32  C16 UNL     1     -39.212  14.879 -15.579  1.00  0.00     0.014 C
ENDBRANCH  25  29
ENDBRANCH  19  20
ENDBRANCH  17  19
ENDBRANCH   1  17
TORSDOF 10
ENDMDL