MODEL 3
REMARK VINA RESULT: -6.993055857      3.540      5.173
REMARK  11 active torsions:
REMARK  status: ('A' for Active; 'I' for Inactive)
REMARK    1  A    between atoms: C2_2  and  N1_3
REMARK       I    between atoms: N1_3  and  C3_5
REMARK    2  A    between atoms: C3_5  and  O2_7
REMARK    3  A    between atoms: O2_7  and  C4_8
REMARK    4  A    between atoms: C4_8  and  C5_9
REMARK    5  A    between atoms: C6_11  and  C7_12
REMARK    6  A    between atoms: C8_13  and  C9_14
REMARK    7  A    between atoms: C10_16  and  C11_17
REMARK    8  A    between atoms: C11_17  and  C12_18
REMARK    9  A    between atoms: C13_20  and  C14_21
REMARK   10  A    between atoms: C16_23  and  O5_24
REMARK   11  A    between atoms: C17_26  and  O6_27
ROOT
HETATM    1  C5  UNL     1     -40.716  13.029 -18.243  1.00  0.00     0.178 C
HETATM    2  O3  UNL     1     -42.058  12.907 -18.601  1.00  0.00    -0.369 OA
HETATM    3  C6  UNL     1     -42.107  13.266 -19.921  1.00  0.00     0.176 C
HETATM    4  C16 UNL     1     -40.772  12.905 -20.553  1.00  0.00     0.182 C
HETATM    5  C17 UNL     1     -40.066  12.244 -19.387  1.00  0.00     0.180 C
ENDROOT
BRANCH   3   6
HETATM    6  C7  UNL     1     -42.438  14.691 -20.091  1.00  0.00     0.006 C
HETATM    7  C8  UNL     1     -43.556  15.052 -20.677  1.00  0.00     0.004 C
BRANCH   7   8
HETATM    8  C9  UNL     1     -44.496  14.041 -21.172  1.00  0.00     0.151 A
HETATM    9  O4  UNL     1     -45.177  14.528 -22.267  1.00  0.00    -0.376 OA
HETATM   10  C10 UNL     1     -46.436  14.395 -21.620  1.00  0.00     0.130 A
HETATM   11  C13 UNL     1     -45.782  13.856 -20.416  1.00  0.00     0.047 A
BRANCH  10  12
HETATM   12  C11 UNL     1     -47.260  13.482 -22.484  1.00  0.00     0.043 C
BRANCH  12  13
HETATM   13  C12 UNL     1     -48.689  13.842 -22.659  1.00  0.00     0.088 C
HETATM   14 BR1  UNL     1     -49.014  15.652 -22.113  1.00  0.00    -0.096 Br
ENDBRANCH  12  13
ENDBRANCH  10  12
BRANCH  11  15
HETATM   15  C14 UNL     1     -45.872  14.647 -19.131  1.00  0.00     0.005 C
HETATM   16  C15 UNL     1     -46.798  13.990 -18.134  1.00  0.00     0.006 C
ENDBRANCH  11  15
ENDBRANCH   7   8
ENDBRANCH   3   6
BRANCH   4  17
HETATM   17  O5  UNL     1     -40.063  14.041 -20.928  1.00  0.00    -0.390 OA
ATOM     18  H5  UNL     1     -39.269  13.815 -21.399  1.00  0.00     0.210 HD
ENDBRANCH   4  17
BRANCH   1  19
HETATM   19  C4  UNL     1     -40.398  12.467 -16.914  1.00  0.00     0.215 C
BRANCH  19  20
HETATM   20  O2  UNL     1     -40.126  13.485 -15.992  1.00  0.00    -0.301 OA
BRANCH  20  21
HETATM   21  C3  UNL     1     -39.101  14.394 -16.023  1.00  0.00     0.360 C
HETATM   22  N1  UNL     1     -39.139  15.626 -15.274  1.00  0.00    -0.337 N
ATOM     23  H1  UNL     1     -39.959  15.828 -14.701  1.00  0.00     0.164 HD
HETATM   24  O1  UNL     1     -38.093  14.146 -16.729  1.00  0.00    -0.239 OA
BRANCH  22  25
HETATM   25  C2  UNL     1     -38.070  16.573 -15.306  1.00  0.00     0.120 C
HETATM   26  C1  UNL     1     -38.398  17.696 -16.267  1.00  0.00     0.026 C
ENDBRANCH  22  25
ENDBRANCH  20  21
ENDBRANCH  19  20
ENDBRANCH   1  19
BRANCH   5  27
HETATM   27  O6  UNL     1     -40.428  10.920 -19.360  1.00  0.00    -0.390 OA
ATOM     28  H6  UNL     1     -40.083  10.449 -20.110  1.00  0.00     0.210 HD
ENDBRANCH   5  27
TORSDOF 11
ENDMDL