MODEL 2
REMARK VINA RESULT: -6.127516325      2.539      3.716
REMARK  5 active torsions:
REMARK  status: ('A' for Active; 'I' for Inactive)
REMARK    1  A    between atoms: C2_2  and  C3_3
REMARK    2  A    between atoms: C3_3  and  C4_4
REMARK    3  A    between atoms: C4_4  and  O1_5
REMARK    4  A    between atoms: C8_11  and  O3_13
REMARK    5  A    between atoms: C13_18  and  O4_19
ROOT
HETATM    1  C3  UNL     1     -17.515  -3.157  29.123  1.00  0.00     0.108 C
HETATM    2  O2  UNL     1     -16.745  -4.222  28.724  1.00  0.00    -0.369 OA
HETATM    3  C5  UNL     1     -16.161  -4.780  29.855  1.00  0.00     0.140 C
HETATM    4  C6  UNL     1     -15.765  -3.555  30.651  1.00  0.00     0.050 C
HETATM    5  C7  UNL     1     -14.484  -3.140  29.996  1.00  0.00     0.048 C
HETATM    6  C8  UNL     1     -13.751  -4.470  29.873  1.00  0.00     0.064 C
HETATM    7  C9  UNL     1     -12.661  -4.413  28.840  1.00  0.00     0.046 C
HETATM    8  C10 UNL     1     -14.833  -5.436  29.553  1.00  0.00     0.010 C
HETATM    9  C11 UNL     1     -14.682  -6.633  30.502  1.00  0.00     0.020 C
HETATM   10  C12 UNL     1     -14.800  -5.976  28.162  1.00  0.00     0.020 C
HETATM   11  C13 UNL     1     -16.911  -2.625  30.405  1.00  0.00     0.161 C
ENDROOT
BRANCH   1  12
HETATM   12  C2  UNL     1     -17.505  -2.023  28.125  1.00  0.00     0.038 C
HETATM   13  C1  UNL     1     -18.246  -2.360  26.864  1.00  0.00     0.008 C
ENDBRANCH   1  12
BRANCH   1  14
HETATM   14  C4  UNL     1     -18.967  -3.537  29.362  1.00  0.00     0.204 C
BRANCH  14  15
HETATM   15  O1  UNL     1     -19.312  -3.512  30.704  1.00  0.00    -0.398 OA
ATOM     16  H1  UNL     1     -19.780  -2.722  30.947  1.00  0.00     0.209 HD
ENDBRANCH  14  15
ENDBRANCH   1  14
BRANCH  11  17
HETATM   17  O4  UNL     1     -16.571  -1.299  30.343  1.00  0.00    -0.392 OA
ATOM     18  H4  UNL     1     -15.656  -1.151  30.136  1.00  0.00     0.210 HD
ENDBRANCH  11  17
BRANCH   6  19
HETATM   19  O3  UNL     1     -13.172  -4.716  31.114  1.00  0.00    -0.389 OA
ATOM     20  H3  UNL     1     -12.325  -5.110  30.943  1.00  0.00     0.210 HD
ENDBRANCH   6  19
TORSDOF 5
ENDMDL