MODEL 5
REMARK VINA RESULT: -6.066104358      2.290      4.775
REMARK  5 active torsions:
REMARK  status: ('A' for Active; 'I' for Inactive)
REMARK    1  A    between atoms: C2_2  and  O1_3
REMARK    2  A    between atoms: C2_2  and  C3_5
REMARK    3  A    between atoms: C3_5  and  O2_6
REMARK    4  A    between atoms: C3_5  and  C4_8
REMARK    5  A    between atoms: C8_13  and  O4_14
ROOT
HETATM    1  C4  UNL     1     -14.323  -5.084  30.997  1.00  0.00     0.157 C
HETATM    2  O3  UNL     1     -13.513  -4.331  31.821  1.00  0.00    -0.377 OA
HETATM    3  C5  UNL     1     -14.132  -3.331  32.506  1.00  0.00     0.125 C
HETATM    4  C6  UNL     1     -14.778  -3.768  33.797  1.00  0.00     0.040 C
HETATM    5  C7  UNL     1     -15.084  -2.507  31.663  1.00  0.00     0.047 C
HETATM    6  C8  UNL     1     -14.270  -1.926  30.533  1.00  0.00     0.125 C
HETATM    7  C9  UNL     1     -14.194  -3.049  29.543  1.00  0.00     0.039 C
HETATM    8  C10 UNL     1     -15.071  -4.157  30.037  1.00  0.00     0.024 C
HETATM    9  C11 UNL     1     -16.054  -3.407  30.945  1.00  0.00    -0.003 C
HETATM   10  C12 UNL     1     -17.041  -2.612  30.155  1.00  0.00     0.011 C
ENDROOT
BRANCH   1  11
HETATM   11  C3  UNL     1     -13.471  -6.010  30.193  1.00  0.00     0.175 C
BRANCH  11  12
HETATM   12  C2  UNL     1     -13.833  -7.456  30.326  1.00  0.00     0.145 C
HETATM   13  C1  UNL     1     -13.755  -7.947  31.759  1.00  0.00     0.042 C
BRANCH  12  14
HETATM   14  O1  UNL     1     -12.837  -8.177  29.623  1.00  0.00    -0.393 OA
ATOM     15  H1  UNL     1     -13.050  -9.094  29.751  1.00  0.00     0.210 HD
ENDBRANCH  12  14
ENDBRANCH  11  12
BRANCH  11  16
HETATM   16  O2  UNL     1     -12.132  -5.885  30.629  1.00  0.00    -0.390 OA
ATOM     17  H2  UNL     1     -11.779  -5.110  30.209  1.00  0.00     0.210 HD
ENDBRANCH  11  16
ENDBRANCH   1  11
BRANCH   6  18
HETATM   18  O4  UNL     1     -14.792  -0.760  30.029  1.00  0.00    -0.395 OA
ATOM     19  H4  UNL     1     -14.134  -0.176  29.672  1.00  0.00     0.210 HD
ENDBRANCH   6  18
TORSDOF 5
ENDMDL