MODEL 2
REMARK VINA RESULT: -6.471990340      1.727      2.075
REMARK  4 active torsions:
REMARK  status: ('A' for Active; 'I' for Inactive)
REMARK    1  A    between atoms: C5_6  and  O2_7
REMARK    2  A    between atoms: C8_11  and  C10_13
REMARK    3  A    between atoms: C10_13  and  O3_14
REMARK    4  A    between atoms: C11_16  and  O4_18
ROOT
HETATM    1  C1  UNL     1     -13.684  -2.542  30.347  1.00  0.00     0.016 C
HETATM    2  C2  UNL     1     -14.895  -3.414  30.485  1.00  0.00    -0.034 C
HETATM    3  C3  UNL     1     -16.101  -2.584  30.864  1.00  0.00     0.042 C
HETATM    4  C4  UNL     1     -17.288  -3.283  30.245  1.00  0.00     0.134 C
HETATM    5  O1  UNL     1     -18.037  -2.523  29.360  1.00  0.00    -0.355 OA
HETATM    6  C5  UNL     1     -17.275  -2.966  28.306  1.00  0.00     0.264 C
HETATM    7  C6  UNL     1     -16.738  -4.119  29.125  1.00  0.00     0.075 C
HETATM    8  C7  UNL     1     -15.266  -4.122  29.197  1.00  0.00     0.018 C
HETATM    9  C8  UNL     1     -14.617  -5.462  29.265  1.00  0.00     0.013 C
HETATM   10  C9  UNL     1     -13.421  -5.444  28.303  1.00  0.00     0.021 C
HETATM   11  C11 UNL     1     -14.196  -5.709  30.678  1.00  0.00     0.065 C
HETATM   12  C12 UNL     1     -12.716  -5.988  30.759  1.00  0.00     0.047 C
HETATM   13  C13 UNL     1     -14.621  -4.523  31.469  1.00  0.00     0.048 C
ENDROOT
BRANCH   9  14
HETATM   14  C10 UNL     1     -15.502  -6.594  28.812  1.00  0.00     0.176 C
BRANCH  14  15
HETATM   15  O3  UNL     1     -15.449  -6.807  27.440  1.00  0.00    -0.400 OA
ATOM     16  H3  UNL     1     -15.514  -6.003  26.939  1.00  0.00     0.209 HD
ENDBRANCH  14  15
ENDBRANCH   9  14
BRANCH  11  17
HETATM   17  O4  UNL     1     -14.839  -6.841  31.226  1.00  0.00    -0.389 OA
ATOM     18  H4  UNL     1     -15.775  -6.826  31.068  1.00  0.00     0.210 HD
ENDBRANCH  11  17
BRANCH   6  19
HETATM   19  O2  UNL     1     -17.968  -3.363  27.165  1.00  0.00    -0.371 OA
ATOM     20  H2  UNL     1     -17.582  -3.122  26.331  1.00  0.00     0.212 HD
ENDBRANCH   6  19
TORSDOF 4
ENDMDL