MODEL 2
REMARK VINA RESULT: -5.766107413      2.127      3.429
REMARK  5 active torsions:
REMARK  status: ('A' for Active; 'I' for Inactive)
REMARK    1  A    between atoms: C2_2  and  C3_3
REMARK    2  A    between atoms: C5_5  and  O1_6
REMARK    3  A    between atoms: C7_9  and  O2_10
REMARK    4  A    between atoms: C8_12  and  O3_13
REMARK    5  A    between atoms: C9_15  and  O4_16
ROOT
HETATM    1  C3  UNL     1     -13.984  -4.547  31.587  1.00  0.00    -0.000 C
HETATM    2  C4  UNL     1     -15.305  -5.106  31.000  1.00  0.00     0.053 C
HETATM    3  C5  UNL     1     -14.735  -5.923  29.861  1.00  0.00     0.088 C
HETATM    4  C6  UNL     1     -13.839  -7.038  30.289  1.00  0.00     0.075 C
HETATM    5  C7  UNL     1     -13.420  -7.000  31.711  1.00  0.00     0.150 C
HETATM    6  C8  UNL     1     -13.417  -5.666  32.372  1.00  0.00     0.156 C
HETATM    7  C9  UNL     1     -13.851  -4.899  29.175  1.00  0.00     0.163 C
HETATM    8  C11 UNL     1     -13.302  -4.119  30.355  1.00  0.00    -0.008 C
HETATM    9  C12 UNL     1     -13.606  -2.656  29.996  1.00  0.00     0.018 C
HETATM   10  C13 UNL     1     -11.796  -4.217  30.335  1.00  0.00     0.018 C
ENDROOT
BRANCH   1  11
HETATM   11  C2  UNL     1     -14.392  -3.387  32.470  1.00  0.00     0.009 C
HETATM   12  C1  UNL     1     -14.854  -3.735  33.835  1.00  0.00     0.006 C
ENDBRANCH   1  11
BRANCH   6  13
HETATM   13  O3  UNL     1     -12.177  -5.443  32.947  1.00  0.00    -0.392 OA
ATOM     14  H3  UNL     1     -12.177  -5.229  33.872  1.00  0.00     0.210 HD
ENDBRANCH   6  13
BRANCH   3  15
HETATM   15  O1  UNL     1     -15.748  -6.361  28.997  1.00  0.00    -0.387 OA
ATOM     16  H1  UNL     1     -15.505  -6.226  28.088  1.00  0.00     0.210 HD
ENDBRANCH   3  15
BRANCH   5  17
HETATM   17  O2  UNL     1     -14.214  -7.948  32.404  1.00  0.00    -0.393 OA
ATOM     18  H2  UNL     1     -15.048  -7.997  31.950  1.00  0.00     0.210 HD
ENDBRANCH   5  17
BRANCH   7  19
HETATM   19  O4  UNL     1     -12.840  -5.466  28.445  1.00  0.00    -0.387 OA
HETATM   20  C10 UNL     1     -13.167  -5.610  27.102  1.00  0.00     0.202 C
ENDBRANCH   7  19
TORSDOF 5
ENDMDL