MODEL 4
REMARK VINA RESULT: -6.242378144      2.022      4.462
REMARK  5 active torsions:
REMARK  status: ('A' for Active; 'I' for Inactive)
REMARK    1  A    between atoms: C2_2  and  C4_5
REMARK    2  A    between atoms: C4_5  and  O1_6
REMARK    3  A    between atoms: C4_5  and  N2_8
REMARK    4  A    between atoms: C7_11  and  O2_12
REMARK    5  A    between atoms: C9_15  and  C10_16
ROOT
HETATM    1  C1  UNL     1     -13.243  -7.145  30.122  1.00  0.00     0.030 C
HETATM    2  C2  UNL     1     -13.564  -5.739  29.624  1.00  0.00     0.137 C
HETATM    3  C3  UNL     1     -13.303  -5.731  28.194  1.00  0.00     0.068 C
HETATM    4  N1  UNL     1     -13.102  -5.717  27.061  1.00  0.00    -0.197 NA
ENDROOT
BRANCH   2   5
HETATM    5  C4  UNL     1     -15.047  -5.420  29.883  1.00  0.00     0.233 C
BRANCH   5   6
HETATM    6  O1  UNL     1     -15.578  -6.730  30.049  1.00  0.00    -0.376 OA
ATOM      7  H1  UNL     1     -16.332  -6.691  29.472  1.00  0.00     0.212 HD
ENDBRANCH   5   6
BRANCH   5   8
HETATM    8  N2  UNL     1     -15.261  -4.530  30.928  1.00  0.00    -0.381 N
HETATM    9  C5  UNL     1     -16.508  -3.849  30.827  1.00  0.00     0.122 C
HETATM   10  C6  UNL     1     -16.434  -2.642  29.966  1.00  0.00     0.051 C
HETATM   11  C7  UNL     1     -15.396  -1.701  30.498  1.00  0.00     0.121 C
HETATM   12  C8  UNL     1     -14.697  -2.271  31.677  1.00  0.00     0.057 C
HETATM   13  C9  UNL     1     -14.310  -3.731  31.539  1.00  0.00     0.091 C
BRANCH  11  14
HETATM   14  O2  UNL     1     -14.512  -1.259  29.506  1.00  0.00    -0.395 OA
ATOM     15  H2  UNL     1     -14.928  -0.676  28.881  1.00  0.00     0.210 HD
ENDBRANCH  11  14
BRANCH  13  16
HETATM   16  C10 UNL     1     -13.790  -4.127  32.899  1.00  0.00    -0.031 C
HETATM   17  C11 UNL     1     -14.750  -3.627  34.004  1.00  0.00     0.016 C
HETATM   18  C12 UNL     1     -13.659  -5.587  33.151  1.00  0.00     0.016 C
HETATM   19  C13 UNL     1     -12.479  -3.450  33.239  1.00  0.00     0.016 C
ENDBRANCH  13  16
ENDBRANCH   5   8
ENDBRANCH   2   5
TORSDOF 5
ENDMDL