MODEL 1
REMARK VINA RESULT: -6.273223868      0.000      0.000
REMARK  4 active torsions:
REMARK  status: ('A' for Active; 'I' for Inactive)
REMARK    1  A    between atoms: S1_2  and  C2_3
REMARK    2  A    between atoms: C5_6  and  C6_7
REMARK    3  A    between atoms: C8_9  and  O1_10
REMARK    4  A    between atoms: C9_12  and  O2_13
ROOT
HETATM    1  C6  UNL     1     -17.270  -2.946  28.780  1.00  0.00     0.195 C
HETATM    2  C7  UNL     1     -18.344  -2.206  29.563  1.00  0.00     0.069 C
HETATM    3  C8  UNL     1     -19.530  -3.153  29.519  1.00  0.00     0.176 C
HETATM    4  C9  UNL     1     -19.213  -3.944  28.259  1.00  0.00     0.348 C
HETATM    5  N1  UNL     1     -17.800  -4.247  28.473  1.00  0.00    -0.042 N
ATOM      6  H11 UNL     1     -17.611  -4.970  29.168  1.00  0.00     0.280 HD
ATOM      7  H12 UNL     1     -17.339  -4.735  27.705  1.00  0.00     0.280 HD
ENDROOT
BRANCH   1   8
HETATM    8  C5  UNL     1     -16.039  -2.952  29.606  1.00  0.00     0.016 C
HETATM    9  C4  UNL     1     -15.423  -1.571  29.801  1.00  0.00     0.008 C
HETATM   10  C3  UNL     1     -13.976  -1.863  30.129  1.00  0.00     0.015 C
HETATM   11  C2  UNL     1     -13.778  -2.816  31.247  1.00  0.00     0.047 C
HETATM   12  C11 UNL     1     -14.848  -3.800  31.523  1.00  0.00     0.015 C
HETATM   13  C10 UNL     1     -16.210  -3.474  31.005  1.00  0.00     0.008 C
BRANCH  11  14
HETATM   14  S1  UNL     1     -12.278  -3.788  30.861  1.00  0.00    -0.169 SA
HETATM   15  C1  UNL     1     -12.716  -5.489  30.471  1.00  0.00     0.090 C
ENDBRANCH  11  14
ENDBRANCH   1   8
BRANCH   3  16
HETATM   16  O1  UNL     1     -20.725  -2.463  29.412  1.00  0.00    -0.391 OA
ATOM     17  H1  UNL     1     -21.189  -2.692  28.615  1.00  0.00     0.210 HD
ENDBRANCH   3  16
BRANCH   4  18
HETATM   18  O2  UNL     1     -19.418  -3.199  27.111  1.00  0.00    -0.368 OA
ATOM     19  H2  UNL     1     -19.968  -3.653  26.483  1.00  0.00     0.212 HD
ENDBRANCH   4  18
TORSDOF 4
ENDMDL