MODEL 3
REMARK VINA RESULT: -5.878430069      2.463      4.558
REMARK  4 active torsions:
REMARK  status: ('A' for Active; 'I' for Inactive)
REMARK    1  A    between atoms: O1_2  and  C2_3
REMARK       I    between atoms: C2_3  and  N1_5
REMARK    2  A    between atoms: N1_5  and  C3_7
REMARK    3  A    between atoms: C10_14  and  O3_15
REMARK    4  A    between atoms: C12_18  and  O4_19
ROOT
HETATM    1  C3  UNL     1     -13.956  -4.375  30.234  1.00  0.00     0.099 C
HETATM    2  C4  UNL     1     -13.090  -3.138  30.343  1.00  0.00     0.038 C
HETATM    3  C5  UNL     1     -13.880  -2.014  29.769  1.00  0.00     0.013 C
HETATM    4  C6  UNL     1     -15.257  -1.833  30.255  1.00  0.00    -0.018 C
HETATM    5  C7  UNL     1     -16.081  -1.272  29.085  1.00  0.00     0.010 C
HETATM    6  C8  UNL     1     -15.976  -3.021  30.768  1.00  0.00     0.013 C
HETATM    7  C9  UNL     1     -15.119  -4.191  31.143  1.00  0.00     0.038 C
HETATM    8  C10 UNL     1     -14.686  -4.082  32.577  1.00  0.00     0.126 C
HETATM    9  C11 UNL     1     -13.704  -2.979  32.767  1.00  0.00     0.064 C
HETATM   10  C12 UNL     1     -12.617  -2.893  31.751  1.00  0.00     0.126 C
ENDROOT
BRANCH   1  11
HETATM   11  N1  UNL     1     -13.262  -5.600  30.373  1.00  0.00    -0.331 N
HETATM   12  C2  UNL     1     -13.566  -6.737  29.575  1.00  0.00     0.360 C
HETATM   13  O2  UNL     1     -14.494  -6.659  28.702  1.00  0.00    -0.239 OA
ATOM     14  H1  UNL     1     -12.518  -5.670  31.067  1.00  0.00     0.165 HD
BRANCH  12  15
HETATM   15  O1  UNL     1     -12.919  -7.942  29.676  1.00  0.00    -0.309 OA
HETATM   16  C1  UNL     1     -12.432  -8.421  30.925  1.00  0.00     0.215 C
ENDBRANCH  12  15
ENDBRANCH   1  11
BRANCH  10  17
HETATM   17  O4  UNL     1     -11.512  -3.674  32.080  1.00  0.00    -0.395 OA
ATOM     18  H4  UNL     1     -11.531  -3.961  32.986  1.00  0.00     0.210 HD
ENDBRANCH  10  17
BRANCH   8  19
HETATM   19  O3  UNL     1     -14.278  -5.314  33.080  1.00  0.00    -0.395 OA
ATOM     20  H3  UNL     1     -14.801  -5.573  33.829  1.00  0.00     0.210 HD
ENDBRANCH   8  19
TORSDOF 4
ENDMDL