MODEL 2
REMARK VINA RESULT: -6.551859879      3.686      5.990
REMARK  5 active torsions:
REMARK  status: ('A' for Active; 'I' for Inactive)
REMARK    1  A    between atoms: C2_2  and  N1_4
REMARK    2  A    between atoms: C2_2  and  C6_10
REMARK    3  A    between atoms: N1_4  and  C4_7
REMARK    4  A    between atoms: C8_12  and  O1_13
REMARK    5  A    between atoms: C10_16  and  O2_17
ROOT
HETATM    1  C4  UNL     1     -17.316  -2.440  30.183  1.00  0.00     0.356 C
HETATM    2  C5  UNL     1     -18.368  -3.084  29.382  1.00  0.00     0.086 C
HETATM    3  N2  UNL     1     -19.199  -3.596  28.737  1.00  0.00    -0.196 NA
ENDROOT
BRANCH   1   4
HETATM    4  N1  UNL     1     -16.061  -2.657  29.479  1.00  0.00    -0.055 N
ATOM      5  H12 UNL     1     -15.681  -1.786  29.108  1.00  0.00     0.279 HD
ATOM      6  H11 UNL     1     -16.203  -3.149  28.597  1.00  0.00     0.279 HD
BRANCH   4   7
HETATM    7  C2  UNL     1     -15.096  -3.348  30.336  1.00  0.00     0.123 C
HETATM    8  C1  UNL     1     -15.293  -2.844  31.718  1.00  0.00     0.046 C
HETATM    9  C3  UNL     1     -13.672  -2.958  29.920  1.00  0.00     0.046 C
BRANCH   7  10
HETATM   10  C6  UNL     1     -15.210  -4.793  30.108  1.00  0.00     0.028 C
HETATM   11  C7  UNL     1     -15.357  -5.178  28.640  1.00  0.00     0.039 C
HETATM   12  C8  UNL     1     -14.501  -6.451  28.461  1.00  0.00     0.125 C
HETATM   13  C9  UNL     1     -14.573  -6.949  29.819  1.00  0.00     0.048 C
HETATM   14  C10 UNL     1     -13.809  -8.015  30.363  1.00  0.00     0.125 C
HETATM   15  C13 UNL     1     -14.128  -5.682  30.584  1.00  0.00     0.001 C
HETATM   16  C11 UNL     1     -13.559  -7.600  31.796  1.00  0.00     0.032 C
HETATM   17  C12 UNL     1     -14.176  -6.201  31.961  1.00  0.00     0.008 C
BRANCH  12  18
HETATM   18  O1  UNL     1     -13.297  -6.024  27.983  1.00  0.00    -0.395 OA
ATOM     19  H1  UNL     1     -12.642  -6.387  28.569  1.00  0.00     0.210 HD
ENDBRANCH  12  18
BRANCH  14  20
HETATM   20  O2  UNL     1     -12.645  -8.408  29.718  1.00  0.00    -0.395 OA
ATOM     21  H2  UNL     1     -12.673  -9.147  29.121  1.00  0.00     0.210 HD
ENDBRANCH  14  20
ENDBRANCH   7  10
ENDBRANCH   4   7
ENDBRANCH   1   4
TORSDOF 5
ENDMDL