MODEL 3
REMARK VINA RESULT: -6.906577324      0.745      1.969
REMARK  3 active torsions:
REMARK  status: ('A' for Active; 'I' for Inactive)
REMARK    1  A    between atoms: N1_3  and  N2_5
REMARK       I    between atoms: N2_5  and  C3_7
REMARK       I    between atoms: C3_7  and  N4_12
REMARK    2  A    between atoms: N3_8  and  O1_10
REMARK    3  A    between atoms: N4_12  and  C4_14
ROOT
HETATM    1  N2  UNL     1     -17.907  -4.049  28.469  1.00  0.00    -0.131 N
ATOM      2  H2  UNL     1     -17.394  -4.666  27.838  1.00  0.00     0.205 HD
HETATM    3  C3  UNL     1     -17.224  -3.512  29.595  1.00  0.00     0.713 C
HETATM    4  N3  UNL     1     -17.938  -3.352  30.655  1.00  0.00    -0.098 N
ATOM      5  H3  UNL     1     -17.484  -2.968  31.484  1.00  0.00     0.213 HD
HETATM    6  N4  UNL     1     -15.849  -3.166  29.572  1.00  0.00    -0.214 N
ATOM      7  H4  UNL     1     -15.580  -2.326  29.060  1.00  0.00     0.178 HD
ENDROOT
BRANCH   1   8
HETATM    8  N1  UNL     1     -19.247  -3.773  28.185  1.00  0.00    -0.302 N
HETATM    9  C2  UNL     1     -19.596  -2.737  27.473  1.00  0.00     0.076 C
HETATM   10  C1  UNL     1     -20.990  -2.417  27.157  1.00  0.00     0.056 C
ATOM     11  H1  UNL     1     -19.970  -4.396  28.543  1.00  0.00     0.186 HD
ENDBRANCH   1   8
BRANCH   4  12
HETATM   12  O1  UNL     1     -19.252  -3.661  30.739  1.00  0.00    -0.276 OA
ATOM     13  H1  UNL     1     -19.599  -4.373  31.264  1.00  0.00     0.245 HD
ENDBRANCH   4  12
BRANCH   6  14
HETATM   14  C4  UNL     1     -14.818  -3.909  30.211  1.00  0.00     0.051 C
HETATM   15  C5  UNL     1     -15.244  -5.349  30.407  1.00  0.00     0.036 C
HETATM   16  C6  UNL     1     -14.356  -5.736  31.598  1.00  0.00    -0.011 C
HETATM   17  C7  UNL     1     -12.938  -5.696  31.125  1.00  0.00     0.009 C
HETATM   18  C11 UNL     1     -14.678  -4.566  32.531  1.00  0.00     0.012 C
HETATM   19  C8  UNL     1     -12.561  -4.359  30.555  1.00  0.00    -0.011 C
HETATM   20  C9  UNL     1     -12.908  -3.236  31.544  1.00  0.00     0.012 C
HETATM   21  C12 UNL     1     -13.528  -3.977  29.422  1.00  0.00     0.036 C
HETATM   22  C10 UNL     1     -14.435  -3.393  31.568  1.00  0.00     0.015 C
ENDBRANCH   6  14
TORSDOF 3
ENDMDL