MODEL 4
REMARK VINA RESULT: -5.951977298      1.905      3.021
REMARK  6 active torsions:
REMARK  status: ('A' for Active; 'I' for Inactive)
REMARK    1  A    between atoms: C2_2  and  C3_3
REMARK    2  A    between atoms: C2_2  and  C5_9
REMARK    3  A    between atoms: C3_3  and  O1_4
REMARK    4  A    between atoms: C3_3  and  C4_6
REMARK    5  A    between atoms: C4_6  and  O2_7
REMARK    6  A    between atoms: C7_12  and  O4_14
ROOT
HETATM    1  C5  UNL     1     -16.284  -4.073  30.166  1.00  0.00     0.139 C
HETATM    2  O3  UNL     1     -15.584  -4.911  29.261  1.00  0.00    -0.375 OA
HETATM    3  C6  UNL     1     -14.463  -4.172  29.536  1.00  0.00     0.166 C
HETATM    4  C7  UNL     1     -13.153  -4.890  29.548  1.00  0.00     0.081 C
HETATM    5  C8  UNL     1     -12.062  -3.855  29.766  1.00  0.00     0.049 C
HETATM    6  C9  UNL     1     -13.024  -5.941  30.592  1.00  0.00     0.040 C
HETATM    7  C10 UNL     1     -14.287  -6.198  31.361  1.00  0.00     0.004 C
HETATM    8  C11 UNL     1     -14.761  -4.886  31.928  1.00  0.00     0.014 C
HETATM    9  C12 UNL     1     -15.021  -3.850  30.871  1.00  0.00     0.012 C
HETATM   10  C13 UNL     1     -14.667  -2.486  31.353  1.00  0.00     0.020 C
ENDROOT
BRANCH   1  11
HETATM   11  C2  UNL     1     -16.926  -2.965  29.401  1.00  0.00     0.042 C
HETATM   12  C1  UNL     1     -18.037  -2.275  30.109  1.00  0.00     0.015 C
BRANCH  11  13
HETATM   13  C3  UNL     1     -17.508  -3.605  28.148  1.00  0.00     0.148 C
BRANCH  13  14
HETATM   14  O1  UNL     1     -18.526  -4.464  28.546  1.00  0.00    -0.393 OA
ATOM     15  H1  UNL     1     -19.353  -4.021  28.400  1.00  0.00     0.210 HD
ENDBRANCH  13  14
BRANCH  13  16
HETATM   16  C4  UNL     1     -18.080  -2.581  27.206  1.00  0.00     0.196 C
BRANCH  16  17
HETATM   17  O2  UNL     1     -19.223  -3.011  26.568  1.00  0.00    -0.398 OA
ATOM     18  H2  UNL     1     -19.563  -3.825  26.919  1.00  0.00     0.209 HD
ENDBRANCH  16  17
ENDBRANCH  13  16
ENDBRANCH  11  13
ENDBRANCH   1  11
BRANCH   4  19
HETATM   19  O4  UNL     1     -12.966  -5.434  28.264  1.00  0.00    -0.388 OA
ATOM     20  H4  UNL     1     -13.038  -4.718  27.643  1.00  0.00     0.210 HD
ENDBRANCH   4  19
TORSDOF 6
ENDMDL