MODEL 2
REMARK VINA RESULT: -8.687754102      3.327      9.738
REMARK  11 active torsions:
REMARK  status: ('A' for Active; 'I' for Inactive)
REMARK    1  A    between atoms: C4_5  and  C5_6
REMARK    2  A    between atoms: C5_6  and  C6_7
REMARK    3  A    between atoms: C6_7  and  C7_8
REMARK    4  A    between atoms: C7_8  and  C8_9
REMARK    5  A    between atoms: C8_9  and  N1_10
REMARK    6  A    between atoms: N1_10  and  C9_11
REMARK    7  A    between atoms: N1_10  and  S3_29
REMARK    8  A    between atoms: N2_17  and  C13_18
REMARK    9  A    between atoms: C13_18  and  C14_19
REMARK   10  A    between atoms: C21_33  and  C22_34
REMARK   11  A    between atoms: C22_34  and  C23_35
ROOT
HETATM    1  N1  UNL     1      21.449  26.761  15.160  1.00  0.00    -0.253 N
ENDROOT
BRANCH   1   2
HETATM    2  C8  UNL     1      21.132  25.396  14.847  1.00  0.00     0.143 C
BRANCH   2   3
HETATM    3  C7  UNL     1      20.080  24.743  15.655  1.00  0.00     0.021 C
BRANCH   3   4
HETATM    4  C6  UNL     1      18.668  24.849  15.194  1.00  0.00     0.004 C
BRANCH   4   5
HETATM    5  C5  UNL     1      17.719  25.323  16.240  1.00  0.00     0.036 C
BRANCH   5   6
HETATM    6  C4  UNL     1      16.692  24.354  16.538  1.00  0.00     0.145 C
HETATM    7  S1  UNL     1      16.698  22.867  15.407  1.00  0.00    -0.142 SA
HETATM    8  C3  UNL     1      15.503  21.948  16.486  1.00  0.00     0.100 C
HETATM    9  C2  UNL     1      15.492  22.861  17.718  1.00  0.00     0.090 C
HETATM   10  C1  UNL     1      15.124  22.159  18.973  1.00  0.00     0.033 C
HETATM   11  N4  UNL     1      16.715  23.579  17.721  1.00  0.00    -0.374 N
HETATM   12  C21 UNL     1      17.572  23.647  18.746  1.00  0.00     0.070 C
BRANCH  12  13
HETATM   13  C22 UNL     1      18.314  22.419  19.244  1.00  0.00     0.157 C
BRANCH  13  14
HETATM   14  C23 UNL     1      18.676  22.466  20.669  1.00  0.00     0.177 C
HETATM   15  O5  UNL     1      18.719  21.400  21.322  1.00  0.00    -0.648 OA
HETATM   16  O6  UNL     1      18.976  23.646  21.329  1.00  0.00    -0.648 OA
ENDBRANCH  13  14
ENDBRANCH  12  13
ENDBRANCH   5   6
ENDBRANCH   4   5
ENDBRANCH   3   4
ENDBRANCH   2   3
ENDBRANCH   1   2
BRANCH   1  17
HETATM   17  C9  UNL     1      22.561  27.150  15.996  1.00  0.00     0.114 A
HETATM   18  S2  UNL     1      23.930  28.093  15.642  1.00  0.00    -0.080 SA
HETATM   19  C10 UNL     1      24.706  28.043  17.159  1.00  0.00     0.071 A
HETATM   20  C11 UNL     1      23.856  27.273  17.915  1.00  0.00     0.068 A
HETATM   21  C12 UNL     1      24.071  26.937  19.269  1.00  0.00     0.264 A
HETATM   22  C20 UNL     1      22.756  26.813  17.320  1.00  0.00     0.087 A
HETATM   23  O1  UNL     1      25.099  27.352  19.876  1.00  0.00    -0.267 OA
HETATM   24  N2  UNL     1      23.224  26.182  19.977  1.00  0.00    -0.265 N
HETATM   25  C19 UNL     1      22.110  25.728  19.346  1.00  0.00     0.330 A
HETATM   26  O2  UNL     1      21.271  25.001  19.985  1.00  0.00    -0.246 OA
HETATM   27  N3  UNL     1      21.902  26.042  18.068  1.00  0.00    -0.305 N
ATOM     28  H3  UNL     1      21.058  25.688  17.618  1.00  0.00     0.171 HD
BRANCH  24  29
HETATM   29  C13 UNL     1      23.402  25.784  21.358  1.00  0.00     0.142 C
BRANCH  29  30
HETATM   30  C14 UNL     1      23.144  26.825  22.370  1.00  0.00     0.004 C
HETATM   31  C15 UNL     1      21.738  27.042  22.822  1.00  0.00     0.006 C
HETATM   32  C16 UNL     1      21.902  27.769  24.172  1.00  0.00     0.000 C
HETATM   33  C17 UNL     1      23.252  27.366  24.691  1.00  0.00     0.000 C
HETATM   34  C18 UNL     1      23.904  26.477  23.652  1.00  0.00     0.006 C
ENDBRANCH  29  30
ENDBRANCH  24  29
ENDBRANCH   1  17
BRANCH   1  35
HETATM   35  S3  UNL     1      20.544  28.087  14.477  1.00  0.00     0.361 S
HETATM   36  O3  UNL     1      21.296  28.569  13.274  1.00  0.00    -0.187 OA
HETATM   37  O4  UNL     1      20.355  29.185  15.487  1.00  0.00    -0.187 OA
ENDBRANCH   1  35
TORSDOF 11
ENDMDL