MODEL 3
REMARK VINA RESULT: -8.391975830      1.929      2.797
REMARK  13 active torsions:
REMARK  status: ('A' for Active; 'I' for Inactive)
REMARK    1  A    between atoms: N1_2  and  C3_4
REMARK    2  A    between atoms: C3_4  and  C4_6
REMARK    3  A    between atoms: C4_6  and  C5_7
REMARK       I    between atoms: C5_7  and  N2_9
REMARK    4  A    between atoms: C7_16  and  C8_17
REMARK    5  A    between atoms: C8_17  and  C9_18
REMARK    6  A    between atoms: C9_18  and  C10_19
REMARK    7  A    between atoms: C10_19  and  C11_20
REMARK    8  A    between atoms: C11_20  and  C12_21
REMARK       I    between atoms: N7_27  and  C14_29
REMARK    9  A    between atoms: C14_29  and  C15_31
REMARK   10  A    between atoms: C15_31  and  C16_32
REMARK   11  A    between atoms: C16_32  and  C17_33
REMARK   12  A    between atoms: C17_33  and  C18_34
REMARK   13  A    between atoms: C18_34  and  C19_35
ROOT
HETATM    1  C12 UNL     1      20.589  24.976  20.263  1.00  0.00     0.069 A
HETATM    2  N5  UNL     1      21.309  24.605  19.219  1.00  0.00    -0.296 N
ATOM      3  H5  UNL     1      21.157  23.686  18.802  1.00  0.00     0.187 HD
HETATM    4  N6  UNL     1      22.185  25.379  18.730  1.00  0.00    -0.279 N
ATOM      5  H6  UNL     1      22.735  25.083  17.924  1.00  0.00     0.189 HD
HETATM    6  C13 UNL     1      22.388  26.578  19.270  1.00  0.00     0.167 A
HETATM    7  N7  UNL     1      23.176  27.552  19.002  1.00  0.00    -0.306 N
ATOM      8  H7  UNL     1      23.111  28.374  19.603  1.00  0.00     0.171 HD
HETATM    9  C14 UNL     1      24.102  27.600  17.986  1.00  0.00     0.223 C
HETATM   10  O2  UNL     1      25.214  28.182  18.249  1.00  0.00    -0.273 OA
HETATM   11  S2  UNL     1      21.208  26.533  20.564  1.00  0.00    -0.038 SA
ENDROOT
BRANCH   1  12
HETATM   12  C11 UNL     1      19.507  24.206  20.979  1.00  0.00     0.066 C
BRANCH  12  13
HETATM   13  C10 UNL     1      18.184  24.767  20.596  1.00  0.00     0.007 C
BRANCH  13  14
HETATM   14  C9  UNL     1      17.470  23.988  19.529  1.00  0.00     0.007 C
BRANCH  14  15
HETATM   15  C8  UNL     1      17.229  22.557  19.895  1.00  0.00     0.066 C
BRANCH  15  16
HETATM   16  C7  UNL     1      16.033  22.017  19.153  1.00  0.00     0.069 A
HETATM   17  N4  UNL     1      14.891  22.623  18.869  1.00  0.00    -0.296 N
HETATM   18  N3  UNL     1      13.980  22.012  18.231  1.00  0.00    -0.279 N
ATOM     19  H4  UNL     1      14.742  23.587  19.165  1.00  0.00     0.187 HD
HETATM   20  C6  UNL     1      14.180  20.755  17.847  1.00  0.00     0.167 A
ATOM     21  H3  UNL     1      13.101  22.483  18.015  1.00  0.00     0.189 HD
HETATM   22  N2  UNL     1      13.420  19.942  17.201  1.00  0.00    -0.306 N
HETATM   23  S3  UNL     1      15.778  20.478  18.459  1.00  0.00    -0.038 SA
HETATM   24  C5  UNL     1      12.145  20.138  16.703  1.00  0.00     0.230 C
ATOM     25  H2  UNL     1      13.818  19.017  17.030  1.00  0.00     0.171 HD
HETATM   26  O1  UNL     1      11.191  19.531  17.246  1.00  0.00    -0.273 OA
BRANCH  24  27
HETATM   27  C4  UNL     1      11.854  21.028  15.559  1.00  0.00     0.172 C
BRANCH  27  28
HETATM   28  C3  UNL     1      12.965  21.131  14.603  1.00  0.00     0.083 C
HETATM   29  S1  UNL     1      13.153  19.986  13.444  1.00  0.00    -0.065 SA
BRANCH  28  30
HETATM   30  N1  UNL     1      13.885  22.194  14.648  1.00  0.00    -0.384 N
HETATM   31  C1  UNL     1      13.439  23.524  15.065  1.00  0.00     0.149 C
HETATM   32  C2  UNL     1      15.284  22.094  14.294  1.00  0.00     0.149 C
ENDBRANCH  28  30
ENDBRANCH  27  28
ENDBRANCH  24  27
ENDBRANCH  15  16
ENDBRANCH  14  15
ENDBRANCH  13  14
ENDBRANCH  12  13
ENDBRANCH   1  12
BRANCH   9  33
HETATM   33  C15 UNL     1      23.996  27.065  16.612  1.00  0.00     0.103 C
BRANCH  33  34
HETATM   34  C16 UNL     1      23.493  28.138  15.664  1.00  0.00     0.009 C
BRANCH  34  35
HETATM   35  C17 UNL     1      22.189  27.703  15.059  1.00  0.00     0.001 C
BRANCH  35  36
HETATM   36  C18 UNL     1      21.983  26.240  15.316  1.00  0.00     0.005 C
BRANCH  36  37
HETATM   37  C19 UNL     1      20.796  25.660  14.602  1.00  0.00    -0.011 C
HETATM   38  C20 UNL     1      20.094  24.578  15.352  1.00  0.00     0.032 C
HETATM   39  C21 UNL     1      19.262  25.112  16.494  1.00  0.00     0.232 C
HETATM   40  N8  UNL     1      18.447  26.229  16.089  1.00  0.00    -0.075 N
HETATM   41  C22 UNL     1      18.443  26.336  14.640  1.00  0.00     0.232 C
ATOM     42  H82 UNL     1      17.504  26.174  16.472  1.00  0.00     0.277 HD
ATOM     43  H81 UNL     1      18.738  27.098  16.536  1.00  0.00     0.277 HD
HETATM   44  C23 UNL     1      19.816  26.727  14.175  1.00  0.00     0.032 C
ENDBRANCH  36  37
ENDBRANCH  35  36
ENDBRANCH  34  35
ENDBRANCH  33  34
ENDBRANCH   9  33
TORSDOF 13
ENDMDL