MODEL 2
REMARK VINA RESULT: -8.624157624      3.511      9.239
REMARK  13 active torsions:
REMARK  status: ('A' for Active; 'I' for Inactive)
REMARK    1  A    between atoms: C2_2  and  C3_3
REMARK    2  A    between atoms: C3_3  and  N1_4
REMARK    3  A    between atoms: N1_4  and  C4_5
REMARK       I    between atoms: N1_4  and  C7_8
REMARK    4  A    between atoms: C4_5  and  C5_6
REMARK    5  A    between atoms: C7_8  and  C8_10
REMARK    6  A    between atoms: C8_10  and  N2_11
REMARK       I    between atoms: N2_11  and  C9_13
REMARK    7  A    between atoms: C9_13  and  C10_15
REMARK    8  A    between atoms: C10_15  and  N3_16
REMARK    9  A    between atoms: C11_17  and  S1_18
REMARK   10  A    between atoms: S1_18  and  C12_19
REMARK   11  A    between atoms: C12_19  and  C13_20
REMARK       I    between atoms: C13_20  and  N4_22
REMARK   12  A    between atoms: N4_22  and  C14_24
REMARK   13  A    between atoms: C17_34  and  C18_35
ROOT
HETATM    1  N3  UNL     1      15.705  21.970  17.189  1.00  0.00    -0.302 N
HETATM    2  C11 UNL     1      14.423  21.607  16.836  1.00  0.00     0.163 A
HETATM    3  N6  UNL     1      13.610  22.090  17.769  1.00  0.00    -0.278 N
ATOM      4  H6  UNL     1      12.595  21.983  17.779  1.00  0.00     0.189 HD
HETATM    5  N7  UNL     1      14.294  22.711  18.651  1.00  0.00    -0.283 N
ATOM      6  H7  UNL     1      13.913  23.177  19.474  1.00  0.00     0.188 HD
HETATM    7  C17 UNL     1      15.631  22.651  18.314  1.00  0.00     0.135 A
ENDROOT
BRANCH   1   8
HETATM    8  C10 UNL     1      16.800  21.649  16.323  1.00  0.00     0.235 C
BRANCH   8   9
HETATM    9  C9  UNL     1      17.406  22.859  15.708  1.00  0.00     0.236 C
HETATM   10  N2  UNL     1      18.693  23.256  16.126  1.00  0.00    -0.351 N
ATOM     11  H2  UNL     1      19.158  22.697  16.841  1.00  0.00     0.163 HD
HETATM   12  O2  UNL     1      16.785  23.500  14.848  1.00  0.00    -0.272 OA
BRANCH  10  13
HETATM   13  C8  UNL     1      19.395  24.408  15.602  1.00  0.00     0.225 C
BRANCH  13  14
HETATM   14  C7  UNL     1      19.993  25.266  16.646  1.00  0.00     0.238 C
HETATM   15  N1  UNL     1      20.115  26.669  16.579  1.00  0.00    -0.344 N
HETATM   16  O1  UNL     1      20.431  24.677  17.694  1.00  0.00    -0.272 OA
BRANCH  15  17
HETATM   17  C3  UNL     1      20.720  27.410  17.673  1.00  0.00     0.152 C
BRANCH  17  18
HETATM   18  C2  UNL     1      22.168  27.668  17.406  1.00  0.00    -0.017 C
HETATM   19  C1  UNL     1      23.084  27.034  18.117  1.00  0.00     0.008 C
ENDBRANCH  17  18
ENDBRANCH  15  17
BRANCH  15  20
HETATM   20  C4  UNL     1      19.661  27.420  15.449  1.00  0.00     0.152 C
BRANCH  20  21
HETATM   21  C5  UNL     1      20.581  27.418  14.290  1.00  0.00    -0.017 C
HETATM   22  C6  UNL     1      21.340  28.449  13.943  1.00  0.00     0.008 C
ENDBRANCH  20  21
ENDBRANCH  15  20
ENDBRANCH  13  14
ENDBRANCH  10  13
ENDBRANCH   8   9
ENDBRANCH   1   8
BRANCH   2  23
HETATM   23  S1  UNL     1      13.889  20.673  15.417  1.00  0.00    -0.083 SA
BRANCH  23  24
HETATM   24  C12 UNL     1      12.093  20.896  15.152  1.00  0.00     0.185 C
BRANCH  24  25
HETATM   25  C13 UNL     1      11.318  19.869  15.849  1.00  0.00     0.233 C
HETATM   26  O3  UNL     1      11.057  18.807  15.228  1.00  0.00    -0.272 OA
HETATM   27  N4  UNL     1      10.894  20.113  17.190  1.00  0.00    -0.306 N
ATOM     28  H4  UNL     1      10.443  20.982  17.474  1.00  0.00     0.171 HD
BRANCH  27  29
HETATM   29  C14 UNL     1      11.129  19.129  18.036  1.00  0.00     0.150 A
HETATM   30  N5  UNL     1      10.497  17.959  18.108  1.00  0.00    -0.346 N
HETATM   31  C15 UNL     1      10.865  17.100  19.012  1.00  0.00     0.097 A
ATOM     32  H5  UNL     1       9.736  17.740  17.465  1.00  0.00     0.167 HD
HETATM   33  C16 UNL     1      11.894  17.453  19.847  1.00  0.00     0.070 A
HETATM   34  S2  UNL     1      12.285  19.017  19.287  1.00  0.00    -0.064 SA
ENDBRANCH  27  29
ENDBRANCH  24  25
ENDBRANCH  23  24
ENDBRANCH   2  23
BRANCH   7  35
HETATM   35  C18 UNL     1      16.658  23.338  19.092  1.00  0.00     0.016 A
HETATM   36  C19 UNL     1      17.332  22.524  20.013  1.00  0.00     0.023 A
HETATM   37  C20 UNL     1      18.375  22.962  20.793  1.00  0.00    -0.055 A
HETATM   38  C21 UNL     1      19.078  22.076  21.764  1.00  0.00     0.049 C
HETATM   39  C22 UNL     1      18.756  24.276  20.640  1.00  0.00    -0.056 A
HETATM   40  C23 UNL     1      19.883  24.770  21.477  1.00  0.00     0.049 C
HETATM   41  C24 UNL     1      18.105  25.083  19.740  1.00  0.00     0.015 A
HETATM   42  C25 UNL     1      17.038  24.629  18.942  1.00  0.00    -0.048 A
HETATM   43  C26 UNL     1      16.459  25.579  17.932  1.00  0.00     0.049 C
ENDBRANCH   7  35
TORSDOF 13
ENDMDL