MODEL 3
REMARK VINA RESULT: -8.763528829      1.599      2.070
REMARK  12 active torsions:
REMARK  status: ('A' for Active; 'I' for Inactive)
REMARK    1  A    between atoms: C2_2  and  N1_3
REMARK    2  A    between atoms: N2_6  and  C5_7
REMARK    3  A    between atoms: C5_7  and  C6_8
REMARK    4  A    between atoms: C6_8  and  C7_9
REMARK    5  A    between atoms: C7_9  and  C8_10
REMARK    6  A    between atoms: C8_10  and  C9_11
REMARK    7  A    between atoms: C9_11  and  S1_12
REMARK    8  A    between atoms: S1_12  and  C10_13
REMARK    9  A    between atoms: C12_18  and  N5_19
REMARK       I    between atoms: N5_19  and  C13_21
REMARK   10  A    between atoms: C13_21  and  C14_23
REMARK   11  A    between atoms: N6_28  and  C18_29
REMARK   12  A    between atoms: C18_29  and  C19_30
ROOT
HETATM    1  C10 UNL     1      20.047  25.041  15.841  1.00  0.00     0.148 A
HETATM    2  N3  UNL     1      20.290  24.636  17.097  1.00  0.00    -0.323 N
ATOM      3  H3  UNL     1      21.199  24.860  17.503  1.00  0.00     0.169 HD
HETATM    4  C11 UNL     1      19.409  23.951  17.860  1.00  0.00     0.150 A
HETATM    5  N4  UNL     1      19.681  23.530  19.191  1.00  0.00    -0.080 NA
HETATM    6  C12 UNL     1      18.198  23.669  17.281  1.00  0.00     0.145 A
HETATM    7  C24 UNL     1      17.902  24.069  15.982  1.00  0.00     0.277 A
HETATM    8  O2  UNL     1      16.784  23.810  15.439  1.00  0.00    -0.266 OA
HETATM    9  N7  UNL     1      18.828  24.740  15.299  1.00  0.00    -0.302 N
ATOM     10  H7  UNL     1      18.622  25.037  14.345  1.00  0.00     0.171 HD
ENDROOT
BRANCH   6  11
HETATM   11  N5  UNL     1      17.201  22.944  17.989  1.00  0.00    -0.319 N
HETATM   12  C13 UNL     1      17.047  21.554  17.815  1.00  0.00     0.228 C
HETATM   13  O1  UNL     1      17.796  20.937  17.029  1.00  0.00    -0.273 OA
ATOM     14  H5  UNL     1      16.586  23.439  18.635  1.00  0.00     0.169 HD
BRANCH  12  15
HETATM   15  C14 UNL     1      15.982  20.847  18.578  1.00  0.00     0.096 C
HETATM   16  C15 UNL     1      14.742  21.723  18.666  1.00  0.00     0.022 C
HETATM   17  C16 UNL     1      14.051  21.769  17.291  1.00  0.00     0.070 C
HETATM   18  C17 UNL     1      13.503  20.401  17.121  1.00  0.00     0.075 C
HETATM   19  S2  UNL     1      12.155  20.036  16.292  1.00  0.00    -0.066 SA
HETATM   20  N6  UNL     1      14.254  19.347  17.778  1.00  0.00    -0.374 N
HETATM   21  C23 UNL     1      15.673  19.561  17.891  1.00  0.00     0.137 C
BRANCH  20  22
HETATM   22  C18 UNL     1      13.564  18.196  18.264  1.00  0.00     0.128 C
BRANCH  22  23
HETATM   23  C19 UNL     1      13.626  17.874  19.697  1.00  0.00     0.003 C
HETATM   24  C20 UNL     1      12.533  17.164  20.397  1.00  0.00     0.006 C
HETATM   25  C21 UNL     1      11.810  18.497  20.522  1.00  0.00     0.001 C
HETATM   26  C22 UNL     1      13.212  19.129  20.503  1.00  0.00     0.006 C
ENDBRANCH  22  23
ENDBRANCH  20  22
ENDBRANCH  12  15
ENDBRANCH   6  11
BRANCH   1  27
HETATM   27  S1  UNL     1      21.241  25.933  14.863  1.00  0.00    -0.094 SA
BRANCH  27  28
HETATM   28  C9  UNL     1      20.408  27.444  14.236  1.00  0.00     0.082 C
BRANCH  28  29
HETATM   29  C8  UNL     1      21.505  28.459  14.052  1.00  0.00     0.010 C
BRANCH  29  30
HETATM   30  C7  UNL     1      22.057  28.849  15.393  1.00  0.00     0.002 C
BRANCH  30  31
HETATM   31  C6  UNL     1      23.549  29.049  15.290  1.00  0.00     0.019 C
BRANCH  31  32
HETATM   32  C5  UNL     1      24.257  27.873  15.872  1.00  0.00     0.117 C
BRANCH  32  33
HETATM   33  N2  UNL     1      24.317  27.828  17.287  1.00  0.00    -0.409 N
HETATM   34  C4  UNL     1      23.742  26.636  17.855  1.00  0.00     0.147 C
HETATM   35  C3  UNL     1      24.340  26.241  19.152  1.00  0.00     0.291 C
HETATM   36  N1  UNL     1      25.766  25.988  18.942  1.00  0.00     0.091 N
HETATM   37  C26 UNL     1      26.340  27.255  18.641  1.00  0.00     0.291 C
HETATM   38  C25 UNL     1      25.520  28.243  17.913  1.00  0.00     0.147 C
BRANCH  36  39
HETATM   39  C2  UNL     1      25.993  24.935  18.017  1.00  0.00     0.268 C
HETATM   40  C1  UNL     1      25.968  23.595  18.687  1.00  0.00     0.037 C
ENDBRANCH  36  39
ENDBRANCH  32  33
ENDBRANCH  31  32
ENDBRANCH  30  31
ENDBRANCH  29  30
ENDBRANCH  28  29
ENDBRANCH  27  28
ENDBRANCH   1  27
TORSDOF 12
ENDMDL