MODEL 1
REMARK VINA RESULT: -8.465462051      0.000      0.000
REMARK  14 active torsions:
REMARK  status: ('A' for Active; 'I' for Inactive)
REMARK    1  A    between atoms: C7_8  and  N2_9
REMARK    2  A    between atoms: C9_13  and  C10_14
REMARK    3  A    between atoms: C10_14  and  C11_16
REMARK    4  A    between atoms: C13_18  and  C14_19
REMARK    5  A    between atoms: N3_22  and  C15_23
REMARK    6  A    between atoms: C15_23  and  C16_24
REMARK       I    between atoms: C16_24  and  N4_26
REMARK    7  A    between atoms: N4_26  and  C17_27
REMARK    8  A    between atoms: N4_26  and  C20_31
REMARK    9  A    between atoms: C17_27  and  C18_28
REMARK   10  A    between atoms: C18_28  and  O7_29
REMARK   11  A    between atoms: C20_31  and  N5_33
REMARK   12  A    between atoms: N5_33  and  C21_35
REMARK   13  A    between atoms: C21_35  and  C22_36
REMARK   14  A    between atoms: C22_36  and  C23_37
ROOT
HETATM    1  C1  UNL     1      14.864  21.351  14.105  1.00  0.00     0.018 C
HETATM    2  C2  UNL     1      14.499  20.952  15.192  1.00  0.00    -0.075 C
HETATM    3  C3  UNL     1      14.042  20.486  16.468  1.00  0.00     0.052 A
HETATM    4  C4  UNL     1      12.725  20.078  16.541  1.00  0.00     0.066 A
HETATM    5  C5  UNL     1      11.855  20.118  15.378  1.00  0.00     0.101 C
HETATM    6  N1  UNL     1      11.152  20.147  14.458  1.00  0.00    -0.191 NA
HETATM    7  C6  UNL     1      12.251  19.629  17.750  1.00  0.00     0.060 A
HETATM    8  C7  UNL     1      13.049  19.577  18.881  1.00  0.00     0.105 A
HETATM    9  C8  UNL     1      14.378  19.988  18.810  1.00  0.00     0.053 A
HETATM   10  C9  UNL     1      14.844  20.437  17.589  1.00  0.00     0.037 A
ENDROOT
BRANCH  10  11
HETATM   11  C10 UNL     1      16.223  20.857  17.489  1.00  0.00     0.196 C
HETATM   12  O3  UNL     1      17.039  20.119  16.856  1.00  0.00    -0.287 OA
BRANCH  11  13
HETATM   13  C11 UNL     1      16.766  22.086  18.067  1.00  0.00     0.040 A
HETATM   14  C12 UNL     1      17.357  22.202  19.306  1.00  0.00     0.054 A
HETATM   15  C13 UNL     1      17.747  23.539  19.533  1.00  0.00     0.113 A
HETATM   16  N3  UNL     1      17.381  24.192  18.423  1.00  0.00    -0.336 N
HETATM   17  C25 UNL     1      16.795  23.357  17.533  1.00  0.00     0.023 A
HETATM   18  C26 UNL     1      16.270  23.742  16.203  1.00  0.00     0.069 C
BRANCH  15  19
HETATM   19  C14 UNL     1      18.393  24.014  20.741  1.00  0.00     0.227 C
HETATM   20  O4  UNL     1      18.124  25.127  21.216  1.00  0.00    -0.643 OA
HETATM   21  O5  UNL     1      19.330  23.230  21.388  1.00  0.00    -0.643 OA
ENDBRANCH  15  19
BRANCH  16  22
HETATM   22  C15 UNL     1      17.589  25.631  18.176  1.00  0.00     0.232 C
BRANCH  22  23
HETATM   23  C16 UNL     1      18.771  25.868  17.361  1.00  0.00     0.244 C
HETATM   24  O6  UNL     1      18.559  25.897  16.085  1.00  0.00    -0.271 OA
HETATM   25  N4  UNL     1      20.113  26.072  17.736  1.00  0.00    -0.291 N
BRANCH  25  26
HETATM   26  C17 UNL     1      21.108  26.298  16.640  1.00  0.00     0.160 C
BRANCH  26  27
HETATM   27  C18 UNL     1      21.593  27.708  16.632  1.00  0.00     0.187 C
BRANCH  27  28
HETATM   28  O7  UNL     1      20.689  28.605  16.097  1.00  0.00    -0.394 OA
HETATM   29  C19 UNL     1      20.600  28.445  14.726  1.00  0.00     0.201 C
ENDBRANCH  27  28
ENDBRANCH  26  27
ENDBRANCH  25  26
BRANCH  25  30
HETATM   30  C20 UNL     1      20.674  26.087  19.027  1.00  0.00     0.176 C
HETATM   31  S1  UNL     1      21.767  24.868  19.374  1.00  0.00    -0.041 SA
BRANCH  30  32
HETATM   32  N5  UNL     1      20.444  26.982  20.078  1.00  0.00    -0.367 N
ATOM     33  H5  UNL     1      19.495  27.149  20.414  1.00  0.00     0.161 HD
BRANCH  32  34
HETATM   34  C21 UNL     1      21.584  27.681  20.693  1.00  0.00     0.122 C
BRANCH  34  35
HETATM   35  C22 UNL     1      21.585  27.430  22.197  1.00  0.00     0.019 C
BRANCH  35  36
HETATM   36  C23 UNL     1      22.846  26.699  22.600  1.00  0.00    -0.003 C
HETATM   37  C24 UNL     1      23.227  27.069  24.001  1.00  0.00     0.005 C
ENDBRANCH  35  36
ENDBRANCH  34  35
ENDBRANCH  32  34
ENDBRANCH  30  32
ENDBRANCH  25  30
ENDBRANCH  22  23
ENDBRANCH  16  22
ENDBRANCH  11  13
ENDBRANCH  10  11
BRANCH   8  38
HETATM   38  N2  UNL     1      12.534  19.110  20.117  1.00  0.00    -0.116 N
HETATM   39  O1  UNL     1      13.297  19.037  21.094  1.00  0.00    -0.532 OA
HETATM   40  O2  UNL     1      11.228  18.733  20.283  1.00  0.00    -0.532 OA
ENDBRANCH   8  38
TORSDOF 14
ENDMDL