MODEL 5
REMARK VINA RESULT: -8.707540225      1.174      1.605
REMARK  16 active torsions:
REMARK  status: ('A' for Active; 'I' for Inactive)
REMARK    1  A    between atoms: C2_2  and  C3_3
REMARK    2  A    between atoms: C3_3  and  O1_4
REMARK    3  A    between atoms: C3_3  and  N1_6
REMARK    4  A    between atoms: C6_9  and  N2_10
REMARK    5  A    between atoms: C8_12  and  C9_13
REMARK    6  A    between atoms: C15_21  and  C16_22
REMARK    7  A    between atoms: C16_22  and  O4_23
REMARK    8  A    between atoms: C16_22  and  N3_25
REMARK    9  A    between atoms: N3_25  and  C17_27
REMARK   10  A    between atoms: C17_27  and  C18_28
REMARK   11  A    between atoms: C18_28  and  C19_29
REMARK       I    between atoms: C19_29  and  N4_31
REMARK   12  A    between atoms: N4_31  and  C20_33
REMARK   13  A    between atoms: C20_33  and  C21_34
REMARK   14  A    between atoms: C21_34  and  N5_35
REMARK   15  A    between atoms: N5_35  and  C22_36
REMARK   16  A    between atoms: N5_35  and  C24_38
ROOT
HETATM    1  N2  UNL     1      18.392  24.384  16.812  1.00  0.00    -0.344 N
HETATM    2  C7  UNL     1      18.643  24.511  18.136  1.00  0.00     0.111 A
HETATM    3  C8  UNL     1      17.925  23.756  19.031  1.00  0.00     0.076 A
HETATM    4  C11 UNL     1      16.964  22.883  18.585  1.00  0.00     0.200 A
HETATM    5  O3  UNL     1      16.369  22.246  19.492  1.00  0.00    -0.286 OA
HETATM    6  C12 UNL     1      16.672  22.718  17.217  1.00  0.00     0.056 A
HETATM    7  C13 UNL     1      15.766  21.917  16.610  1.00  0.00    -0.024 A
HETATM    8  C14 UNL     1      14.853  20.949  17.350  1.00  0.00     0.050 C
HETATM    9  C15 UNL     1      15.687  21.962  15.252  1.00  0.00     0.064 A
HETATM   10  S1  UNL     1      16.907  23.149  14.862  1.00  0.00    -0.067 SA
HETATM   11  C26 UNL     1      17.438  23.512  16.414  1.00  0.00     0.092 A
ENDROOT
BRANCH   9  12
HETATM   12  C16 UNL     1      14.863  21.271  14.247  1.00  0.00     0.153 C
BRANCH  12  13
HETATM   13  O4  UNL     1      15.170  21.531  12.993  1.00  0.00    -0.345 OA
ATOM     14  H4  UNL     1      14.819  22.345  12.650  1.00  0.00     0.219 HD
ENDBRANCH  12  13
BRANCH  12  15
HETATM   15  N3  UNL     1      13.818  20.393  14.400  1.00  0.00    -0.369 N
ATOM     16  H3  UNL     1      13.519  20.137  15.341  1.00  0.00     0.161 HD
BRANCH  15  17
HETATM   17  C17 UNL     1      13.128  19.820  13.259  1.00  0.00     0.131 C
BRANCH  17  18
HETATM   18  C18 UNL     1      11.743  19.322  13.562  1.00  0.00     0.122 C
BRANCH  18  19
HETATM   19  C19 UNL     1      11.411  19.786  14.964  1.00  0.00     0.219 C
HETATM   20  O5  UNL     1      11.110  20.984  15.166  1.00  0.00    -0.274 OA
HETATM   21  N4  UNL     1      11.445  18.859  16.040  1.00  0.00    -0.359 N
ATOM     22  H4  UNL     1      11.695  17.896  15.813  1.00  0.00     0.162 HD
BRANCH  21  23
HETATM   23  C20 UNL     1      11.162  19.151  17.413  1.00  0.00     0.142 C
BRANCH  23  24
HETATM   24  C21 UNL     1      11.075  17.882  18.205  1.00  0.00     0.146 C
BRANCH  24  25
HETATM   25  N5  UNL     1      12.264  17.623  18.931  1.00  0.00    -0.373 N
BRANCH  25  26
HETATM   26  C22 UNL     1      12.211  17.597  20.336  1.00  0.00     0.058 C
HETATM   27  C23 UNL     1      12.670  18.843  21.035  1.00  0.00     0.055 C
ENDBRANCH  25  26
BRANCH  25  28
HETATM   28  C24 UNL     1      13.232  16.854  18.258  1.00  0.00     0.058 C
HETATM   29  C25 UNL     1      14.588  17.524  18.468  1.00  0.00     0.055 C
ENDBRANCH  25  28
ENDBRANCH  24  25
ENDBRANCH  23  24
ENDBRANCH  21  23
ENDBRANCH  18  19
ENDBRANCH  17  18
ENDBRANCH  15  17
ENDBRANCH  12  15
ENDBRANCH   9  12
BRANCH   1  30
HETATM   30  C6  UNL     1      19.158  25.185  15.930  1.00  0.00     0.093 C
HETATM   31  C5  UNL     1      18.263  25.940  14.933  1.00  0.00     0.045 C
HETATM   32  C4  UNL     1      19.182  26.668  13.941  1.00  0.00     0.127 C
HETATM   33  N1  UNL     1      20.394  26.962  14.652  1.00  0.00    -0.362 N
HETATM   34  C28 UNL     1      21.248  25.733  14.814  1.00  0.00     0.127 C
HETATM   35  C27 UNL     1      20.291  24.584  15.204  1.00  0.00     0.045 C
BRANCH  33  36
HETATM   36  C3  UNL     1      20.836  28.169  15.217  1.00  0.00     0.137 C
BRANCH  36  37
HETATM   37  C2  UNL     1      22.063  28.516  15.868  1.00  0.00     0.045 C
HETATM   38  C1  UNL     1      23.180  28.970  15.402  1.00  0.00     0.015 C
ENDBRANCH  36  37
BRANCH  36  39
HETATM   39  O1  UNL     1      19.987  29.175  15.145  1.00  0.00    -0.346 OA
ATOM     40  H1  UNL     1      19.243  29.075  15.726  1.00  0.00     0.219 HD
ENDBRANCH  36  39
ENDBRANCH  33  36
ENDBRANCH   1  30
BRANCH   3  41
HETATM   41  C9  UNL     1      18.192  23.888  20.485  1.00  0.00     0.161 C
HETATM   42  C10 UNL     1      18.973  22.793  21.161  1.00  0.00     0.097 C
HETATM   43  O2  UNL     1      17.766  24.887  21.086  1.00  0.00    -0.293 OA
ENDBRANCH   3  41
TORSDOF 16
ENDMDL