MODEL 2
REMARK VINA RESULT: -8.769824027      3.605      6.750
REMARK  14 active torsions:
REMARK  status: ('A' for Active; 'I' for Inactive)
REMARK    1  A    between atoms: C2_2  and  N1_3
REMARK    2  A    between atoms: N1_3  and  C3_4
REMARK    3  A    between atoms: C3_4  and  C4_5
REMARK    4  A    between atoms: C4_5  and  C5_6
REMARK    5  A    between atoms: C5_6  and  C6_7
REMARK    6  A    between atoms: C6_7  and  C7_8
REMARK    7  A    between atoms: C7_8  and  N2_9
REMARK    8  A    between atoms: C9_14  and  S1_15
REMARK    9  A    between atoms: S1_15  and  C10_16
REMARK   10  A    between atoms: C10_16  and  C11_17
REMARK   11  A    between atoms: C11_17  and  O2_18
REMARK   12  A    between atoms: C11_17  and  C12_20
REMARK   13  A    between atoms: C12_20  and  N4_21
REMARK   14  A    between atoms: N5_24  and  C15_25
ROOT
HETATM    1  N2  UNL     1      18.216  23.340  20.196  1.00  0.00    -0.251 N
HETATM    2  C8  UNL     1      18.201  24.641  20.636  1.00  0.00     0.332 A
HETATM    3  O1  UNL     1      17.122  25.167  21.005  1.00  0.00    -0.246 OA
HETATM    4  N3  UNL     1      19.301  25.396  20.694  1.00  0.00    -0.288 N
ATOM      5  H3  UNL     1      19.237  26.358  21.028  1.00  0.00     0.172 HD
HETATM    6  C9  UNL     1      20.490  24.903  20.316  1.00  0.00     0.152 A
HETATM    7  N6  UNL     1      20.519  23.634  19.885  1.00  0.00    -0.288 N
ATOM      8  H6  UNL     1      21.410  23.235  19.591  1.00  0.00     0.172 HD
HETATM    9  C25 UNL     1      19.389  22.853  19.825  1.00  0.00     0.332 A
HETATM   10  O3  UNL     1      19.519  21.678  19.411  1.00  0.00    -0.246 OA
ENDROOT
BRANCH   6  11
HETATM   11  S1  UNL     1      21.980  25.889  20.381  1.00  0.00    -0.091 SA
BRANCH  11  12
HETATM   12  C10 UNL     1      22.334  26.652  18.749  1.00  0.00     0.115 C
BRANCH  12  13
HETATM   13  C11 UNL     1      20.961  26.789  18.075  1.00  0.00     0.145 C
BRANCH  13  14
HETATM   14  O2  UNL     1      20.479  28.027  18.493  1.00  0.00    -0.393 OA
ATOM     15  H2  UNL     1      20.310  28.506  17.690  1.00  0.00     0.210 HD
ENDBRANCH  13  14
BRANCH  13  16
HETATM   16  C12 UNL     1      21.085  26.799  16.570  1.00  0.00     0.149 C
BRANCH  16  17
HETATM   17  N4  UNL     1      20.141  25.905  16.005  1.00  0.00    -0.407 N
HETATM   18  C13 UNL     1      19.850  24.748  16.796  1.00  0.00     0.136 C
HETATM   19  C14 UNL     1      19.086  23.703  16.062  1.00  0.00     0.142 C
HETATM   20  N5  UNL     1      17.895  24.283  15.503  1.00  0.00    -0.377 N
HETATM   21  C23 UNL     1      18.015  25.550  14.827  1.00  0.00     0.142 C
HETATM   22  C24 UNL     1      19.004  26.498  15.381  1.00  0.00     0.136 C
BRANCH  20  23
HETATM   23  C15 UNL     1      16.601  23.690  15.552  1.00  0.00     0.036 A
HETATM   24  C16 UNL     1      16.268  22.751  14.564  1.00  0.00     0.036 A
HETATM   25  C17 UNL     1      15.044  22.134  14.554  1.00  0.00    -0.060 A
HETATM   26  C18 UNL     1      14.742  21.154  13.493  1.00  0.00     0.048 C
HETATM   27  C19 UNL     1      14.151  22.469  15.548  1.00  0.00     0.007 A
HETATM   28  C20 UNL     1      14.473  23.389  16.520  1.00  0.00     0.009 A
HETATM   29  C21 UNL     1      15.723  24.024  16.538  1.00  0.00    -0.035 A
HETATM   30  C22 UNL     1      16.019  25.003  17.591  1.00  0.00     0.050 C
ENDBRANCH  20  23
ENDBRANCH  16  17
ENDBRANCH  13  16
ENDBRANCH  12  13
ENDBRANCH  11  12
ENDBRANCH   6  11
BRANCH   1  31
HETATM   31  C7  UNL     1      16.935  22.673  20.236  1.00  0.00     0.139 C
BRANCH  31  32
HETATM   32  C6  UNL     1      16.685  21.732  19.112  1.00  0.00     0.020 C
BRANCH  32  33
HETATM   33  C5  UNL     1      15.388  21.006  19.103  1.00  0.00     0.003 C
BRANCH  33  34
HETATM   34  C4  UNL     1      15.221  19.982  18.005  1.00  0.00     0.028 C
BRANCH  34  35
HETATM   35  C3  UNL     1      14.566  18.739  18.570  1.00  0.00     0.237 C
BRANCH  35  36
HETATM   36  N1  UNL     1      13.147  18.684  18.421  1.00  0.00    -0.067 N
HETATM   37  C26 UNL     1      12.545  19.431  19.529  1.00  0.00     0.237 C
HETATM   38  C27 UNL     1      12.527  18.414  20.667  1.00  0.00     0.029 C
HETATM   39  C28 UNL     1      12.263  17.107  19.942  1.00  0.00     0.029 C
HETATM   40  C29 UNL     1      12.601  17.363  18.495  1.00  0.00     0.237 C
BRANCH  36  41
HETATM   41  C2  UNL     1      12.761  19.355  17.179  1.00  0.00     0.233 C
HETATM   42  C1  UNL     1      11.329  19.800  17.188  1.00  0.00     0.035 C
ENDBRANCH  36  41
ENDBRANCH  35  36
ENDBRANCH  34  35
ENDBRANCH  33  34
ENDBRANCH  32  33
ENDBRANCH  31  32
ENDBRANCH   1  31
TORSDOF 14
ENDMDL