MODEL 2
REMARK VINA RESULT: -8.226199756      1.689      2.488
REMARK  12 active torsions:
REMARK  status: ('A' for Active; 'I' for Inactive)
REMARK    1  A    between atoms: S1_2  and  C2_3
REMARK    2  A    between atoms: C2_3  and  C3_4
REMARK    3  A    between atoms: C2_3  and  N5_32
REMARK    4  A    between atoms: C3_4  and  C4_5
REMARK    5  A    between atoms: C4_5  and  S2_6
REMARK    6  A    between atoms: S2_6  and  C5_7
REMARK    7  A    between atoms: C5_7  and  C6_8
REMARK    8  A    between atoms: C6_8  and  C7_9
REMARK    9  A    between atoms: C10_14  and  C11_15
REMARK   10  A    between atoms: C13_17  and  S3_18
REMARK   11  A    between atoms: S3_18  and  N2_21
REMARK   12  A    between atoms: N5_32  and  S4_34
ROOT
HETATM    1  C7  UNL     1      17.393  23.468  16.714  1.00  0.00     0.035 A
HETATM    2  C8  UNL     1      16.558  24.316  16.037  1.00  0.00     0.029 A
HETATM    3  C9  UNL     1      16.773  25.743  15.649  1.00  0.00     0.070 C
HETATM    4  N1  UNL     1      15.457  23.607  15.767  1.00  0.00    -0.344 N
ATOM      5  H1  UNL     1      14.645  23.970  15.267  1.00  0.00     0.167 HD
HETATM    6  C10 UNL     1      15.559  22.333  16.248  1.00  0.00     0.120 A
HETATM    7  N4  UNL     1      16.758  22.262  16.829  1.00  0.00    -0.339 N
HETATM    8  C20 UNL     1      17.296  21.085  17.473  1.00  0.00     0.158 C
ENDROOT
BRANCH   6   9
HETATM    9  C11 UNL     1      14.500  21.338  16.098  1.00  0.00     0.033 A
HETATM   10  C12 UNL     1      13.674  20.802  17.063  1.00  0.00     0.060 A
HETATM   11  C13 UNL     1      12.794  19.887  16.484  1.00  0.00     0.145 A
HETATM   12  N3  UNL     1      13.083  19.869  15.172  1.00  0.00    -0.349 N
HETATM   13  C18 UNL     1      14.095  20.726  14.929  1.00  0.00     0.020 A
ATOM     14  H3  UNL     1      12.612  19.298  14.471  1.00  0.00     0.166 HD
HETATM   15  C19 UNL     1      14.716  21.007  13.600  1.00  0.00     0.069 C
BRANCH  11  16
HETATM   16  S3  UNL     1      11.571  18.936  17.250  1.00  0.00     0.259 S
HETATM   17  O1  UNL     1      10.568  18.390  16.276  1.00  0.00    -0.204 OA
HETATM   18  O2  UNL     1      10.833  19.826  18.235  1.00  0.00    -0.204 OA
BRANCH  16  19
HETATM   19  N2  UNL     1      12.263  17.654  18.160  1.00  0.00    -0.205 NA
HETATM   20  C14 UNL     1      13.674  17.776  18.328  1.00  0.00     0.107 C
HETATM   21  C15 UNL     1      13.910  18.186  19.775  1.00  0.00     0.017 C
HETATM   22  C16 UNL     1      12.582  18.121  20.473  1.00  0.00     0.017 C
HETATM   23  C17 UNL     1      11.682  17.496  19.456  1.00  0.00     0.107 C
ENDBRANCH  16  19
ENDBRANCH  11  16
ENDBRANCH   6   9
BRANCH   1  24
HETATM   24  C6  UNL     1      18.742  23.774  17.212  1.00  0.00     0.069 C
BRANCH  24  25
HETATM   25  C5  UNL     1      18.691  24.688  18.437  1.00  0.00     0.080 C
BRANCH  25  26
HETATM   26  S2  UNL     1      19.753  24.034  19.716  1.00  0.00    -0.169 SA
BRANCH  26  27
HETATM   27  C4  UNL     1      20.889  25.251  20.421  1.00  0.00     0.076 C
BRANCH  27  28
HETATM   28  C3  UNL     1      22.270  25.148  19.761  1.00  0.00     0.047 C
BRANCH  28  29
HETATM   29  C2  UNL     1      22.499  26.342  18.849  1.00  0.00     0.154 C
BRANCH  29  30
HETATM   30  S1  UNL     1      24.301  26.697  18.792  1.00  0.00    -0.148 SA
HETATM   31  C1  UNL     1      24.941  26.302  17.151  1.00  0.00     0.092 C
ENDBRANCH  29  30
BRANCH  29  32
HETATM   32  N5  UNL     1      22.048  26.136  17.510  1.00  0.00    -0.306 N
ATOM     33  H5  UNL     1      22.249  25.314  16.941  1.00  0.00     0.173 HD
BRANCH  32  34
HETATM   34  S4  UNL     1      21.111  27.492  17.005  1.00  0.00     0.223 S
HETATM   35  C21 UNL     1      22.135  28.601  16.047  1.00  0.00     0.186 C
HETATM   36  O3  UNL     1      20.612  28.208  18.238  1.00  0.00    -0.206 OA
HETATM   37  O4  UNL     1      19.962  27.093  16.131  1.00  0.00    -0.206 OA
ENDBRANCH  32  34
ENDBRANCH  29  32
ENDBRANCH  28  29
ENDBRANCH  27  28
ENDBRANCH  26  27
ENDBRANCH  25  26
ENDBRANCH  24  25
ENDBRANCH   1  24
TORSDOF 12
ENDMDL