MODEL 3
REMARK VINA RESULT: -8.153713242      2.733      6.473
REMARK  13 active torsions:
REMARK  status: ('A' for Active; 'I' for Inactive)
REMARK    1  A    between atoms: C2_2  and  C3_3
REMARK    2  A    between atoms: C3_3  and  N1_4
REMARK       I    between atoms: N1_4  and  C4_6
REMARK    3  A    between atoms: C4_6  and  C5_8
REMARK    4  A    between atoms: C5_8  and  C6_9
REMARK    5  A    between atoms: C5_8  and  C23_37
REMARK    6  A    between atoms: C6_9  and  C7_10
REMARK       I    between atoms: C7_10  and  N2_12
REMARK    7  A    between atoms: C8_13  and  C9_14
REMARK       I    between atoms: C9_14  and  N3_16
REMARK    8  A    between atoms: N3_16  and  C10_18
REMARK    9  A    between atoms: C10_18  and  C11_19
REMARK       I    between atoms: N5_23  and  C13_24
REMARK   10  A    between atoms: C13_24  and  O5_26
REMARK   11  A    between atoms: O5_26  and  C14_27
REMARK   12  A    between atoms: C14_27  and  C15_28
REMARK   13  A    between atoms: C23_37  and  C24_38
ROOT
HETATM    1  C7  UNL     1      20.059  24.760  17.188  1.00  0.00     0.222 C
HETATM    2  O2  UNL     1      20.768  25.773  17.052  1.00  0.00    -0.273 OA
HETATM    3  N2  UNL     1      19.781  24.368  18.559  1.00  0.00    -0.320 N
HETATM    4  C8  UNL     1      18.983  23.219  18.864  1.00  0.00     0.194 C
HETATM    5  C18 UNL     1      19.398  22.638  20.187  1.00  0.00     0.078 C
HETATM    6  C19 UNL     1      18.449  21.712  20.827  1.00  0.00     0.024 C
HETATM    7  S1  UNL     1      19.524  24.236  21.097  1.00  0.00    -0.131 SA
HETATM    8  C20 UNL     1      20.285  25.116  19.680  1.00  0.00     0.078 C
HETATM    9  C21 UNL     1      20.045  26.572  19.682  1.00  0.00     0.050 C
HETATM   10  C22 UNL     1      21.791  24.909  19.854  1.00  0.00     0.050 C
ENDROOT
BRANCH   4  11
HETATM   11  C9  UNL     1      17.521  23.473  18.841  1.00  0.00     0.242 C
HETATM   12  O3  UNL     1      17.017  24.574  19.190  1.00  0.00    -0.271 OA
HETATM   13  N3  UNL     1      16.594  22.486  18.423  1.00  0.00    -0.355 N
ATOM     14  H3  UNL     1      16.962  21.578  18.138  1.00  0.00     0.162 HD
BRANCH  13  15
HETATM   15  C10 UNL     1      15.164  22.681  18.375  1.00  0.00     0.164 C
BRANCH  15  16
HETATM   16  C11 UNL     1      14.456  21.375  18.148  1.00  0.00    -0.006 A
HETATM   17  C12 UNL     1      14.994  20.111  18.281  1.00  0.00     0.118 A
HETATM   18  N4  UNL     1      14.024  19.234  17.988  1.00  0.00    -0.301 N
HETATM   19  N5  UNL     1      12.905  19.877  17.677  1.00  0.00    -0.210 N
ATOM     20  H4  UNL     1      14.129  18.219  18.003  1.00  0.00     0.186 HD
HETATM   21  C13 UNL     1      11.652  19.318  17.306  1.00  0.00     0.386 C
HETATM   22  C17 UNL     1      13.156  21.213  17.770  1.00  0.00     0.132 A
HETATM   23  O4  UNL     1      10.687  20.060  17.039  1.00  0.00    -0.236 OA
BRANCH  21  24
HETATM   24  O5  UNL     1      11.546  17.941  17.254  1.00  0.00    -0.299 OA
BRANCH  24  25
HETATM   25  C14 UNL     1      10.837  17.204  18.226  1.00  0.00     0.207 C
BRANCH  25  26
HETATM   26  C15 UNL     1      11.037  17.754  19.588  1.00  0.00    -0.011 C
HETATM   27  C16 UNL     1      12.007  17.264  20.354  1.00  0.00     0.009 C
ENDBRANCH  25  26
ENDBRANCH  24  25
ENDBRANCH  21  24
ENDBRANCH  15  16
ENDBRANCH  13  15
ENDBRANCH   4  11
BRANCH   1  28
HETATM   28  C6  UNL     1      19.550  24.030  16.035  1.00  0.00     0.117 C
BRANCH  28  29
HETATM   29  C5  UNL     1      18.569  24.742  15.147  1.00  0.00     0.087 C
BRANCH  29  30
HETATM   30  C4  UNL     1      17.255  24.149  15.243  1.00  0.00     0.222 C
HETATM   31  N1  UNL     1      16.767  22.961  14.662  1.00  0.00    -0.357 N
ATOM     32  H1  UNL     1      17.404  22.409  14.087  1.00  0.00     0.162 HD
HETATM   33  O1  UNL     1      16.405  24.795  15.960  1.00  0.00    -0.273 OA
BRANCH  31  34
HETATM   34  C3  UNL     1      15.420  22.481  14.835  1.00  0.00     0.149 C
BRANCH  34  35
HETATM   35  C2  UNL     1      14.979  21.534  13.790  1.00  0.00    -0.018 C
HETATM   36  C1  UNL     1      14.118  20.559  14.049  1.00  0.00     0.008 C
ENDBRANCH  34  35
ENDBRANCH  31  34
ENDBRANCH  29  30
BRANCH  29  37
HETATM   37  C23 UNL     1      18.632  26.202  15.490  1.00  0.00     0.019 C
BRANCH  37  38
HETATM   38  C24 UNL     1      19.138  27.073  14.376  1.00  0.00    -0.014 A
HETATM   39  C25 UNL     1      20.485  26.717  13.822  1.00  0.00     0.005 A
HETATM   40  C26 UNL     1      21.078  28.023  14.284  1.00  0.00     0.001 A
HETATM   41  C27 UNL     1      19.748  28.338  14.950  1.00  0.00     0.005 A
ENDBRANCH  37  38
ENDBRANCH  29  37
ENDBRANCH  28  29
ENDBRANCH   1  28
TORSDOF 13
ENDMDL