MODEL 1
REMARK VINA RESULT: -8.929175785      0.000      0.000
REMARK  14 active torsions:
REMARK  status: ('A' for Active; 'I' for Inactive)
REMARK    1  A    between atoms: C2_2  and  C3_3
REMARK    2  A    between atoms: C3_3  and  N1_4
REMARK       I    between atoms: N1_4  and  C4_6
REMARK    3  A    between atoms: C4_6  and  C5_8
REMARK    4  A    between atoms: C5_8  and  C6_9
REMARK    5  A    between atoms: C5_8  and  O2_16
REMARK    6  A    between atoms: C6_9  and  C7_10
REMARK    7  A    between atoms: C7_10  and  N2_11
REMARK    8  A    between atoms: O2_16  and  C12_17
REMARK       I    between atoms: C12_17  and  N3_19
REMARK    9  A    between atoms: C15_22  and  C16_23
REMARK   10  A    between atoms: C16_23  and  N4_24
REMARK       I    between atoms: N4_24  and  C17_26
REMARK   11  A    between atoms: C17_26  and  C18_28
REMARK   12  A    between atoms: C20_30  and  C21_31
REMARK   13  A    between atoms: N6_37  and  C25_38
REMARK   14  A    between atoms: C25_38  and  C26_39
ROOT
HETATM    1  C26 UNL     1      15.018  21.682  14.711  1.00  0.00     0.145 C
HETATM    2  C27 UNL     1      14.043  22.784  14.890  1.00  0.00     0.060 C
HETATM    3  N7  UNL     1      13.283  23.641  15.051  1.00  0.00    -0.197 NA
ENDROOT
BRANCH   1   4
HETATM    4  C25 UNL     1      15.978  21.617  15.854  1.00  0.00     0.163 C
BRANCH   4   5
HETATM    5  N6  UNL     1      15.360  21.121  17.060  1.00  0.00    -0.286 N
HETATM    6  C18 UNL     1      15.130  21.723  18.213  1.00  0.00     0.120 A
HETATM    7  C19 UNL     1      14.503  20.829  19.043  1.00  0.00     0.064 A
HETATM    8  C20 UNL     1      14.359  19.651  18.351  1.00  0.00     0.036 A
HETATM    9  N5  UNL     1      14.894  19.871  17.148  1.00  0.00    -0.301 N
ATOM     10  H5  UNL     1      14.940  19.180  16.398  1.00  0.00     0.187 HD
BRANCH   6  11
HETATM   11  C17 UNL     1      15.481  23.124  18.542  1.00  0.00     0.269 C
HETATM   12  N4  UNL     1      16.629  23.354  19.328  1.00  0.00    -0.355 N
ATOM     13  H4  UNL     1      17.123  22.522  19.651  1.00  0.00     0.162 HD
HETATM   14  O4  UNL     1      14.780  24.068  18.134  1.00  0.00    -0.266 OA
BRANCH  12  15
HETATM   15  C16 UNL     1      17.179  24.597  19.724  1.00  0.00     0.127 C
BRANCH  15  16
HETATM   16  C15 UNL     1      18.620  24.736  19.592  1.00  0.00     0.006 C
HETATM   17  C14 UNL     1      19.436  23.757  18.847  1.00  0.00     0.026 C
HETATM   18  C13 UNL     1      20.864  24.344  18.724  1.00  0.00     0.128 C
HETATM   19  N3  UNL     1      20.980  25.535  19.538  1.00  0.00    -0.328 N
HETATM   20  C12 UNL     1      21.491  26.741  18.971  1.00  0.00     0.363 C
HETATM   21  C29 UNL     1      20.578  25.471  20.937  1.00  0.00     0.128 C
HETATM   22  O3  UNL     1      21.527  27.773  19.689  1.00  0.00    -0.238 OA
HETATM   23  C28 UNL     1      19.189  24.899  21.032  1.00  0.00     0.026 C
BRANCH  20  24
HETATM   24  O2  UNL     1      21.953  26.859  17.683  1.00  0.00    -0.289 OA
BRANCH  24  25
HETATM   25  C5  UNL     1      21.681  28.050  16.905  1.00  0.00     0.227 C
BRANCH  25  26
HETATM   26  C4  UNL     1      20.602  27.794  15.956  1.00  0.00     0.247 C
HETATM   27  N1  UNL     1      20.076  26.547  15.620  1.00  0.00    -0.359 N
ATOM     28  H1  UNL     1      20.454  25.709  16.062  1.00  0.00     0.162 HD
HETATM   29  O1  UNL     1      20.092  28.809  15.374  1.00  0.00    -0.271 OA
BRANCH  27  30
HETATM   30  C3  UNL     1      19.010  26.421  14.663  1.00  0.00     0.122 C
BRANCH  30  31
HETATM   31  C2  UNL     1      18.068  25.281  14.955  1.00  0.00     0.015 C
HETATM   32  C1  UNL     1      17.110  25.563  16.082  1.00  0.00     0.006 C
ENDBRANCH  30  31
ENDBRANCH  27  30
ENDBRANCH  25  26
BRANCH  25  33
HETATM   33  C6  UNL     1      22.998  28.477  16.301  1.00  0.00     0.072 C
BRANCH  33  34
HETATM   34  C7  UNL     1      23.834  27.308  15.886  1.00  0.00     0.275 C
BRANCH  34  35
HETATM   35  N2  UNL     1      25.153  27.333  16.518  1.00  0.00     0.088 N
HETATM   36  C8  UNL     1      26.142  27.367  15.474  1.00  0.00     0.272 C
HETATM   37  C9  UNL     1      27.091  26.222  15.661  1.00  0.00     0.032 C
HETATM   38  C10 UNL     1      26.720  25.595  16.994  1.00  0.00     0.032 C
HETATM   39  C11 UNL     1      25.325  26.085  17.217  1.00  0.00     0.272 C
ENDBRANCH  34  35
ENDBRANCH  33  34
ENDBRANCH  25  33
ENDBRANCH  24  25
ENDBRANCH  20  24
ENDBRANCH  15  16
ENDBRANCH  12  15
ENDBRANCH   6  11
BRANCH   8  40
HETATM   40  C21 UNL     1      13.736  18.426  18.902  1.00  0.00    -0.007 C
HETATM   41  C22 UNL     1      13.585  18.485  20.411  1.00  0.00     0.021 C
HETATM   42  C23 UNL     1      12.355  18.322  18.282  1.00  0.00     0.021 C
HETATM   43  C24 UNL     1      14.601  17.242  18.500  1.00  0.00     0.021 C
ENDBRANCH   8  40
ENDBRANCH   4   5
ENDBRANCH   1   4
TORSDOF 14
ENDMDL