MODEL 1
REMARK VINA RESULT: -6.375401317      0.000      0.000
REMARK  8 active torsions:
REMARK  status: ('A' for Active; 'I' for Inactive)
REMARK    1  A    between atoms: C3_3  and  C4_4
REMARK    2  A    between atoms: C4_4  and  C5_6
REMARK    3  A    between atoms: N1_10  and  N2_11
REMARK    4  A    between atoms: C8_12  and  O2_13
REMARK    5  A    between atoms: C9_15  and  C10_16
REMARK       I    between atoms: C10_16  and  N3_18
REMARK    6  A    between atoms: N3_18  and  N4_20
REMARK    7  A    between atoms: N5_23  and  N6_24
REMARK    8  A    between atoms: C11_27  and  N7_28
ROOT
HETATM    1  C1  UNL     1      25.985  43.945   9.313  1.00  0.00     0.012 C
HETATM    2  C2  UNL     1      26.663  42.946   9.278  1.00  0.00    -0.110 C
HETATM    3  C3  UNL     1      27.487  41.727   9.281  1.00  0.00     0.174 C
ENDROOT
BRANCH   3   4
HETATM    4  C4  UNL     1      28.647  41.920   8.388  1.00  0.00     0.171 C
HETATM    5  O1  UNL     1      29.095  43.010   8.153  1.00  0.00    -0.294 OA
BRANCH   4   6
HETATM    6  C5  UNL     1      29.271  40.711   7.773  1.00  0.00     0.234 C
HETATM    7  S1  UNL     1      30.357  40.073   9.161  1.00  0.00    -0.133 SA
HETATM    8  C6  UNL     1      31.753  41.206   8.692  1.00  0.00     0.098 C
HETATM    9  C7  UNL     1      31.624  41.017   7.201  1.00  0.00     0.156 C
HETATM   10  N1  UNL     1      30.262  41.022   6.784  1.00  0.00    -0.282 N
BRANCH  10  11
HETATM   11  N2  UNL     1      29.872  41.307   5.437  1.00  0.00    -0.060 N
HETATM   12  C8  UNL     1      29.726  40.423   4.435  1.00  0.00     0.215 A
HETATM   13  C9  UNL     1      29.335  41.048   3.257  1.00  0.00     0.196 A
HETATM   14  N5  UNL     1      29.252  42.371   3.605  1.00  0.00    -0.082 N
HETATM   15  C11 UNL     1      29.573  42.501   4.900  1.00  0.00     0.721 A
BRANCH  12  16
HETATM   16  O2  UNL     1      29.927  39.031   4.507  1.00  0.00    -0.343 OA
ATOM     17  H2  UNL     1      29.803  38.403   3.804  1.00  0.00     0.219 HD
ENDBRANCH  12  16
BRANCH  13  18
HETATM   18  C10 UNL     1      29.068  40.486   1.954  1.00  0.00     0.293 C
HETATM   19  O3  UNL     1      29.725  40.952   0.959  1.00  0.00    -0.264 OA
HETATM   20  N3  UNL     1      28.150  39.466   1.661  1.00  0.00    -0.271 N
ATOM     21  H3  UNL     1      27.603  39.061   2.421  1.00  0.00     0.189 HD
BRANCH  20  22
HETATM   22  N4  UNL     1      27.958  38.981   0.345  1.00  0.00    -0.342 N
ATOM     23  H42 UNL     1      28.644  38.325  -0.028  1.00  0.00     0.176 HD
ATOM     24  H41 UNL     1      27.164  39.268  -0.228  1.00  0.00     0.176 HD
ENDBRANCH  20  22
ENDBRANCH  13  18
BRANCH  14  25
HETATM   25  N6  UNL     1      28.889  43.380   2.690  1.00  0.00    -0.323 N
ATOM     26  H62 UNL     1      27.965  43.586   2.311  1.00  0.00     0.178 HD
ATOM     27  H61 UNL     1      29.561  44.044   2.304  1.00  0.00     0.178 HD
ENDBRANCH  14  25
BRANCH  15  28
HETATM   28  N7  UNL     1      29.564  43.663   5.478  1.00  0.00    -0.231 N
ATOM     29  H72 UNL     1      30.423  44.202   5.589  1.00  0.00     0.174 HD
ATOM     30  H71 UNL     1      28.770  44.168   5.870  1.00  0.00     0.174 HD
ENDBRANCH  15  28
ENDBRANCH  10  11
ENDBRANCH   4   6
ENDBRANCH   3   4
TORSDOF 8
ENDMDL