MODEL 2
REMARK VINA RESULT: -6.346878414      0.829      1.039
REMARK  12 active torsions:
REMARK  status: ('A' for Active; 'I' for Inactive)
REMARK    1  A    between atoms: N2_3  and  C2_5
REMARK    2  A    between atoms: C2_5  and  N3_6
REMARK    3  A    between atoms: C3_7  and  C4_8
REMARK    4  A    between atoms: C4_8  and  N6_14
REMARK    5  A    between atoms: N4_9  and  N5_11
REMARK    6  A    between atoms: N6_14  and  N7_16
REMARK    7  A    between atoms: C6_22  and  N9_23
REMARK    8  A    between atoms: N9_23  and  C7_25
REMARK    9  A    between atoms: C7_25  and  C8_26
REMARK   10  A    between atoms: C8_26  and  O1_27
REMARK   11  A    between atoms: C8_26  and  C9_29
REMARK   12  A    between atoms: C9_29  and  O2_30
ROOT
HETATM    1  N1  UNL     1      32.490  36.892   9.985  1.00  0.00    -0.172 NA
HETATM    2  C1  UNL     1      32.340  38.039  10.055  1.00  0.00     0.182 C
HETATM    3  N2  UNL     1      32.157  39.429  10.138  1.00  0.00    -0.289 N
ATOM      4  H2  UNL     1      32.872  39.990  10.602  1.00  0.00     0.178 HD
ENDROOT
BRANCH   3   5
HETATM    5  C2  UNL     1      31.125  40.024   9.651  1.00  0.00     0.202 C
BRANCH   5   6
HETATM    6  N3  UNL     1      31.050  40.418   8.286  1.00  0.00    -0.273 N
HETATM    7  C3  UNL     1      31.405  41.614   7.783  1.00  0.00     0.163 A
HETATM    8  N8  UNL     1      31.159  41.527   6.451  1.00  0.00    -0.333 N
HETATM    9  C5  UNL     1      30.668  40.313   6.156  1.00  0.00     0.123 A
ATOM     10  H8  UNL     1      31.323  42.273   5.775  1.00  0.00     0.168 HD
HETATM   11  C6  UNL     1      30.248  39.677   4.985  1.00  0.00     0.133 A
HETATM   12  C11 UNL     1      30.593  39.594   7.316  1.00  0.00     0.146 A
HETATM   13  N10 UNL     1      29.792  38.423   5.002  1.00  0.00    -0.337 N
HETATM   14  C10 UNL     1      29.723  37.715   6.172  1.00  0.00     0.183 A
ATOM     15  H10 UNL     1      29.491  37.985   4.131  1.00  0.00     0.168 HD
HETATM   16  N11 UNL     1      30.128  38.333   7.291  1.00  0.00    -0.336 N
ATOM     17  H11 UNL     1      30.081  37.818   8.170  1.00  0.00     0.168 HD
BRANCH   7  18
HETATM   18  C4  UNL     1      31.942  42.770   8.490  1.00  0.00     0.179 C
HETATM   19  N4  UNL     1      31.167  43.533   9.186  1.00  0.00    -0.288 N
ATOM     20  H4  UNL     1      30.174  43.306   9.228  1.00  0.00     0.188 HD
BRANCH  19  21
HETATM   21  N5  UNL     1      31.619  44.648   9.880  1.00  0.00    -0.343 N
ATOM     22  H52 UNL     1      32.259  45.275   9.393  1.00  0.00     0.176 HD
ATOM     23  H51 UNL     1      31.343  44.860  10.839  1.00  0.00     0.176 HD
ENDBRANCH  19  21
BRANCH  18  24
HETATM   24  N6  UNL     1      33.327  43.083   8.429  1.00  0.00    -0.288 N
ATOM     25  H6  UNL     1      33.881  43.063   9.284  1.00  0.00     0.188 HD
BRANCH  24  26
HETATM   26  N7  UNL     1      33.944  43.417   7.223  1.00  0.00    -0.343 N
ATOM     27  H72 UNL     1      33.364  43.493   6.388  1.00  0.00     0.176 HD
ATOM     28  H71 UNL     1      34.949  43.584   7.169  1.00  0.00     0.176 HD
ENDBRANCH  24  26
ENDBRANCH  18  24
ENDBRANCH   7  18
BRANCH  11  29
HETATM   29  N9  UNL     1      30.311  40.330   3.897  1.00  0.00    -0.372 N
ATOM     30  H9  UNL     1      31.227  40.401   3.455  1.00  0.00     0.161 HD
BRANCH  29  31
HETATM   31  C7  UNL     1      29.228  40.972   3.235  1.00  0.00     0.155 C
BRANCH  31  32
HETATM   32  C8  UNL     1      29.623  42.411   2.969  1.00  0.00     0.159 C
BRANCH  32  33
HETATM   33  O1  UNL     1      30.714  42.797   3.708  1.00  0.00    -0.392 OA
ATOM     34  H1  UNL     1      30.995  43.680   3.500  1.00  0.00     0.210 HD
ENDBRANCH  32  33
BRANCH  32  35
HETATM   35  C9  UNL     1      29.842  42.712   1.523  1.00  0.00     0.197 C
BRANCH  35  36
HETATM   36  O2  UNL     1      29.786  41.498   0.823  1.00  0.00    -0.398 OA
ATOM     37  H2  UNL     1      30.287  41.604   0.023  1.00  0.00     0.209 HD
ENDBRANCH  35  36
ENDBRANCH  32  35
ENDBRANCH  31  32
ENDBRANCH  29  31
ENDBRANCH  11  29
ENDBRANCH   5   6
ENDBRANCH   3   5
TORSDOF 12
ENDMDL