MODEL 2
REMARK VINA RESULT: -7.434477187      1.167      1.583
REMARK  9 active torsions:
REMARK  status: ('A' for Active; 'I' for Inactive)
REMARK    1  A    between atoms: N1_1  and  N2_4
REMARK    2  A    between atoms: N2_4  and  C1_6
REMARK    3  A    between atoms: C1_6  and  O1_7
REMARK    4  A    between atoms: C1_6  and  C2_9
REMARK    5  A    between atoms: C2_9  and  N3_10
REMARK    6  A    between atoms: C2_9  and  C4_22
REMARK    7  A    between atoms: N3_10  and  N4_12
REMARK    8  A    between atoms: N4_12  and  C3_14
REMARK    9  A    between atoms: C5_25  and  C6_26
REMARK       I    between atoms: C6_26  and  N10_28
ROOT
HETATM    1  C2  UNL     1      30.575  40.995   5.555  1.00  0.00     0.129 C
ENDROOT
BRANCH   1   2
HETATM    2  C1  UNL     1      30.244  42.356   5.786  1.00  0.00     0.185 C
BRANCH   2   3
HETATM    3  N2  UNL     1      31.005  43.439   6.250  1.00  0.00    -0.285 N
ATOM      4  H2  UNL     1      30.626  44.382   6.171  1.00  0.00     0.188 HD
BRANCH   3   5
HETATM    5  N1  UNL     1      32.287  43.255   6.824  1.00  0.00    -0.343 N
ATOM      6  H12 UNL     1      33.083  43.712   6.380  1.00  0.00     0.176 HD
ATOM      7  H11 UNL     1      32.423  42.685   7.658  1.00  0.00     0.176 HD
ENDBRANCH   3   5
ENDBRANCH   2   3
BRANCH   2   8
HETATM    8  O1  UNL     1      29.007  42.712   5.531  1.00  0.00    -0.343 OA
ATOM      9  H1  UNL     1      28.972  43.547   5.079  1.00  0.00     0.219 HD
ENDBRANCH   2   8
ENDBRANCH   1   2
BRANCH   1  10
HETATM   10  N3  UNL     1      30.883  40.673   4.313  1.00  0.00    -0.280 N
ATOM     11  H3  UNL     1      31.524  39.888   4.195  1.00  0.00     0.188 HD
BRANCH  10  12
HETATM   12  N4  UNL     1      30.443  41.270   3.170  1.00  0.00    -0.129 N
ATOM     13  H4  UNL     1      30.823  42.186   2.927  1.00  0.00     0.205 HD
BRANCH  12  14
HETATM   14  C3  UNL     1      29.557  40.733   2.366  1.00  0.00     0.725 A
HETATM   15  N5  UNL     1      29.321  41.076   1.087  1.00  0.00    -0.112 N
HETATM   16  N6  UNL     1      28.353  40.299   0.625  1.00  0.00     0.009 NA
ATOM     17  H5  UNL     1      29.803  41.806   0.564  1.00  0.00     0.203 HD
HETATM   18  N7  UNL     1      27.958  39.463   1.569  1.00  0.00    -0.211 N
HETATM   19  N8  UNL     1      28.697  39.735   2.627  1.00  0.00    -0.117 N
ATOM     20  H7  UNL     1      27.229  38.753   1.495  1.00  0.00     0.206 HD
ATOM     21  H8  UNL     1      28.625  39.253   3.523  1.00  0.00     0.207 HD
ENDBRANCH  12  14
ENDBRANCH  10  12
ENDBRANCH   1  10
BRANCH   1  22
HETATM   22  C4  UNL     1      30.632  39.871   6.481  1.00  0.00     0.090 A
HETATM   23  N9  UNL     1      31.237  39.756   7.650  1.00  0.00    -0.348 N
HETATM   24  C5  UNL     1      31.042  38.516   8.209  1.00  0.00     0.109 A
ATOM     25  H9  UNL     1      31.783  40.499   8.086  1.00  0.00     0.166 HD
HETATM   26  C7  UNL     1      30.268  37.805   7.340  1.00  0.00     0.064 A
HETATM   27  C8  UNL     1      30.005  38.629   6.265  1.00  0.00     0.077 A
HETATM   28  N11 UNL     1      29.226  38.243   5.150  1.00  0.00    -0.100 NA
BRANCH  24  29
HETATM   29  C6  UNL     1      31.567  38.078   9.472  1.00  0.00     0.334 C
HETATM   30  O2  UNL     1      32.164  36.948   9.533  1.00  0.00    -0.259 OA
HETATM   31  N10 UNL     1      31.474  38.805  10.658  1.00  0.00    -0.071 N
HETATM   32  O3  UNL     1      31.974  38.330  11.740  1.00  0.00    -0.529 OA
HETATM   33  O4  UNL     1      30.860  40.028  10.732  1.00  0.00    -0.529 OA
ENDBRANCH  24  29
ENDBRANCH   1  22
TORSDOF 9
ENDMDL