MODEL 1
REMARK VINA RESULT: -7.082495315      0.000      0.000
REMARK  6 active torsions:
REMARK  status: ('A' for Active; 'I' for Inactive)
REMARK    1  A    between atoms: O1_2  and  N1_3
REMARK       I    between atoms: N1_3  and  C2_5
REMARK    2  A    between atoms: C2_5  and  C3_7
REMARK    3  A    between atoms: C3_7  and  C4_9
REMARK    4  A    between atoms: C6_19  and  N6_20
REMARK    5  A    between atoms: N6_20  and  N7_22
REMARK    6  A    between atoms: C8_26  and  C9_27
ROOT
HETATM    1  C4  UNL     1      29.980  42.500   2.599  1.00  0.00     0.122 A
HETATM    2  N2  UNL     1      30.433  43.053   3.761  1.00  0.00    -0.274 N
ATOM      3  H2  UNL     1      30.708  44.030   3.866  1.00  0.00     0.189 HD
HETATM    4  N3  UNL     1      30.468  42.165   4.726  1.00  0.00    -0.188 N
HETATM    5  N4  UNL     1      30.840  42.284   5.997  1.00  0.00    -0.229 N
ATOM      6  H4  UNL     1      31.163  43.186   6.347  1.00  0.00     0.194 HD
HETATM    7  C5  UNL     1      30.796  41.224   6.826  1.00  0.00     0.342 A
HETATM    8  O4  UNL     1      31.154  41.350   8.035  1.00  0.00    -0.245 OA
HETATM    9  N5  UNL     1      30.362  40.027   6.339  1.00  0.00    -0.290 N
ATOM     10  H5  UNL     1      30.321  39.212   6.952  1.00  0.00     0.172 HD
HETATM   11  C6  UNL     1      29.987  39.917   5.049  1.00  0.00     0.155 A
HETATM   12  C7  UNL     1      30.034  41.006   4.203  1.00  0.00     0.137 A
HETATM   13  C8  UNL     1      29.718  41.174   2.871  1.00  0.00     0.077 A
ENDROOT
BRANCH  13  14
HETATM   14  C9  UNL     1      29.210  40.157   1.943  1.00  0.00     0.152 A
HETATM   15  N8  UNL     1      27.923  39.737   1.819  1.00  0.00    -0.268 N
HETATM   16  N9  UNL     1      27.899  38.828   0.883  1.00  0.00    -0.227 N
ATOM     17  H8  UNL     1      27.123  40.070   2.357  1.00  0.00     0.190 HD
HETATM   18  N10 UNL     1      29.099  38.618   0.376  1.00  0.00    -0.227 N
ATOM     19  H9  UNL     1      27.055  38.340   0.581  1.00  0.00     0.210 HD
HETATM   20  N11 UNL     1      29.894  39.441   1.035  1.00  0.00    -0.268 N
ATOM     21  H10 UNL     1      29.355  37.963  -0.363  1.00  0.00     0.210 HD
ATOM     22  H11 UNL     1      30.899  39.522   0.876  1.00  0.00     0.190 HD
ENDBRANCH  13  14
BRANCH   1  23
HETATM   23  C3  UNL     1      29.808  43.175   1.329  1.00  0.00     0.270 C
HETATM   24  O3  UNL     1      30.780  43.747   0.784  1.00  0.00    -0.280 OA
BRANCH  23  25
HETATM   25  C2  UNL     1      28.524  43.210   0.652  1.00  0.00     0.317 C
HETATM   26  N1  UNL     1      28.269  42.459  -0.519  1.00  0.00    -0.228 N
ATOM     27  H1  UNL     1      29.013  41.874  -0.899  1.00  0.00     0.198 HD
HETATM   28  O2  UNL     1      27.591  43.937   1.121  1.00  0.00    -0.262 OA
BRANCH  26  29
HETATM   29  O1  UNL     1      27.081  42.489  -1.147  1.00  0.00    -0.282 OA
HETATM   30  C1  UNL     1      26.587  41.247  -1.481  1.00  0.00     0.237 C
ENDBRANCH  26  29
ENDBRANCH  23  25
ENDBRANCH   1  23
BRANCH  11  31
HETATM   31  N6  UNL     1      29.580  38.775   4.609  1.00  0.00    -0.290 N
ATOM     32  H6  UNL     1      29.009  38.762   3.764  1.00  0.00     0.188 HD
BRANCH  31  33
HETATM   33  N7  UNL     1      29.871  37.571   5.217  1.00  0.00    -0.344 N
ATOM     34  H72 UNL     1      30.677  37.550   5.842  1.00  0.00     0.176 HD
ATOM     35  H71 UNL     1      29.330  36.718   5.074  1.00  0.00     0.176 HD
ENDBRANCH  31  33
ENDBRANCH  11  31
TORSDOF 6
ENDMDL