MODEL 4
REMARK VINA RESULT: -6.663323457      3.591      8.963
REMARK  6 active torsions:
REMARK  status: ('A' for Active; 'I' for Inactive)
REMARK    1  A    between atoms: N1_2  and  C3_4
REMARK    2  A    between atoms: C4_7  and  N3_8
REMARK    3  A    between atoms: N3_8  and  N4_10
REMARK       I    between atoms: N4_10  and  C5_12
REMARK    4  A    between atoms: C5_12  and  C6_14
REMARK    5  A    between atoms: C6_14  and  N5_15
REMARK    6  A    between atoms: C6_14  and  C7_19
ROOT
HETATM    1  N4  UNL     1      31.154  39.631   5.772  1.00  0.00    -0.254 N
ATOM      2  H4  UNL     1      31.876  40.343   5.875  1.00  0.00     0.190 HD
HETATM    3  C5  UNL     1      30.252  39.676   4.680  1.00  0.00     0.269 C
HETATM    4  O1  UNL     1      29.340  38.796   4.546  1.00  0.00    -0.269 OA
ENDROOT
BRANCH   3   5
HETATM    5  C6  UNL     1      30.348  40.760   3.663  1.00  0.00     0.316 C
BRANCH   5   6
HETATM    6  N5  UNL     1      30.605  41.997   4.401  1.00  0.00    -0.064 N
ATOM      7  H53 UNL     1      29.910  42.724   4.228  1.00  0.00     0.275 HD
ATOM      8  H52 UNL     1      30.450  41.909   5.404  1.00  0.00     0.275 HD
ATOM      9  H51 UNL     1      31.555  42.282   4.162  1.00  0.00     0.275 HD
ENDBRANCH   5   6
BRANCH   5  10
HETATM   10  C7  UNL     1      28.954  40.871   3.029  1.00  0.00     0.320 C
HETATM   11  N6  UNL     1      28.633  42.298   2.926  1.00  0.00    -0.029 N
HETATM   12  C8  UNL     1      29.529  42.765   1.874  1.00  0.00     0.362 C
ATOM     13  H62 UNL     1      27.646  42.500   2.764  1.00  0.00     0.281 HD
ATOM     14  H61 UNL     1      28.704  42.813   3.803  1.00  0.00     0.281 HD
HETATM   15  S1  UNL     1      28.689  44.077   0.960  1.00  0.00    -0.040 SA
HETATM   16  N7  UNL     1      29.796  41.611   1.022  1.00  0.00    -0.323 N
HETATM   17  C9  UNL     1      29.069  40.532   1.596  1.00  0.00     0.253 C
ATOM     18  H7  UNL     1      30.383  41.584   0.188  1.00  0.00     0.165 HD
HETATM   19  O2  UNL     1      28.638  39.532   0.981  1.00  0.00    -0.271 OA
ENDBRANCH   5  10
ENDBRANCH   3   5
BRANCH   1  20
HETATM   20  N3  UNL     1      31.039  38.605   6.698  1.00  0.00    -0.129 N
ATOM     21  H3  UNL     1      30.955  37.653   6.343  1.00  0.00     0.205 HD
BRANCH  20  22
HETATM   22  C4  UNL     1      31.030  38.771   7.976  1.00  0.00     0.712 A
HETATM   23  N2  UNL     1      31.872  37.991   8.687  1.00  0.00    -0.021 N
HETATM   24  C3  UNL     1      31.901  38.127  10.026  1.00  0.00     0.695 A
ATOM     25  H2  UNL     1      32.472  37.313   8.220  1.00  0.00     0.203 HD
HETATM   26  N9  UNL     1      31.095  39.032  10.634  1.00  0.00    -0.187 N
HETATM   27  C10 UNL     1      30.254  39.812   9.933  1.00  0.00     0.215 A
ATOM     28  H9  UNL     1      31.128  39.122  11.649  1.00  0.00     0.185 HD
HETATM   29  N8  UNL     1      30.248  39.654   8.598  1.00  0.00    -0.185 N
ATOM     30  H8  UNL     1      29.620  40.232   8.040  1.00  0.00     0.185 HD
BRANCH  24  31
HETATM   31  N1  UNL     1      32.783  37.309  10.762  1.00  0.00    -0.226 N
HETATM   32  C1  UNL     1      33.856  36.611  10.104  1.00  0.00     0.168 C
HETATM   33  C2  UNL     1      32.616  37.164  12.183  1.00  0.00     0.168 C
ENDBRANCH  24  31
ENDBRANCH  20  22
ENDBRANCH   1  20
TORSDOF 6
ENDMDL