MODEL 1
REMARK VINA RESULT: -7.490208322      0.000      0.000
REMARK  8 active torsions:
REMARK  status: ('A' for Active; 'I' for Inactive)
REMARK    1  A    between atoms: N1_1  and  C1_4
REMARK    2  A    between atoms: C3_8  and  C4_9
REMARK    3  A    between atoms: N3_10  and  C5_11
REMARK    4  A    between atoms: C5_11  and  O1_12
REMARK    5  A    between atoms: N5_17  and  O2_18
REMARK    6  A    between atoms: C7_22  and  N7_23
REMARK    7  A    between atoms: C8_28  and  C9_29
REMARK    8  A    between atoms: C10_32  and  N11_33
ROOT
HETATM    1  C1  UNL     1      29.596  40.155   9.238  1.00  0.00     0.145 A
HETATM    2  N2  UNL     1      29.819  40.169  10.564  1.00  0.00    -0.347 N
ATOM      3  H2  UNL     1      29.297  40.800  11.172  1.00  0.00     0.167 HD
HETATM    4  C2  UNL     1      30.751  39.329  11.078  1.00  0.00     0.123 A
HETATM    5  C3  UNL     1      31.477  38.460  10.294  1.00  0.00     0.098 A
HETATM    6  N6  UNL     1      31.237  38.464   8.971  1.00  0.00    -0.334 N
ATOM      7  H6  UNL     1      31.758  37.833   8.362  1.00  0.00     0.168 HD
HETATM    8  C7  UNL     1      30.314  39.293   8.440  1.00  0.00     0.175 A
ENDROOT
BRANCH   8   9
HETATM    9  N7  UNL     1      30.067  39.290   7.031  1.00  0.00    -0.203 N
HETATM   10  N8  UNL     1      29.356  38.343   6.448  1.00  0.00    -0.232 N
HETATM   11  N9  UNL     1      29.320  38.635   5.165  1.00  0.00    -0.278 N
ATOM     12  H8  UNL     1      28.920  37.540   6.903  1.00  0.00     0.209 HD
HETATM   13  C8  UNL     1      30.009  39.775   4.913  1.00  0.00     0.160 A
ATOM     14  H9  UNL     1      28.839  38.080   4.457  1.00  0.00     0.189 HD
HETATM   15  C10 UNL     1      30.494  40.201   6.123  1.00  0.00     0.158 A
BRANCH  13  16
HETATM   16  C9  UNL     1      30.179  40.395   3.604  1.00  0.00     0.286 C
HETATM   17  N10 UNL     1      30.374  41.806   3.547  1.00  0.00    -0.056 NA
HETATM   18  O3  UNL     1      30.163  39.747   2.527  1.00  0.00    -0.269 OA
ENDBRANCH  13  16
BRANCH  15  19
HETATM   19  N11 UNL     1      31.198  41.222   6.399  1.00  0.00    -0.382 N
ATOM     20 2H11 UNL     1      32.169  41.278   6.709  1.00  0.00     0.157 HD
ATOM     21 1H11 UNL     1      30.869  42.186   6.345  1.00  0.00     0.157 HD
ENDBRANCH  15  19
ENDBRANCH   8   9
BRANCH   1  22
HETATM   22  N1  UNL     1      28.732  40.917   8.660  1.00  0.00    -0.382 N
ATOM     23  H12 UNL     1      27.989  41.308   9.240  1.00  0.00     0.157 HD
ATOM     24  H11 UNL     1      28.762  41.140   7.665  1.00  0.00     0.157 HD
ENDBRANCH   1  22
BRANCH   5  25
HETATM   25  C4  UNL     1      32.486  37.555  10.876  1.00  0.00     0.185 A
HETATM   26  N3  UNL     1      32.527  37.147  12.155  1.00  0.00    -0.301 N
HETATM   27  C6  UNL     1      33.601  36.342  12.234  1.00  0.00     0.206 A
HETATM   28  N4  UNL     1      34.183  36.277  11.024  1.00  0.00    -0.268 N
HETATM   29  N5  UNL     1      33.510  37.018  10.173  1.00  0.00    -0.143 N
ATOM     30  H4  UNL     1      35.018  35.735  10.801  1.00  0.00     0.190 HD
BRANCH  26  31
HETATM   31  C5  UNL     1      31.601  37.515  13.190  1.00  0.00     0.298 C
BRANCH  31  32
HETATM   32  O1  UNL     1      30.598  36.562  13.348  1.00  0.00    -0.382 OA
ATOM     33  H1  UNL     1      30.192  36.617  14.205  1.00  0.00     0.211 HD
ENDBRANCH  31  32
ENDBRANCH  26  31
BRANCH  29  34
HETATM   34  O2  UNL     1      33.780  37.216   8.835  1.00  0.00    -0.266 OA
ATOM     35  H2  UNL     1      33.544  37.977   8.317  1.00  0.00     0.247 HD
ENDBRANCH  29  34
ENDBRANCH   5  25
TORSDOF 8
ENDMDL