MODEL 2
REMARK VINA RESULT: -7.099074949      2.886      6.479
REMARK  6 active torsions:
REMARK  status: ('A' for Active; 'I' for Inactive)
REMARK    1  A    between atoms: N1_2  and  C2_3
REMARK    2  A    between atoms: N1_2  and  C7_21
REMARK    3  A    between atoms: C3_6  and  N3_7
REMARK    4  A    between atoms: N3_7  and  C4_9
REMARK    5  A    between atoms: C4_9  and  C5_10
REMARK    6  A    between atoms: C6_15  and  N6_16
ROOT
HETATM    1  C2  UNL     1      29.700  40.694   6.913  1.00  0.00     0.727 A
HETATM    2  N2  UNL     1      29.808  40.756   5.578  1.00  0.00    -0.021 N
ATOM      3  H2  UNL     1      29.833  41.676   5.137  1.00  0.00     0.203 HD
HETATM    4  C3  UNL     1      29.885  39.654   4.778  1.00  0.00     0.707 A
HETATM    5  N5  UNL     1      29.847  38.469   5.408  1.00  0.00    -0.022 N
ATOM      6  H5  UNL     1      29.901  37.614   4.853  1.00  0.00     0.203 HD
HETATM    7  C6  UNL     1      29.739  38.368   6.742  1.00  0.00     0.705 A
HETATM    8  N7  UNL     1      29.664  39.462   7.505  1.00  0.00    -0.021 N
ATOM      9  H7  UNL     1      29.582  39.379   8.518  1.00  0.00     0.203 HD
ENDROOT
BRANCH   1  10
HETATM   10  N1  UNL     1      29.620  41.872   7.728  1.00  0.00    -0.017 N
HETATM   11  C1  UNL     1      28.511  42.779   7.621  1.00  0.00     0.195 C
BRANCH  10  12
HETATM   12  C7  UNL     1      30.657  42.134   8.646  1.00  0.00     0.708 A
HETATM   13  N8  UNL     1      30.468  41.817   9.962  1.00  0.00    -0.186 N
HETATM   14  C8  UNL     1      31.407  42.031  10.881  1.00  0.00     0.199 A
ATOM     15  H8  UNL     1      29.581  41.404  10.248  1.00  0.00     0.185 HD
HETATM   16  N9  UNL     1      32.570  42.569  10.513  1.00  0.00    -0.334 N
HETATM   17  C9  UNL     1      32.817  42.900   9.248  1.00  0.00     0.172 A
ATOM     18  H9  UNL     1      33.288  42.732  11.219  1.00  0.00     0.168 HD
HETATM   19  C10 UNL     1      33.941  43.460   8.628  1.00  0.00     0.162 A
HETATM   20  N12 UNL     1      31.855  42.677   8.323  1.00  0.00    -0.124 N
HETATM   21  N10 UNL     1      35.137  43.822   9.311  1.00  0.00    -0.079 NA
HETATM   22  N11 UNL     1      33.619  43.561   7.334  1.00  0.00    -0.337 N
HETATM   23  C11 UNL     1      32.355  43.083   7.162  1.00  0.00     0.210 A
ATOM     24  H11 UNL     1      34.220  43.933   6.599  1.00  0.00     0.168 HD
ENDBRANCH  10  12
ENDBRANCH   1  10
BRANCH   4  25
HETATM   25  N3  UNL     1      29.989  39.826   3.510  1.00  0.00    -0.217 N
ATOM     26  H3  UNL     1      30.690  39.319   2.969  1.00  0.00     0.178 HD
BRANCH  25  27
HETATM   27  C4  UNL     1      29.087  40.756   2.870  1.00  0.00     0.237 C
BRANCH  27  28
HETATM   28  C5  UNL     1      29.166  40.661   1.389  1.00  0.00     0.249 C
HETATM   29  N4  UNL     1      28.688  39.479   0.775  1.00  0.00    -0.061 NA
HETATM   30  O1  UNL     1      29.643  41.606   0.710  1.00  0.00    -0.275 OA
ENDBRANCH  27  28
ENDBRANCH  25  27
ENDBRANCH   4  25
BRANCH   7  31
HETATM   31  N6  UNL     1      29.708  37.212   7.282  1.00  0.00    -0.234 N
ATOM     32  H62 UNL     1      29.329  36.419   6.764  1.00  0.00     0.174 HD
ATOM     33  H61 UNL     1      30.066  37.093   8.230  1.00  0.00     0.174 HD
ENDBRANCH   7  31
TORSDOF 6
ENDMDL