MODEL 5
REMARK VINA RESULT: -6.394294808      0.831      1.307
REMARK  7 active torsions:
REMARK  status: ('A' for Active; 'I' for Inactive)
REMARK    1  A    between atoms: C2_2  and  C3_3
REMARK       I    between atoms: C3_3  and  N1_5
REMARK    2  A    between atoms: N1_5  and  O2_7
REMARK    3  A    between atoms: N4_14  and  C6_15
REMARK    4  A    between atoms: C7_18  and  N6_19
REMARK    5  A    between atoms: N6_19  and  C8_21
REMARK    6  A    between atoms: C8_21  and  C9_22
REMARK    7  A    between atoms: C9_22  and  N7_23
ROOT
HETATM    1  C6  UNL     1      31.563  38.907   8.683  1.00  0.00     0.691 A
HETATM    2  N5  UNL     1      31.682  40.186   8.283  1.00  0.00    -0.174 N
ATOM      3  H5  UNL     1      32.113  40.851   8.924  1.00  0.00     0.186 HD
HETATM    4  C7  UNL     1      31.267  40.638   7.087  1.00  0.00     0.144 A
HETATM    5  C10 UNL     1      30.678  39.769   6.188  1.00  0.00     0.132 A
HETATM    6  N8  UNL     1      30.239  40.244   4.923  1.00  0.00    -0.095 NA
HETATM    7  C11 UNL     1      30.547  38.451   6.577  1.00  0.00     0.159 A
HETATM    8  N9  UNL     1      29.941  37.557   5.654  1.00  0.00    -0.080 NA
HETATM    9  N10 UNL     1      30.982  38.060   7.787  1.00  0.00    -0.176 N
ATOM     10  H10 UNL     1      30.871  37.080   8.047  1.00  0.00     0.185 HD
ENDROOT
BRANCH   1  11
HETATM   11  N4  UNL     1      32.011  38.460   9.950  1.00  0.00    -0.135 N
HETATM   12  C2  UNL     1      31.723  38.946  11.281  1.00  0.00     0.152 C
HETATM   13  C1  UNL     1      30.392  39.660  11.343  1.00  0.00     0.052 C
HETATM   14  C4  UNL     1      31.691  37.635  12.038  1.00  0.00     0.164 C
HETATM   15  N2  UNL     1      32.721  36.887  11.358  1.00  0.00    -0.361 N
HETATM   16  C5  UNL     1      32.894  37.359  10.174  1.00  0.00     0.206 C
ATOM     17  H2  UNL     1      33.235  36.102  11.757  1.00  0.00     0.162 HD
HETATM   18  N3  UNL     1      33.850  36.832   9.243  1.00  0.00    -0.063 NA
BRANCH  12  19
HETATM   19  C3  UNL     1      32.803  39.761  11.862  1.00  0.00     0.272 C
HETATM   20  O1  UNL     1      33.528  39.267  12.790  1.00  0.00    -0.268 OA
HETATM   21  N1  UNL     1      33.119  41.085  11.472  1.00  0.00    -0.235 N
ATOM     22  H1  UNL     1      32.564  41.519  10.734  1.00  0.00     0.197 HD
BRANCH  21  23
HETATM   23  O2  UNL     1      34.117  41.798  12.029  1.00  0.00    -0.287 OA
ATOM     24  H2  UNL     1      34.996  41.828  11.669  1.00  0.00     0.244 HD
ENDBRANCH  21  23
ENDBRANCH  12  19
ENDBRANCH   1  11
BRANCH   4  25
HETATM   25  N6  UNL     1      31.397  41.888   6.732  1.00  0.00    -0.373 N
ATOM     26  H6  UNL     1      32.077  42.171   6.025  1.00  0.00     0.161 HD
BRANCH  25  27
HETATM   27  C8  UNL     1      30.543  42.853   7.379  1.00  0.00     0.148 C
BRANCH  27  28
HETATM   28  C9  UNL     1      29.700  43.641   6.403  1.00  0.00     0.249 C
BRANCH  28  29
HETATM   29  N7  UNL     1      28.643  42.873   5.830  1.00  0.00    -0.078 N
ATOM     30  H73 UNL     1      28.598  41.945   6.250  1.00  0.00     0.274 HD
ATOM     31  H72 UNL     1      27.734  43.232   6.120  1.00  0.00     0.274 HD
ATOM     32  H71 UNL     1      28.701  42.808   4.814  1.00  0.00     0.274 HD
ENDBRANCH  28  29
ENDBRANCH  27  28
ENDBRANCH  25  27
ENDBRANCH   4  25
TORSDOF 7
ENDMDL