MODEL 2
REMARK VINA RESULT: -6.137830692      2.008      5.092
REMARK  8 active torsions:
REMARK  status: ('A' for Active; 'I' for Inactive)
REMARK    1  A    between atoms: N1_2  and  C3_4
REMARK    2  A    between atoms: C3_4  and  C4_5
REMARK    3  A    between atoms: C4_5  and  N2_6
REMARK    4  A    between atoms: N2_6  and  N3_8
REMARK    5  A    between atoms: N3_8  and  C5_10
REMARK    6  A    between atoms: C9_23  and  N9_24
REMARK    7  A    between atoms: C10_29  and  N11_30
REMARK    8  A    between atoms: N11_30  and  N12_31
ROOT
HETATM    1  C5  UNL     1      31.382  40.209   8.590  1.00  0.00     0.154 A
HETATM    2  N4  UNL     1      31.962  40.945   9.538  1.00  0.00    -0.313 N
ATOM      3  H4  UNL     1      32.235  40.489  10.409  1.00  0.00     0.170 HD
HETATM    4  C6  UNL     1      32.203  42.259   9.400  1.00  0.00     0.195 A
HETATM    5  N5  UNL     1      32.795  43.026  10.426  1.00  0.00    -0.063 NA
HETATM    6  N6  UNL     1      31.858  42.850   8.253  1.00  0.00    -0.314 N
ATOM      7  H6  UNL     1      32.055  43.845   8.143  1.00  0.00     0.170 HD
HETATM    8  C7  UNL     1      31.265  42.200   7.240  1.00  0.00     0.155 A
HETATM    9  N7  UNL     1      30.930  42.579   5.984  1.00  0.00    -0.173 N
ATOM     10  H7  UNL     1      31.018  43.512   5.581  1.00  0.00     0.186 HD
HETATM   11  C8  UNL     1      30.459  41.475   5.372  1.00  0.00     0.709 A
HETATM   12  N8  UNL     1      30.002  41.343   4.117  1.00  0.00    -0.022 N
ATOM     13  H8  UNL     1      30.001  42.152   3.497  1.00  0.00     0.203 HD
HETATM   14  C9  UNL     1      29.543  40.153   3.657  1.00  0.00     0.694 A
HETATM   15  N10 UNL     1      29.546  39.108   4.500  1.00  0.00    -0.146 N
ATOM     16  H10 UNL     1      29.197  38.207   4.174  1.00  0.00     0.188 HD
HETATM   17  C10 UNL     1      30.017  39.222   5.814  1.00  0.00     0.316 A
HETATM   18  N13 UNL     1      30.491  40.412   6.246  1.00  0.00    -0.093 N
HETATM   19  C11 UNL     1      30.998  40.820   7.398  1.00  0.00     0.151 A
ENDROOT
BRANCH   1  20
HETATM   20  N3  UNL     1      31.610  38.947   8.610  1.00  0.00    -0.284 N
ATOM     21  H3  UNL     1      30.841  38.362   8.285  1.00  0.00     0.188 HD
BRANCH  20  22
HETATM   22  N2  UNL     1      32.698  38.287   8.992  1.00  0.00    -0.309 N
ATOM     23  H2  UNL     1      33.564  38.679   8.624  1.00  0.00     0.186 HD
BRANCH  22  24
HETATM   24  C4  UNL     1      32.871  37.265   9.724  1.00  0.00     0.118 C
BRANCH  24  25
HETATM   25  C3  UNL     1      32.971  37.500  11.226  1.00  0.00     0.077 C
BRANCH  25  26
HETATM   26  N1  UNL     1      32.602  38.788  11.663  1.00  0.00    -0.300 NA
HETATM   27  C1  UNL     1      31.309  38.751  12.402  1.00  0.00     0.115 C
HETATM   28  C2  UNL     1      33.556  39.519  12.449  1.00  0.00     0.115 C
ENDBRANCH  25  26
ENDBRANCH  24  25
ENDBRANCH  22  24
ENDBRANCH  20  22
ENDBRANCH   1  20
BRANCH  17  29
HETATM   29  N11 UNL     1      29.742  38.261   6.512  1.00  0.00    -0.293 NA
BRANCH  29  30
HETATM   30  N12 UNL     1      29.468  37.238   7.242  1.00  0.00    -0.277 N
ATOM     31 2H12 UNL     1      30.137  38.007   7.183  1.00  0.00     0.191 HD
ATOM     32 1H12 UNL     1      29.239  36.423   7.811  1.00  0.00     0.191 HD
ENDBRANCH  29  30
ENDBRANCH  17  29
BRANCH  14  33
HETATM   33  N9  UNL     1      29.120  40.043   2.466  1.00  0.00    -0.234 N
ATOM     34  H92 UNL     1      28.773  40.849   1.946  1.00  0.00     0.174 HD
ATOM     35  H91 UNL     1      29.123  39.136   1.997  1.00  0.00     0.174 HD
ENDBRANCH  14  33
TORSDOF 8
ENDMDL