MODEL 5
REMARK VINA RESULT: -7.221473018      2.199      3.440
REMARK  5 active torsions:
REMARK  status: ('A' for Active; 'I' for Inactive)
REMARK    1  A    between atoms: C3_5  and  N2_6
REMARK    2  A    between atoms: C5_15  and  C6_16
REMARK    3  A    between atoms: N6_18  and  N7_20
REMARK       I    between atoms: N7_20  and  C7_21
REMARK    4  A    between atoms: C7_21  and  C8_23
REMARK    5  A    between atoms: C8_23  and  N8_24
ROOT
HETATM    1  C6  UNL     1      31.602  38.576   9.184  1.00  0.00     0.158 C
HETATM    2  N5  UNL     1      31.115  38.508  10.521  1.00  0.00    -0.079 NA
HETATM    3  N6  UNL     1      32.640  37.877   8.930  1.00  0.00    -0.217 N
ATOM      4  H6  UNL     1      32.912  37.981   7.952  1.00  0.00     0.203 HD
ENDROOT
BRANCH   3   5
HETATM    5  N7  UNL     1      33.432  37.096   9.530  1.00  0.00    -0.284 NA
HETATM    6  C7  UNL     1      34.291  36.247  10.179  1.00  0.00     0.333 C
HETATM    7  O1  UNL     1      34.790  35.198   9.701  1.00  0.00    -0.253 OA
BRANCH   6   8
HETATM    8  C8  UNL     1      34.750  36.502  11.609  1.00  0.00     0.294 C
BRANCH   8   9
HETATM    9  N8  UNL     1      33.673  37.019  12.396  1.00  0.00    -0.173 N
HETATM   10  N9  UNL     1      32.478  36.480  12.489  1.00  0.00    -0.209 N
HETATM   11  N10 UNL     1      31.698  37.159  13.306  1.00  0.00    -0.113 N
ATOM     12  H9  UNL     1      32.189  35.640  11.989  1.00  0.00     0.210 HD
HETATM   13  C9  UNL     1      32.472  38.178  13.739  1.00  0.00     0.737 A
ATOM     14  H10 UNL     1      30.730  36.960  13.556  1.00  0.00     0.207 HD
HETATM   15  N11 UNL     1      32.453  39.261  14.546  1.00  0.00    -0.182 N
HETATM   16  N13 UNL     1      33.681  38.085  13.175  1.00  0.00     0.001 N
HETATM   17  C10 UNL     1      33.656  39.831  14.473  1.00  0.00     0.217 A
ATOM     18  H11 UNL     1      31.665  39.582  15.108  1.00  0.00     0.185 HD
HETATM   19  N12 UNL     1      34.407  39.108  13.632  1.00  0.00    -0.258 N
ATOM     20  H12 UNL     1      35.376  39.307  13.383  1.00  0.00     0.190 HD
ENDBRANCH   8   9
ENDBRANCH   6   8
ENDBRANCH   3   5
BRANCH   1  21
HETATM   21  C5  UNL     1      31.013  39.366   8.120  1.00  0.00     0.074 A
HETATM   22  C2  UNL     1      31.324  40.672   7.904  1.00  0.00     0.040 A
HETATM   23  C1  UNL     1      32.227  41.398   8.789  1.00  0.00     0.070 C
HETATM   24  N1  UNL     1      30.790  41.342   6.837  1.00  0.00    -0.195 N
HETATM   25  C3  UNL     1      29.952  40.733   5.986  1.00  0.00     0.677 A
ATOM     26  H1  UNL     1      31.033  42.321   6.687  1.00  0.00     0.184 HD
HETATM   27  N3  UNL     1      29.629  39.424   6.191  1.00  0.00    -0.176 N
HETATM   28  C4  UNL     1      30.135  38.741   7.225  1.00  0.00     0.130 A
ATOM     29  H3  UNL     1      28.993  38.957   5.545  1.00  0.00     0.186 HD
HETATM   30  N4  UNL     1      29.823  37.511   7.398  1.00  0.00    -0.384 N
ATOM     31  H42 UNL     1      29.184  37.056   6.746  1.00  0.00     0.157 HD
ATOM     32  H41 UNL     1      30.208  36.991   8.186  1.00  0.00     0.157 HD
BRANCH  25  33
HETATM   33  N2  UNL     1      29.466  41.382   4.995  1.00  0.00    -0.234 N
ATOM     34  H22 UNL     1      30.015  42.097   4.518  1.00  0.00     0.174 HD
ATOM     35  H21 UNL     1      28.518  41.185   4.675  1.00  0.00     0.174 HD
ENDBRANCH  25  33
ENDBRANCH   1  21
TORSDOF 5
ENDMDL