MODEL 5
REMARK VINA RESULT: -6.482544811      2.589      8.304
REMARK  8 active torsions:
REMARK  status: ('A' for Active; 'I' for Inactive)
REMARK    1  A    between atoms: O1_2  and  C2_3
REMARK    2  A    between atoms: C3_6  and  N2_7
REMARK    3  A    between atoms: C5_14  and  C6_15
REMARK    4  A    between atoms: C7_20  and  S1_21
REMARK    5  A    between atoms: S1_21  and  N6_22
REMARK       I    between atoms: N6_22  and  C8_24
REMARK    6  A    between atoms: C8_24  and  C9_26
REMARK    7  A    between atoms: C10_27  and  N7_28
REMARK    8  A    between atoms: N8_31  and  N9_32
ROOT
HETATM    1  C6  UNL     1      30.500  39.727   7.061  1.00  0.00     0.164 A
HETATM    2  N4  UNL     1      31.497  38.842   7.209  1.00  0.00    -0.281 N
ATOM      3  H4  UNL     1      32.003  38.385   6.451  1.00  0.00     0.188 HD
HETATM    4  N5  UNL     1      31.717  38.659   8.494  1.00  0.00    -0.275 N
ATOM      5  H5  UNL     1      32.424  38.033   8.881  1.00  0.00     0.189 HD
HETATM    6  C7  UNL     1      30.862  39.430   9.240  1.00  0.00     0.203 A
HETATM    7  N8  UNL     1      30.123  40.075   8.318  1.00  0.00    -0.219 N
ENDROOT
BRANCH   1   8
HETATM    8  C5  UNL     1      29.919  40.201   5.807  1.00  0.00     0.131 A
HETATM    9  C2  UNL     1      29.960  41.511   5.397  1.00  0.00     0.176 A
HETATM   10  N1  UNL     1      29.401  41.880   4.226  1.00  0.00    -0.170 N
HETATM   11  C3  UNL     1      28.785  41.028   3.409  1.00  0.00     0.680 A
ATOM     12  H1  UNL     1      29.451  42.862   3.953  1.00  0.00     0.186 HD
HETATM   13  N3  UNL     1      28.725  39.728   3.785  1.00  0.00    -0.155 N
HETATM   14  C4  UNL     1      29.272  39.330   4.942  1.00  0.00     0.278 A
ATOM     15  H3  UNL     1      28.261  39.047   3.184  1.00  0.00     0.187 HD
HETATM   16  O2  UNL     1      29.209  38.125   5.277  1.00  0.00    -0.266 OA
BRANCH   9  17
HETATM   17  O1  UNL     1      30.593  42.442   6.223  1.00  0.00    -0.340 OA
HETATM   18  C1  UNL     1      29.864  43.606   6.561  1.00  0.00     0.211 C
ENDBRANCH   9  17
BRANCH  11  19
HETATM   19  N2  UNL     1      28.245  41.350   2.280  1.00  0.00    -0.234 N
ATOM     20  H22 UNL     1      28.278  42.332   2.003  1.00  0.00     0.174 HD
ATOM     21  H21 UNL     1      27.784  40.695   1.648  1.00  0.00     0.174 HD
ENDBRANCH  11  19
ENDBRANCH   1   8
BRANCH   7  22
HETATM   22  N9  UNL     1      29.093  40.961   8.599  1.00  0.00    -0.335 N
ATOM     23  H92 UNL     1      29.108  41.961   8.397  1.00  0.00     0.177 HD
ATOM     24  H91 UNL     1      28.222  40.694   9.058  1.00  0.00     0.177 HD
ENDBRANCH   7  22
BRANCH   6  25
HETATM   25  S1  UNL     1      30.807  39.440  11.018  1.00  0.00     0.029 SA
BRANCH  25  26
HETATM   26  N6  UNL     1      32.174  38.715  11.775  1.00  0.00    -0.283 N
HETATM   27  C8  UNL     1      32.666  37.451  11.474  1.00  0.00     0.308 C
HETATM   28  O3  UNL     1      32.134  36.732  10.600  1.00  0.00    -0.257 OA
ATOM     29  H6  UNL     1      32.657  39.252  12.496  1.00  0.00     0.178 HD
BRANCH  27  30
HETATM   30  C9  UNL     1      33.818  36.872  12.140  1.00  0.00     0.018 C
HETATM   31  C10 UNL     1      34.798  36.390  12.687  1.00  0.00     0.013 C
BRANCH  31  32
HETATM   32  N7  UNL     1      35.921  35.835  13.289  1.00  0.00    -0.359 N
ATOM     33  H72 UNL     1      35.179  36.502  13.501  1.00  0.00     0.166 HD
ATOM     34  H71 UNL     1      36.748  35.419  13.717  1.00  0.00     0.166 HD
ENDBRANCH  31  32
ENDBRANCH  27  30
ENDBRANCH  25  26
ENDBRANCH   6  25
TORSDOF 8
ENDMDL