MODEL 2
REMARK VINA RESULT: -6.272514758      2.467      6.181
REMARK  10 active torsions:
REMARK  status: ('A' for Active; 'I' for Inactive)
REMARK    1  A    between atoms: O1_2  and  C2_3
REMARK    2  A    between atoms: C3_4  and  O2_5
REMARK    3  A    between atoms: C4_7  and  O3_8
REMARK    4  A    between atoms: C8_12  and  O4_13
REMARK    5  A    between atoms: C9_15  and  C10_16
REMARK    6  A    between atoms: C10_16  and  O5_17
REMARK    7  A    between atoms: C10_16  and  O6_19
REMARK    8  A    between atoms: O6_19  and  C11_20
REMARK    9  A    between atoms: N2_22  and  N3_24
REMARK   10  A    between atoms: C12_27  and  O7_28
ROOT
HETATM    1  C2  UNL     1      29.671  42.562   5.723  1.00  0.00     0.138 A
HETATM    2  C3  UNL     1      29.179  42.104   4.516  1.00  0.00     0.138 A
HETATM    3  C4  UNL     1      29.103  40.746   4.290  1.00  0.00     0.131 A
HETATM    4  C6  UNL     1      29.513  39.816   5.250  1.00  0.00     0.080 A
HETATM    5  C7  UNL     1      30.005  40.275   6.460  1.00  0.00     0.041 A
HETATM    6  C8  UNL     1      30.076  41.653   6.674  1.00  0.00     0.115 A
HETATM    7  C9  UNL     1      30.314  39.238   7.216  1.00  0.00     0.038 A
HETATM    8  C12 UNL     1      30.026  38.023   6.416  1.00  0.00     0.254 A
HETATM    9  N4  UNL     1      29.519  38.543   5.198  1.00  0.00    -0.357 N
ATOM     10  H4  UNL     1      29.207  37.985   4.403  1.00  0.00     0.162 HD
ENDROOT
BRANCH   7  11
HETATM   11  C10 UNL     1      30.863  39.205   8.570  1.00  0.00     0.302 C
BRANCH  11  12
HETATM   12  O5  UNL     1      32.209  39.680   8.505  1.00  0.00    -0.367 OA
ATOM     13  H5  UNL     1      32.781  38.961   8.746  1.00  0.00     0.213 HD
ENDBRANCH  11  12
BRANCH  11  14
HETATM   14  O6  UNL     1      31.050  37.868   9.080  1.00  0.00    -0.288 OA
BRANCH  14  15
HETATM   15  C11 UNL     1      32.171  37.674   9.866  1.00  0.00     0.248 C
HETATM   16  N1  UNL     1      33.368  37.142   9.303  1.00  0.00    -0.055 NA
HETATM   17  N2  UNL     1      32.105  37.984  11.108  1.00  0.00    -0.274 N
ATOM     18  H2  UNL     1      31.221  38.360  11.450  1.00  0.00     0.189 HD
BRANCH  17  19
HETATM   19  N3  UNL     1      33.128  37.851  12.016  1.00  0.00    -0.342 N
ATOM     20  H32 UNL     1      33.084  37.036  12.627  1.00  0.00     0.176 HD
ATOM     21  H31 UNL     1      33.911  38.495  12.120  1.00  0.00     0.176 HD
ENDBRANCH  17  19
ENDBRANCH  14  15
ENDBRANCH  11  14
ENDBRANCH   7  11
BRANCH   8  22
HETATM   22  O7  UNL     1      29.147  37.161   7.068  1.00  0.00    -0.373 OA
ATOM     23  H7  UNL     1      28.245  37.452   7.000  1.00  0.00     0.212 HD
ENDBRANCH   8  22
BRANCH   6  24
HETATM   24  O4  UNL     1      30.562  42.169   7.863  1.00  0.00    -0.357 OA
ATOM     25  H4  UNL     1      30.691  41.554   8.576  1.00  0.00     0.217 HD
ENDBRANCH   6  24
BRANCH   3  26
HETATM   26  O3  UNL     1      28.602  40.316   3.059  1.00  0.00    -0.351 OA
HETATM   27  C5  UNL     1      29.450  40.248   1.953  1.00  0.00     0.210 C
ENDBRANCH   3  26
BRANCH   1  28
HETATM   28  O1  UNL     1      29.763  43.943   5.989  1.00  0.00    -0.351 OA
HETATM   29  C1  UNL     1      28.619  44.655   6.467  1.00  0.00     0.210 C
ENDBRANCH   1  28
BRANCH   2  30
HETATM   30  O2  UNL     1      28.780  43.056   3.583  1.00  0.00    -0.356 OA
ATOM     31  H2  UNL     1      28.204  43.750   3.883  1.00  0.00     0.218 HD
ENDBRANCH   2  30
TORSDOF 10
ENDMDL