MODEL 4
REMARK VINA RESULT: -6.346544317      3.871      8.560
REMARK  8 active torsions:
REMARK  status: ('A' for Active; 'I' for Inactive)
REMARK    1  A    between atoms: N1_2  and  C2_4
REMARK    2  A    between atoms: C4_11  and  C5_12
REMARK    3  A    between atoms: C5_12  and  N5_13
REMARK    4  A    between atoms: C5_12  and  C6_17
REMARK    5  A    between atoms: C6_17  and  O1_18
REMARK    6  A    between atoms: C6_17  and  C7_20
REMARK    7  A    between atoms: C7_20  and  O2_21
REMARK    8  A    between atoms: C7_20  and  N6_23
ROOT
HETATM    1  C5  UNL     1      29.296  40.918   3.562  1.00  0.00     0.286 C
ENDROOT
BRANCH   1   2
HETATM    2  C4  UNL     1      29.515  39.973   4.723  1.00  0.00     0.153 A
HETATM    3  N4  UNL     1      30.263  40.264   5.814  1.00  0.00    -0.218 N
HETATM    4  N3  UNL     1      30.948  41.330   6.170  1.00  0.00    -0.286 N
HETATM    5  C11 UNL     1      30.263  39.223   6.654  1.00  0.00     0.188 A
HETATM    6  C3  UNL     1      31.634  41.411   7.323  1.00  0.00     0.199 A
ATOM      7  H3  UNL     1      30.958  42.133   5.542  1.00  0.00     0.188 HD
HETATM    8  N2  UNL     1      31.649  40.377   8.181  1.00  0.00    -0.335 N
HETATM    9  C2  UNL     1      30.962  39.277   7.848  1.00  0.00     0.150 A
ATOM     10  H2  UNL     1      32.168  40.428   9.058  1.00  0.00     0.168 HD
HETATM   11  N9  UNL     1      29.500  38.265   6.072  1.00  0.00    -0.279 N
HETATM   12  N8  UNL     1      29.064  38.735   4.920  1.00  0.00    -0.284 N
ATOM     13  H9  UNL     1      29.298  37.342   6.457  1.00  0.00     0.189 HD
ATOM     14  H8  UNL     1      28.466  38.223   4.271  1.00  0.00     0.188 HD
BRANCH   9  15
HETATM   15  N1  UNL     1      30.956  38.279   8.641  1.00  0.00    -0.377 N
HETATM   16  C1  UNL     1      32.162  37.858   9.321  1.00  0.00     0.148 C
ATOM     17  H1  UNL     1      30.087  37.768   8.798  1.00  0.00     0.160 HD
ENDBRANCH   9  15
ENDBRANCH   1   2
BRANCH   1  18
HETATM   18  N5  UNL     1      30.694  41.166   3.111  1.00  0.00    -0.065 N
ATOM     19  H53 UNL     1      30.790  41.814   2.329  1.00  0.00     0.275 HD
ATOM     20  H52 UNL     1      31.268  41.711   3.754  1.00  0.00     0.275 HD
ATOM     21  H51 UNL     1      31.022  40.217   2.933  1.00  0.00     0.275 HD
ENDBRANCH   1  18
BRANCH   1  22
HETATM   22  C6  UNL     1      28.611  40.314   2.414  1.00  0.00     0.205 C
BRANCH  22  23
HETATM   23  O1  UNL     1      27.344  39.816   2.774  1.00  0.00    -0.389 OA
ATOM     24  H1  UNL     1      27.314  38.868   2.718  1.00  0.00     0.210 HD
ENDBRANCH  22  23
BRANCH  22  25
HETATM   25  C7  UNL     1      28.504  41.029   1.129  1.00  0.00     0.255 C
BRANCH  25  26
HETATM   26  O2  UNL     1      27.776  40.285   0.211  1.00  0.00    -0.374 OA
ATOM     27  H2  UNL     1      28.230  39.479  -0.005  1.00  0.00     0.212 HD
ENDBRANCH  25  26
BRANCH  25  28
HETATM   28  N6  UNL     1      28.111  42.390   1.144  1.00  0.00    -0.303 N
HETATM   29  C8  UNL     1      28.852  43.552   0.632  1.00  0.00     0.150 C
HETATM   30  C9  UNL     1      28.640  44.520   1.779  1.00  0.00     0.144 C
HETATM   31  N7  UNL     1      27.278  44.239   2.193  1.00  0.00    -0.341 N
HETATM   32  C10 UNL     1      26.925  42.944   1.663  1.00  0.00     0.320 C
ATOM     33  H7  UNL     1      26.681  44.844   2.756  1.00  0.00     0.164 HD
HETATM   34  O3  UNL     1      25.757  42.447   1.685  1.00  0.00    -0.247 OA
ENDBRANCH  25  28
ENDBRANCH  22  25
ENDBRANCH   1  22
TORSDOF 8
ENDMDL