MODEL 5
REMARK VINA RESULT: -7.019928344      3.542      7.158
REMARK  7 active torsions:
REMARK  status: ('A' for Active; 'I' for Inactive)
REMARK    1  A    between atoms: C3_6  and  N3_7
REMARK    2  A    between atoms: N3_7  and  C4_8
REMARK       I    between atoms: N3_7  and  C7_19
REMARK    3  A    between atoms: C4_8  and  C5_9
REMARK       I    between atoms: C5_9  and  N4_11
REMARK    4  A    between atoms: N4_11  and  O2_12
REMARK    5  A    between atoms: N4_11  and  C6_14
REMARK    6  A    between atoms: C6_14  and  N5_15
REMARK    7  A    between atoms: C8_25  and  N9_26
ROOT
HETATM    1  N1  UNL     1      32.595  39.512  12.909  1.00  0.00    -0.190 NA
HETATM    2  C1  UNL     1      31.967  39.519  11.936  1.00  0.00     0.120 C
HETATM    3  C2  UNL     1      31.193  39.547  10.707  1.00  0.00     0.154 A
HETATM    4  N2  UNL     1      30.234  40.432  10.491  1.00  0.00    -0.178 N
ATOM      5  H2  UNL     1      30.051  41.110  11.231  1.00  0.00     0.185 HD
HETATM    6  C3  UNL     1      29.464  40.518   9.357  1.00  0.00     0.713 A
HETATM    7  N7  UNL     1      29.719  39.622   8.400  1.00  0.00    -0.053 N
HETATM    8  N8  UNL     1      29.200  39.410   7.207  1.00  0.00    -0.109 N
ATOM      9  H8  UNL     1      28.443  39.965   6.809  1.00  0.00     0.207 HD
HETATM   10  C8  UNL     1      29.789  38.370   6.572  1.00  0.00     0.693 A
HETATM   11  N10 UNL     1      30.714  37.928   7.421  1.00  0.00    -0.172 N
ATOM     12  H10 UNL     1      31.343  37.144   7.248  1.00  0.00     0.186 HD
HETATM   13  C9  UNL     1      30.695  38.672   8.542  1.00  0.00     0.185 A
HETATM   14  C10 UNL     1      31.433  38.637   9.703  1.00  0.00     0.129 A
HETATM   15  C11 UNL     1      32.449  37.640   9.842  1.00  0.00     0.106 C
HETATM   16  N11 UNL     1      33.275  36.819   9.935  1.00  0.00    -0.191 NA
ENDROOT
BRANCH   6  17
HETATM   17  N3  UNL     1      28.485  41.519   9.263  1.00  0.00    -0.124 N
HETATM   18  C7  UNL     1      27.338  41.327  10.156  1.00  0.00     0.349 C
HETATM   19  N6  UNL     1      26.279  42.274  10.157  1.00  0.00    -0.039 NA
HETATM   20  O3  UNL     1      27.243  40.365  10.923  1.00  0.00    -0.250 OA
BRANCH  17  21
HETATM   21  C4  UNL     1      28.396  42.705   8.497  1.00  0.00     0.257 C
BRANCH  21  22
HETATM   22  C5  UNL     1      29.758  43.243   8.186  1.00  0.00     0.263 C
HETATM   23  O1  UNL     1      30.403  43.879   9.062  1.00  0.00    -0.269 OA
HETATM   24  N4  UNL     1      30.391  43.075   6.925  1.00  0.00    -0.202 N
BRANCH  24  25
HETATM   25  O2  UNL     1      31.634  43.576   6.670  1.00  0.00    -0.283 OA
ATOM     26  H2  UNL     1      31.984  43.626   5.788  1.00  0.00     0.245 HD
ENDBRANCH  24  25
BRANCH  24  27
HETATM   27  C6  UNL     1      29.694  42.358   5.894  1.00  0.00     0.387 C
BRANCH  27  28
HETATM   28  N5  UNL     1      30.627  41.592   5.089  1.00  0.00    -0.061 N
ATOM     29  H53 UNL     1      31.340  42.186   4.666  1.00  0.00     0.276 HD
ATOM     30  H52 UNL     1      31.236  41.011   5.664  1.00  0.00     0.276 HD
ATOM     31  H51 UNL     1      30.127  41.042   4.390  1.00  0.00     0.276 HD
ENDBRANCH  27  28
ENDBRANCH  24  27
ENDBRANCH  21  22
ENDBRANCH  17  21
ENDBRANCH   6  17
BRANCH  10  32
HETATM   32  N9  UNL     1      29.510  37.912   5.397  1.00  0.00    -0.233 N
ATOM     33  H92 UNL     1      29.619  36.956   5.058  1.00  0.00     0.174 HD
ATOM     34  H91 UNL     1      29.132  38.431   4.605  1.00  0.00     0.174 HD
ENDBRANCH  10  32
TORSDOF 7
ENDMDL