MODEL 5
REMARK VINA RESULT: -6.352888265      1.944      2.606
REMARK  7 active torsions:
REMARK  status: ('A' for Active; 'I' for Inactive)
REMARK    1  A    between atoms: O1_2  and  N1_3
REMARK    2  A    between atoms: N1_3  and  C2_5
REMARK    3  A    between atoms: C4_9  and  C5_10
REMARK    4  A    between atoms: C5_10  and  N3_11
REMARK    5  A    between atoms: C6_14  and  C7_15
REMARK    6  A    between atoms: N6_18  and  N7_19
REMARK    7  A    between atoms: C8_22  and  N8_23
REMARK       I    between atoms: N8_23  and  C9_25
ROOT
HETATM    1  N3  UNL     1      30.411  40.995  10.736  1.00  0.00    -0.116 N
HETATM    2  N4  UNL     1      29.592  41.249  11.752  1.00  0.00    -0.262 N
ATOM      3  H4  UNL     1      28.978  42.061  11.796  1.00  0.00     0.189 HD
HETATM    4  C6  UNL     1      29.666  40.325  12.701  1.00  0.00     0.225 A
HETATM    5  N6  UNL     1      30.561  39.439  12.294  1.00  0.00    -0.068 N
HETATM    6  C8  UNL     1      31.038  39.854  11.048  1.00  0.00     0.724 A
ENDROOT
BRANCH   1   7
HETATM    7  C5  UNL     1      30.581  41.824   9.573  1.00  0.00     0.212 C
BRANCH   7   8
HETATM    8  C4  UNL     1      30.305  41.109   8.275  1.00  0.00     0.022 A
HETATM    9  C3  UNL     1      29.091  40.503   8.048  1.00  0.00     0.118 A
HETATM   10  N2  UNL     1      28.883  39.827   6.898  1.00  0.00    -0.199 N
HETATM   11  C2  UNL     1      29.837  39.731   5.959  1.00  0.00     0.703 A
ATOM     12  H2  UNL     1      27.980  39.379   6.739  1.00  0.00     0.183 HD
HETATM   13  N12 UNL     1      31.032  40.298   6.119  1.00  0.00    -0.175 N
HETATM   14  C10 UNL     1      31.271  40.993   7.279  1.00  0.00     0.124 A
ATOM     15  H12 UNL     1      31.750  40.218   5.398  1.00  0.00     0.186 HD
HETATM   16  N11 UNL     1      32.399  41.584   7.375  1.00  0.00    -0.385 N
ATOM     17 2H11 UNL     1      32.577  42.100   8.237  1.00  0.00     0.157 HD
ATOM     18 1H11 UNL     1      33.107  41.499   6.645  1.00  0.00     0.157 HD
BRANCH  11  19
HETATM   19  N1  UNL     1      29.585  39.070   4.870  1.00  0.00    -0.097 N
ATOM     20  H1  UNL     1      29.902  38.104   4.790  1.00  0.00     0.213 HD
BRANCH  19  21
HETATM   21  O1  UNL     1      28.901  39.641   3.822  1.00  0.00    -0.272 OA
HETATM   22  C1  UNL     1      29.493  40.466   2.853  1.00  0.00     0.238 C
ENDBRANCH  19  21
ENDBRANCH  11  19
ENDBRANCH   7   8
ENDBRANCH   1   7
BRANCH   6  23
HETATM   23  N8  UNL     1      31.856  39.164  10.451  1.00  0.00    -0.160 N
HETATM   24  C9  UNL     1      32.126  38.002   9.832  1.00  0.00     0.200 C
HETATM   25  N9  UNL     1      32.331  37.998   8.530  1.00  0.00    -0.373 N
HETATM   26  N10 UNL     1      32.235  36.711  10.463  1.00  0.00    -0.063 NA
ATOM     27  H92 UNL     1      32.253  38.911   8.083  1.00  0.00     0.158 HD
ATOM     28  H91 UNL     1      32.535  37.115   8.060  1.00  0.00     0.158 HD
ATOM     29  H8  UNL     1      32.712  39.718  10.402  1.00  0.00     0.187 HD
ENDBRANCH   6  23
BRANCH   4  30
HETATM   30  C7  UNL     1      28.920  40.264  13.970  1.00  0.00     0.302 C
HETATM   31  N5  UNL     1      28.072  39.131  14.228  1.00  0.00    -0.054 NA
HETATM   32  O2  UNL     1      29.052  41.200  14.774  1.00  0.00    -0.268 OA
ENDBRANCH   4  30
BRANCH   5  33
HETATM   33  N7  UNL     1      30.992  38.294  12.928  1.00  0.00    -0.322 N
ATOM     34  H72 UNL     1      30.860  37.357  12.547  1.00  0.00     0.178 HD
ATOM     35  H71 UNL     1      31.478  38.202  13.820  1.00  0.00     0.178 HD
ENDBRANCH   5  33
TORSDOF 7
ENDMDL