MODEL 1
REMARK VINA RESULT: -5.784867923      0.000      0.000
REMARK  8 active torsions:
REMARK  status: ('A' for Active; 'I' for Inactive)
REMARK    1  A    between atoms: N1_1  and  C1_4
REMARK    2  A    between atoms: N2_5  and  N3_6
REMARK    3  A    between atoms: C3_10  and  N4_11
REMARK    4  A    between atoms: N8_26  and  C11_27
REMARK    5  A    between atoms: C11_27  and  C12_28
REMARK    6  A    between atoms: C12_28  and  O1_29
REMARK    7  A    between atoms: C12_28  and  C13_31
REMARK    8  A    between atoms: C13_31  and  O2_32
ROOT
HETATM    1  C1  UNL     1      32.067  38.051  11.092  1.00  0.00     0.701 A
HETATM    2  N2  UNL     1      31.698  38.489   9.866  1.00  0.00    -0.086 N
HETATM    3  C2  UNL     1      30.849  39.518   9.986  1.00  0.00     0.162 A
HETATM    4  C3  UNL     1      30.200  40.316   9.071  1.00  0.00     0.138 A
HETATM    5  N6  UNL     1      29.406  41.310   9.581  1.00  0.00    -0.337 N
ATOM      6  H6  UNL     1      28.907  41.926   8.939  1.00  0.00     0.168 HD
HETATM    7  C9  UNL     1      29.268  41.492  10.905  1.00  0.00     0.183 A
HETATM    8  N7  UNL     1      29.906  40.704  11.789  1.00  0.00    -0.336 N
ATOM      9  H7  UNL     1      29.786  40.862  12.790  1.00  0.00     0.168 HD
HETATM   10  C10 UNL     1      30.713  39.696  11.354  1.00  0.00     0.158 A
HETATM   11  N8  UNL     1      31.461  38.794  12.014  1.00  0.00    -0.162 N
ENDROOT
BRANCH   4  12
HETATM   12  N4  UNL     1      30.273  40.140   7.669  1.00  0.00    -0.364 N
HETATM   13  C4  UNL     1      29.346  39.162   7.146  1.00  0.00     0.126 C
HETATM   14  C5  UNL     1      29.730  38.658   5.773  1.00  0.00     0.047 C
HETATM   15  C6  UNL     1      29.548  39.763   4.774  1.00  0.00     0.234 C
HETATM   16  N5  UNL     1      29.285  41.039   5.394  1.00  0.00    -0.074 N
HETATM   17  C7  UNL     1      30.566  41.626   5.739  1.00  0.00     0.252 C
ATOM     18  H52 UNL     1      28.710  41.652   4.816  1.00  0.00     0.277 HD
ATOM     19  H51 UNL     1      28.650  40.972   6.189  1.00  0.00     0.277 HD
HETATM   20  C8  UNL     1      31.218  40.909   6.898  1.00  0.00     0.152 C
ENDBRANCH   4  12
BRANCH   2  21
HETATM   21  N3  UNL     1      32.147  37.964   8.643  1.00  0.00    -0.324 N
ATOM     22  H32 UNL     1      33.127  37.805   8.406  1.00  0.00     0.178 HD
ATOM     23  H31 UNL     1      31.551  37.673   7.868  1.00  0.00     0.178 HD
ENDBRANCH   2  21
BRANCH   1  24
HETATM   24  N1  UNL     1      32.893  37.054  11.254  1.00  0.00    -0.233 N
ATOM     25  H12 UNL     1      33.427  36.542  10.551  1.00  0.00     0.174 HD
ATOM     26  H11 UNL     1      33.095  36.661  12.172  1.00  0.00     0.174 HD
ENDBRANCH   1  24
BRANCH  11  27
HETATM   27  C11 UNL     1      31.577  38.660  13.448  1.00  0.00     0.183 C
BRANCH  27  28
HETATM   28  C12 UNL     1      30.622  37.702  14.071  1.00  0.00     0.160 C
BRANCH  28  29
HETATM   29  O1  UNL     1      30.588  36.481  13.428  1.00  0.00    -0.392 OA
ATOM     30  H1  UNL     1      29.707  36.207  13.201  1.00  0.00     0.210 HD
ENDBRANCH  28  29
BRANCH  28  31
HETATM   31  C13 UNL     1      29.249  38.260  14.307  1.00  0.00     0.197 C
BRANCH  31  32
HETATM   32  O2  UNL     1      28.458  37.212  14.797  1.00  0.00    -0.398 OA
ATOM     33  H2  UNL     1      27.728  37.110  14.198  1.00  0.00     0.209 HD
ENDBRANCH  31  32
ENDBRANCH  28  31
ENDBRANCH  27  28
ENDBRANCH  11  27
TORSDOF 8
ENDMDL