MODEL 5
REMARK VINA RESULT: -7.200463669      1.322      3.104
REMARK  5 active torsions:
REMARK  status: ('A' for Active; 'I' for Inactive)
REMARK    1  A    between atoms: N8_21  and  C8_22
REMARK    2  A    between atoms: C8_22  and  C9_23
REMARK    3  A    between atoms: C9_23  and  C10_24
REMARK    4  A    between atoms: C10_24  and  O1_25
REMARK    5  A    between atoms: C10_24  and  C11_27
ROOT
HETATM    1  N1  UNL     1      32.764  37.329   9.644  1.00  0.00    -0.172 NA
HETATM    2  C1  UNL     1      32.015  37.936   8.970  1.00  0.00     0.183 C
HETATM    3  N2  UNL     1      31.131  38.630   8.160  1.00  0.00    -0.281 N
ATOM      4  H2  UNL     1      30.769  38.190   7.314  1.00  0.00     0.179 HD
HETATM    5  C2  UNL     1      30.766  39.811   8.460  1.00  0.00     0.115 C
HETATM    6  C3  UNL     1      31.329  40.388   9.699  1.00  0.00     0.170 C
HETATM    7  C4  UNL     1      30.271  40.791  10.682  1.00  0.00     0.154 C
HETATM    8  N3  UNL     1      29.121  41.441  10.123  1.00  0.00    -0.374 N
ATOM      9  H3  UNL     1      28.352  41.519  10.787  1.00  0.00     0.161 HD
HETATM   10  C5  UNL     1      28.812  41.996   8.866  1.00  0.00     0.114 C
HETATM   11  N4  UNL     1      27.815  42.801   8.857  1.00  0.00    -0.386 N
ATOM     12  H41 UNL     1      27.590  43.203   7.947  1.00  0.00     0.157 HD
ATOM     13  H42 UNL     1      27.374  42.934   9.767  1.00  0.00     0.157 HD
HETATM   14  C6  UNL     1      29.452  41.802   7.546  1.00  0.00     0.255 C
HETATM   15  N5  UNL     1      30.692  42.568   7.460  1.00  0.00    -0.337 N
ATOM     16  H5  UNL     1      30.724  43.255   6.706  1.00  0.00     0.164 HD
HETATM   17  C7  UNL     1      31.759  42.508   8.193  1.00  0.00     0.186 C
HETATM   18  N6  UNL     1      32.827  43.413   7.841  1.00  0.00    -0.064 NA
HETATM   19  N7  UNL     1      31.984  41.648   9.300  1.00  0.00    -0.351 N
ATOM     20  H7  UNL     1      32.727  41.954   9.927  1.00  0.00     0.163 HD
HETATM   21  N8  UNL     1      29.859  40.383   7.528  1.00  0.00    -0.340 N
ENDROOT
BRANCH  21  22
HETATM   22  C8  UNL     1      29.288  39.555   6.499  1.00  0.00     0.130 C
BRANCH  22  23
HETATM   23  C9  UNL     1      30.150  39.623   5.241  1.00  0.00     0.059 C
BRANCH  23  24
HETATM   24  C10 UNL     1      29.713  40.833   4.430  1.00  0.00     0.190 C
BRANCH  24  25
HETATM   25  O1  UNL     1      30.746  41.756   4.325  1.00  0.00    -0.388 OA
ATOM     26  H1  UNL     1      31.408  41.453   3.713  1.00  0.00     0.210 HD
ENDBRANCH  24  25
BRANCH  24  27
HETATM   27  C11 UNL     1      29.136  40.439   3.138  1.00  0.00     0.142 A
HETATM   28  N9  UNL     1      27.864  40.635   2.725  1.00  0.00    -0.270 N
HETATM   29  N10 UNL     1      27.769  40.128   1.499  1.00  0.00    -0.227 N
ATOM     30  H9  UNL     1      27.117  41.085   3.254  1.00  0.00     0.190 HD
HETATM   31  N11 UNL     1      28.925  39.620   1.116  1.00  0.00    -0.227 N
ATOM     32  H10 UNL     1      26.921  40.132   0.932  1.00  0.00     0.210 HD
HETATM   33  N12 UNL     1      29.750  39.816   2.125  1.00  0.00    -0.270 N
ATOM     34  H11 UNL     1      29.136  39.169   0.226  1.00  0.00     0.210 HD
ATOM     35  H12 UNL     1      30.729  39.530   2.133  1.00  0.00     0.190 HD
ENDBRANCH  24  27
ENDBRANCH  23  24
ENDBRANCH  22  23
ENDBRANCH  21  22
TORSDOF 5
ENDMDL