MODEL 4
REMARK VINA RESULT: -5.663506907      1.668      2.467
REMARK  6 active torsions:
REMARK  status: ('A' for Active; 'I' for Inactive)
REMARK       I    between atoms: N1_2  and  C2_4
REMARK    1  A    between atoms: C2_4  and  C3_6
REMARK    2  A    between atoms: C3_6  and  O2_7
REMARK    3  A    between atoms: C5_13  and  C6_14
REMARK    4  A    between atoms: C6_14  and  O3_15
REMARK    5  A    between atoms: C6_14  and  C7_17
REMARK    6  A    between atoms: C7_17  and  O4_18
ROOT
HETATM    1  C3  UNL     1      28.149  41.627   2.581  1.00  0.00     0.347 C
HETATM    2  N2  UNL     1      29.254  42.336   2.068  1.00  0.00    -0.257 N
ATOM      3  H2  UNL     1      29.144  43.105   1.407  1.00  0.00     0.183 HD
HETATM    4  N3  UNL     1      30.523  41.918   2.523  1.00  0.00    -0.029 NA
HETATM    5  N4  UNL     1      30.304  41.666   3.878  1.00  0.00    -0.091 NA
HETATM    6  C5  UNL     1      29.618  40.371   3.861  1.00  0.00     0.273 C
HETATM    7  O6  UNL     1      28.404  40.470   3.198  1.00  0.00    -0.303 OA
ENDROOT
BRANCH   6   8
HETATM    8  C6  UNL     1      29.336  39.891   5.238  1.00  0.00     0.238 C
BRANCH   8   9
HETATM    9  O3  UNL     1      28.907  38.577   5.226  1.00  0.00    -0.385 OA
ATOM     10  H3  UNL     1      28.504  38.344   6.054  1.00  0.00     0.210 HD
ENDBRANCH   8   9
BRANCH   8  11
HETATM   11  C7  UNL     1      30.445  40.102   6.210  1.00  0.00     0.245 C
HETATM   12  O5  UNL     1      30.191  41.265   6.955  1.00  0.00    -0.343 OA
HETATM   13  C8  UNL     1      30.926  41.237   8.103  1.00  0.00     0.187 C
HETATM   14  C9  UNL     1      30.460  40.035   8.922  1.00  0.00     0.072 C
HETATM   15  C10 UNL     1      29.145  40.278   9.591  1.00  0.00     0.024 C
HETATM   16  S1  UNL     1      30.303  38.852   7.515  1.00  0.00    -0.093 SA
BRANCH  11  17
HETATM   17  O4  UNL     1      31.712  40.084   5.677  1.00  0.00    -0.355 OA
ATOM     18  H4  UNL     1      32.417  40.251   6.292  1.00  0.00     0.214 HD
ENDBRANCH  11  17
ENDBRANCH   8  11
ENDBRANCH   6   8
BRANCH   1  19
HETATM   19  C2  UNL     1      27.158  41.427   1.416  1.00  0.00     0.304 C
HETATM   20  N1  UNL     1      27.737  41.836   0.144  1.00  0.00    -0.359 N
HETATM   21  C1  UNL     1      26.901  41.650  -1.007  1.00  0.00     0.149 C
ATOM     22  H1  UNL     1      28.675  42.229   0.076  1.00  0.00     0.162 HD
HETATM   23  O1  UNL     1      26.043  40.967   1.581  1.00  0.00    -0.265 OA
ENDBRANCH   1  19
BRANCH   1  24
HETATM   24  O2  UNL     1      27.358  42.402   3.467  1.00  0.00    -0.335 OA
HETATM   25  C4  UNL     1      27.520  43.753   3.099  1.00  0.00     0.208 C
ENDBRANCH   1  24
TORSDOF 6
ENDMDL