MODEL 3
REMARK VINA RESULT: -6.799100730      2.820      7.521
REMARK  6 active torsions:
REMARK  status: ('A' for Active; 'I' for Inactive)
REMARK    1  A    between atoms: N1_2  and  C3_4
REMARK    2  A    between atoms: C4_7  and  N3_8
REMARK    3  A    between atoms: N3_8  and  C5_10
REMARK    4  A    between atoms: N7_21  and  C10_23
REMARK    5  A    between atoms: C10_23  and  O1_24
REMARK    6  A    between atoms: C10_23  and  N8_26
REMARK       I    between atoms: N8_26  and  C11_29
REMARK       I    between atoms: C11_29  and  N9_30
REMARK       I    between atoms: C11_29  and  N10_34
ROOT
HETATM    1  C3  UNL     1      30.122  40.001  10.104  1.00  0.00     0.708 A
HETATM    2  N2  UNL     1      29.878  39.604   8.851  1.00  0.00    -0.021 N
ATOM      3  H2  UNL     1      29.167  40.103   8.314  1.00  0.00     0.203 HD
HETATM    4  C4  UNL     1      30.521  38.580   8.261  1.00  0.00     0.713 A
HETATM    5  N6  UNL     1      31.452  37.943   8.995  1.00  0.00    -0.021 N
ATOM      6  H6  UNL     1      31.957  37.163   8.574  1.00  0.00     0.203 HD
HETATM    7  C9  UNL     1      31.745  38.294  10.262  1.00  0.00     0.710 A
HETATM    8  N7  UNL     1      32.620  37.714  10.986  1.00  0.00    -0.173 N
ATOM      9  H7  UNL     1      32.747  38.077  11.931  1.00  0.00     0.182 HD
HETATM   10  N11 UNL     1      31.059  39.342  10.810  1.00  0.00    -0.021 N
ATOM     11  H11 UNL     1      31.261  39.628  11.768  1.00  0.00     0.203 HD
ENDROOT
BRANCH   8  12
HETATM   12  C10 UNL     1      33.437  36.613  10.612  1.00  0.00     0.445 C
BRANCH  12  13
HETATM   13  O1  UNL     1      33.815  36.745   9.277  1.00  0.00    -0.354 OA
ATOM     14  H1  UNL     1      34.660  36.331   9.144  1.00  0.00     0.214 HD
ENDBRANCH  12  13
BRANCH  12  15
HETATM   15  N8  UNL     1      34.616  36.522  11.421  1.00  0.00     0.024 N
HETATM   16  C11 UNL     1      34.905  35.163  11.803  1.00  0.00     0.579 C
HETATM   17  N9  UNL     1      36.074  35.133  12.681  1.00  0.00    -0.026 N
HETATM   18  N10 UNL     1      35.227  34.406  10.581  1.00  0.00    -0.026 N
ATOM     19  H93 UNL     1      36.881  35.593  12.260  1.00  0.00     0.278 HD
ATOM     20  H92 UNL     1      35.960  35.742  13.490  1.00  0.00     0.278 HD
ATOM     21  H91 UNL     1      36.278  34.170  12.951  1.00  0.00     0.278 HD
ATOM     22 3H10 UNL     1      34.496  34.470   9.872  1.00  0.00     0.278 HD
ATOM     23 2H10 UNL     1      35.980  34.833  10.039  1.00  0.00     0.278 HD
ATOM     24 1H10 UNL     1      35.432  33.444  10.851  1.00  0.00     0.278 HD
ATOM     25  H82 UNL     1      35.416  36.955  10.960  1.00  0.00     0.287 HD
ATOM     26  H81 UNL     1      34.554  37.130  12.238  1.00  0.00     0.287 HD
ENDBRANCH  12  15
ENDBRANCH   8  12
BRANCH   4  27
HETATM   27  N3  UNL     1      30.248  38.227   7.028  1.00  0.00    -0.174 N
ATOM     28  H3  UNL     1      30.089  37.244   6.805  1.00  0.00     0.186 HD
BRANCH  27  29
HETATM   29  C5  UNL     1      30.171  39.199   6.011  1.00  0.00     0.136 A
HETATM   30  C6  UNL     1      31.057  40.259   6.061  1.00  0.00     0.137 A
HETATM   31  N4  UNL     1      31.013  41.214   5.099  1.00  0.00    -0.371 N
HETATM   32  C7  UNL     1      30.087  41.065   4.134  1.00  0.00     0.104 A
ATOM     33  H4  UNL     1      31.652  42.008   5.107  1.00  0.00     0.164 HD
HETATM   34  C8  UNL     1      29.209  40.013   4.088  1.00  0.00     0.106 A
HETATM   35  N5  UNL     1      29.253  39.067   5.039  1.00  0.00    -0.349 N
ATOM     36  H5  UNL     1      28.611  38.276   5.025  1.00  0.00     0.166 HD
ENDBRANCH  27  29
ENDBRANCH   4  27
BRANCH   1  37
HETATM   37  N1  UNL     1      29.398  41.108  10.684  1.00  0.00    -0.225 N
HETATM   38  C1  UNL     1      27.980  40.955  10.962  1.00  0.00     0.168 C
HETATM   39  C2  UNL     1      30.034  42.347  10.991  1.00  0.00     0.168 C
ENDBRANCH   1  37
TORSDOF 6
ENDMDL