MODEL 1
REMARK VINA RESULT: -5.877681493      0.000      0.000
REMARK  11 active torsions:
REMARK  status: ('A' for Active; 'I' for Inactive)
REMARK    1  A    between atoms: N1_1  and  C1_4
REMARK    2  A    between atoms: C2_9  and  C3_10
REMARK    3  A    between atoms: C3_10  and  S1_11
REMARK    4  A    between atoms: S1_11  and  C4_12
REMARK    5  A    between atoms: N5_16  and  C6_18
REMARK    6  A    between atoms: C6_18  and  O1_19
REMARK    7  A    between atoms: C6_18  and  N6_21
REMARK    8  A    between atoms: N6_21  and  N7_22
REMARK    9  A    between atoms: C9_25  and  O2_26
REMARK   10  A    between atoms: C10_28  and  O3_29
REMARK   11  A    between atoms: N8_33  and  N9_34
ROOT
HETATM    1  C4  UNL     1      31.184  40.725   9.143  1.00  0.00     0.170 C
HETATM    2  N4  UNL     1      31.381  41.971   8.704  1.00  0.00    -0.319 N
ATOM      3  H4  UNL     1      31.146  42.133   7.725  1.00  0.00     0.169 HD
HETATM    4  C5  UNL     1      31.848  43.042   9.373  1.00  0.00     0.143 C
HETATM    5  N5  UNL     1      31.885  44.100   8.716  1.00  0.00    -0.333 N
ATOM      6  H5  UNL     1      32.232  44.911   9.228  1.00  0.00     0.165 HD
HETATM    7  C9  UNL     1      32.326  43.115  10.685  1.00  0.00     0.149 C
HETATM    8  C10 UNL     1      32.483  42.035  11.535  1.00  0.00     0.173 C
HETATM    9  C11 UNL     1      32.590  40.673  11.139  1.00  0.00     0.304 C
HETATM   10  O4  UNL     1      33.346  39.983  11.825  1.00  0.00    -0.263 OA
HETATM   11  N8  UNL     1      31.911  40.105  10.087  1.00  0.00    -0.201 N
ENDROOT
BRANCH   1  12
HETATM   12  S1  UNL     1      29.699  39.846   8.580  1.00  0.00    -0.086 SA
BRANCH  12  13
HETATM   13  C3  UNL     1      30.411  38.801   7.211  1.00  0.00     0.146 C
BRANCH  13  14
HETATM   14  C2  UNL     1      30.379  39.534   5.950  1.00  0.00     0.104 A
HETATM   15  N3  UNL     1      31.221  40.496   5.589  1.00  0.00    -0.284 N
HETATM   16  N2  UNL     1      31.044  41.167   4.465  1.00  0.00    -0.132 N
ATOM     17  H3  UNL     1      32.016  40.719   6.188  1.00  0.00     0.187 HD
HETATM   18  C1  UNL     1      30.034  40.911   3.638  1.00  0.00     0.693 A
ATOM     19  H2  UNL     1      31.704  41.906   4.223  1.00  0.00     0.205 HD
HETATM   20  N10 UNL     1      29.147  39.915   3.997  1.00  0.00    -0.153 N
HETATM   21  C12 UNL     1      29.298  39.233   5.124  1.00  0.00     0.284 A
ATOM     22  H10 UNL     1      28.361  39.701   3.384  1.00  0.00     0.187 HD
HETATM   23  O5  UNL     1      28.487  38.319   5.458  1.00  0.00    -0.265 OA
BRANCH  18  24
HETATM   24  N1  UNL     1      29.802  41.495   2.532  1.00  0.00    -0.233 N
ATOM     25  H12 UNL     1      30.423  42.268   2.294  1.00  0.00     0.174 HD
ATOM     26  H11 UNL     1      29.058  41.265   1.874  1.00  0.00     0.174 HD
ENDBRANCH  18  24
ENDBRANCH  13  14
ENDBRANCH  12  13
ENDBRANCH   1  12
BRANCH  11  27
HETATM   27  N9  UNL     1      31.950  38.738  10.034  1.00  0.00    -0.334 N
ATOM     28  H92 UNL     1      32.177  38.342   9.122  1.00  0.00     0.177 HD
ATOM     29  H91 UNL     1      31.786  38.240  10.909  1.00  0.00     0.177 HD
ENDBRANCH  11  27
BRANCH   5  30
HETATM   30  C6  UNL     1      31.516  44.357   7.350  1.00  0.00     0.333 C
BRANCH  30  31
HETATM   31  O1  UNL     1      31.828  43.241   6.588  1.00  0.00    -0.362 OA
ATOM     32  H1  UNL     1      32.307  42.627   7.132  1.00  0.00     0.213 HD
ENDBRANCH  30  31
BRANCH  30  33
HETATM   33  N6  UNL     1      30.001  44.298   7.453  1.00  0.00    -0.112 NA
BRANCH  33  34
HETATM   34  N7  UNL     1      29.690  43.433   6.388  1.00  0.00    -0.228 NA
HETATM   35  C7  UNL     1      28.717  43.913   5.402  1.00  0.00     0.125 A
HETATM   36  C8  UNL     1      28.465  42.730   6.308  1.00  0.00     0.125 A
ENDBRANCH  33  34
ENDBRANCH  30  33
ENDBRANCH   5  30
BRANCH   7  37
HETATM   37  O2  UNL     1      32.656  44.331  11.165  1.00  0.00    -0.355 OA
ATOM     38  H2  UNL     1      32.869  44.398  12.088  1.00  0.00     0.218 HD
ENDBRANCH   7  37
BRANCH   8  39
HETATM   39  O3  UNL     1      32.541  42.253  12.884  1.00  0.00    -0.353 OA
ATOM     40  H3  UNL     1      33.353  42.560  13.268  1.00  0.00     0.218 HD
ENDBRANCH   8  39
TORSDOF 11
ENDMDL