MODEL 4
REMARK VINA RESULT: -6.440823575      2.631      4.281
REMARK  12 active torsions:
REMARK  status: ('A' for Active; 'I' for Inactive)
REMARK    1  A    between atoms: N1_1  and  C1_4
REMARK    2  A    between atoms: C4_12  and  N4_13
REMARK    3  A    between atoms: C5_17  and  C6_18
REMARK    4  A    between atoms: C6_18  and  O2_19
REMARK    5  A    between atoms: C7_21  and  C8_22
REMARK    6  A    between atoms: N8_24  and  N9_26
REMARK    7  A    between atoms: N10_29  and  C9_30
REMARK    8  A    between atoms: C9_30  and  C10_31
REMARK    9  A    between atoms: C10_31  and  C11_32
REMARK   10  A    between atoms: C11_32  and  C12_34
REMARK   11  A    between atoms: C12_34  and  O4_35
REMARK   12  A    between atoms: C12_34  and  O5_37
ROOT
HETATM    1  C1  UNL     1      29.444  40.990   4.192  1.00  0.00     0.680 A
HETATM    2  N2  UNL     1      29.448  39.626   4.248  1.00  0.00    -0.154 N
ATOM      3  H2  UNL     1      29.507  39.089   3.383  1.00  0.00     0.187 HD
HETATM    4  C2  UNL     1      29.377  38.981   5.421  1.00  0.00     0.290 A
HETATM    5  O1  UNL     1      29.379  37.733   5.503  1.00  0.00    -0.265 OA
HETATM    6  C3  UNL     1      29.296  39.716   6.578  1.00  0.00     0.162 A
HETATM    7  N3  UNL     1      29.214  39.381   7.894  1.00  0.00    -0.180 N
ATOM      8  H3  UNL     1      29.198  38.427   8.257  1.00  0.00     0.184 HD
HETATM    9  C4  UNL     1      29.158  40.496   8.645  1.00  0.00     0.707 A
HETATM   10  N10 UNL     1      29.208  41.524   7.779  1.00  0.00    -0.163 N
HETATM   11  C13 UNL     1      29.292  41.096   6.515  1.00  0.00     0.172 A
HETATM   12  N11 UNL     1      29.366  41.731   5.309  1.00  0.00    -0.174 N
ATOM     13  H11 UNL     1      29.363  42.750   5.257  1.00  0.00     0.186 HD
ENDROOT
BRANCH   9  14
HETATM   14  N4  UNL     1      29.063  40.500  10.064  1.00  0.00    -0.065 N
HETATM   15  N5  UNL     1      28.010  40.915  10.788  1.00  0.00     0.001 NA
HETATM   16  N6  UNL     1      28.272  40.776  12.089  1.00  0.00    -0.283 N
HETATM   17  C5  UNL     1      29.504  40.267  12.235  1.00  0.00     0.079 A
ATOM     18  H6  UNL     1      27.638  41.018  12.850  1.00  0.00     0.184 HD
HETATM   19  C7  UNL     1      29.991  40.098  10.952  1.00  0.00     0.141 A
BRANCH  17  20
HETATM   20  C6  UNL     1      30.213  39.948  13.488  1.00  0.00     0.224 C
BRANCH  20  21
HETATM   21  O2  UNL     1      30.281  38.571  13.695  1.00  0.00    -0.395 OA
ATOM     22  H2  UNL     1      30.502  38.368  14.596  1.00  0.00     0.209 HD
ENDBRANCH  20  21
ENDBRANCH  17  20
BRANCH  19  23
HETATM   23  C8  UNL     1      31.304  39.564  10.665  1.00  0.00     0.161 C
HETATM   24  N7  UNL     1      32.342  40.456  10.316  1.00  0.00    -0.079 NA
HETATM   25  N8  UNL     1      31.572  38.312  10.713  1.00  0.00    -0.292 N
ATOM     26  H8  UNL     1      30.813  37.679  10.968  1.00  0.00     0.187 HD
BRANCH  25  27
HETATM   27  N9  UNL     1      32.802  37.755  10.450  1.00  0.00    -0.344 N
ATOM     28  H92 UNL     1      33.605  38.197  10.897  1.00  0.00     0.176 HD
ATOM     29  H91 UNL     1      32.963  36.946   9.849  1.00  0.00     0.176 HD
ENDBRANCH  25  27
ENDBRANCH  19  23
ENDBRANCH   9  14
BRANCH  10  30
HETATM   30  C9  UNL     1      29.175  42.915   8.155  1.00  0.00     0.157 C
BRANCH  30  31
HETATM   31  C10 UNL     1      30.526  43.301   8.712  1.00  0.00     0.104 C
BRANCH  31  32
HETATM   32  C11 UNL     1      31.544  43.436   7.640  1.00  0.00     0.182 C
HETATM   33  O3  UNL     1      31.250  44.077   6.649  1.00  0.00    -0.293 OA
BRANCH  32  34
HETATM   34  C12 UNL     1      32.894  42.828   7.719  1.00  0.00     0.325 C
BRANCH  34  35
HETATM   35  O4  UNL     1      33.431  42.906   8.999  1.00  0.00    -0.365 OA
ATOM     36  H4  UNL     1      33.352  42.086   9.471  1.00  0.00     0.213 HD
ENDBRANCH  34  35
BRANCH  34  37
HETATM   37  O5  UNL     1      32.803  41.482   7.379  1.00  0.00    -0.365 OA
ATOM     38  H5  UNL     1      33.210  40.964   8.063  1.00  0.00     0.213 HD
ENDBRANCH  34  37
ENDBRANCH  32  34
ENDBRANCH  31  32
ENDBRANCH  30  31
ENDBRANCH  10  30
BRANCH   1  39
HETATM   39  N1  UNL     1      29.513  41.611   3.066  1.00  0.00    -0.234 N
ATOM     40  H12 UNL     1      29.332  41.075   2.217  1.00  0.00     0.174 HD
ATOM     41  H11 UNL     1      29.741  42.604   3.024  1.00  0.00     0.174 HD
ENDBRANCH   1  39
TORSDOF 12
ENDMDL