MODEL 5
REMARK VINA RESULT: -6.515957252      2.739      9.003
REMARK  10 active torsions:
REMARK  status: ('A' for Active; 'I' for Inactive)
REMARK    1  A    between atoms: N1_2  and  C2_4
REMARK    2  A    between atoms: N1_2  and  C4_7
REMARK    3  A    between atoms: C4_7  and  C5_8
REMARK    4  A    between atoms: C5_8  and  N3_9
REMARK    5  A    between atoms: C7_14  and  C8_15
REMARK    6  A    between atoms: C8_15  and  O2_16
REMARK    7  A    between atoms: C8_15  and  O3_18
REMARK    8  A    between atoms: N5_20  and  C9_21
REMARK    9  A    between atoms: C10_24  and  N7_25
REMARK   10  A    between atoms: C11_30  and  N9_31
ROOT
HETATM    1  C2  UNL     1      32.136  39.517   9.845  1.00  0.00     0.434 C
HETATM    2  C3  UNL     1      32.134  38.085  10.030  1.00  0.00     0.095 C
HETATM    3  N2  UNL     1      32.136  36.939  10.178  1.00  0.00    -0.195 NA
ENDROOT
BRANCH   1   4
HETATM    4  N1  UNL     1      31.046  39.906   8.942  1.00  0.00     0.023 N
HETATM    5  C1  UNL     1      29.819  39.939   9.687  1.00  0.00     0.357 C
HETATM    6  O1  UNL     1      31.343  41.140   8.485  1.00  0.00    -0.064 OA
BRANCH   4   7
HETATM    7  C4  UNL     1      30.976  38.987   7.813  1.00  0.00     0.332 C
BRANCH   7   8
HETATM    8  C5  UNL     1      29.489  38.870   7.417  1.00  0.00     0.174 C
BRANCH   8   9
HETATM    9  N3  UNL     1      29.362  39.099   6.059  1.00  0.00    -0.222 N
HETATM   10  C6  UNL     1      29.227  40.051   5.268  1.00  0.00     0.716 A
HETATM   11  N4  UNL     1      29.136  39.822   3.910  1.00  0.00    -0.172 N
HETATM   12  N14 UNL     1      29.164  41.336   5.678  1.00  0.00     0.106 N
HETATM   13  C7  UNL     1      28.990  40.831   3.044  1.00  0.00     0.194 A
ATOM     14  H4  UNL     1      29.180  38.865   3.560  1.00  0.00     0.185 HD
HETATM   15  N5  UNL     1      28.928  42.107   3.450  1.00  0.00     0.044 N
HETATM   16  C12 UNL     1      29.016  42.353   4.778  1.00  0.00     0.756 A
HETATM   17  N11 UNL     1      28.978  43.546   5.409  1.00  0.00    -0.018 N
HETATM   18  C13 UNL     1      29.101  43.293   6.704  1.00  0.00     0.706 A
ATOM     19  H11 UNL     1      28.874  44.463   4.974  1.00  0.00     0.203 HD
HETATM   20  N12 UNL     1      29.117  44.125   7.686  1.00  0.00    -0.233 N
HETATM   21  N13 UNL     1      29.214  41.945   6.856  1.00  0.00    -0.096 N
ATOM     22 2H12 UNL     1      29.032  45.135   7.572  1.00  0.00     0.174 HD
ATOM     23 1H12 UNL     1      29.211  43.930   8.683  1.00  0.00     0.174 HD
ATOM     24  H13 UNL     1      29.322  41.469   7.751  1.00  0.00     0.207 HD
ATOM     25  H3  UNL     1      29.388  38.217   5.548  1.00  0.00     0.177 HD
BRANCH  13  26
HETATM   26  C8  UNL     1      28.891  40.575   1.574  1.00  0.00     0.325 C
BRANCH  26  27
HETATM   27  O2  UNL     1      29.886  39.621   1.259  1.00  0.00    -0.365 OA
ATOM     28  H2  UNL     1      29.882  39.523   0.314  1.00  0.00     0.213 HD
ENDBRANCH  26  27
BRANCH  26  29
HETATM   29  O3  UNL     1      27.669  39.939   1.363  1.00  0.00    -0.365 OA
ATOM     30  H3  UNL     1      27.509  39.397   2.127  1.00  0.00     0.213 HD
ENDBRANCH  26  29
ENDBRANCH  13  26
BRANCH  15  31
HETATM   31  C9  UNL     1      28.773  43.122   2.471  1.00  0.00     0.734 A
HETATM   32  N6  UNL     1      27.636  43.866   2.427  1.00  0.00    -0.020 N
HETATM   33  C10 UNL     1      27.470  44.836   1.504  1.00  0.00     0.705 A
ATOM     34  H6  UNL     1      26.894  43.687   3.105  1.00  0.00     0.203 HD
HETATM   35  N8  UNL     1      28.428  45.087   0.607  1.00  0.00    -0.022 N
HETATM   36  C11 UNL     1      29.572  44.370   0.618  1.00  0.00     0.705 A
ATOM     37  H8  UNL     1      28.295  45.822  -0.088  1.00  0.00     0.203 HD
HETATM   38  N10 UNL     1      29.703  43.417   1.547  1.00  0.00    -0.020 N
ATOM     39  H10 UNL     1      30.568  42.877   1.554  1.00  0.00     0.203 HD
BRANCH  33  40
HETATM   40  N7  UNL     1      26.395  45.558   1.443  1.00  0.00    -0.234 N
ATOM     41  H72 UNL     1      25.628  45.309   2.068  1.00  0.00     0.174 HD
ATOM     42  H71 UNL     1      26.303  46.346   0.801  1.00  0.00     0.174 HD
ENDBRANCH  33  40
BRANCH  36  43
HETATM   43  N9  UNL     1      30.510  44.618  -0.263  1.00  0.00    -0.234 N
ATOM     44  H92 UNL     1      30.430  45.375  -0.941  1.00  0.00     0.174 HD
ATOM     45  H91 UNL     1      31.354  44.046  -0.285  1.00  0.00     0.174 HD
ENDBRANCH  36  43
ENDBRANCH  15  31
ENDBRANCH   8   9
ENDBRANCH   7   8
ENDBRANCH   4   7
ENDBRANCH   1   4
TORSDOF 10
ENDMDL