MODEL 1
REMARK VINA RESULT: -6.968269016      0.000      0.000
REMARK  13 active torsions:
REMARK  status: ('A' for Active; 'I' for Inactive)
REMARK    1  A    between atoms: C2_3  and  N2_4
REMARK    2  A    between atoms: N2_4  and  C3_6
REMARK    3  A    between atoms: C4_9  and  N4_10
REMARK       I    between atoms: N5_13  and  C5_14
REMARK    4  A    between atoms: C5_14  and  C6_16
REMARK    5  A    between atoms: C6_16  and  O2_17
REMARK    6  A    between atoms: C6_16  and  O3_19
REMARK    7  A    between atoms: C7_25  and  N8_26
REMARK    8  A    between atoms: C8_31  and  O4_32
REMARK    9  A    between atoms: O4_32  and  C9_33
REMARK   10  A    between atoms: C9_33  and  C10_34
REMARK   11  A    between atoms: C10_34  and  C11_35
REMARK   12  A    between atoms: C11_35  and  O6_37
REMARK   13  A    between atoms: O6_37  and  C12_38
ROOT
HETATM    1  C1  UNL     1      31.125  43.122   6.941  1.00  0.00     0.179 C
HETATM    2  N1  UNL     1      30.609  41.886   6.431  1.00  0.00    -0.149 N
HETATM    3  C2  UNL     1      30.948  40.742   7.037  1.00  0.00     0.716 A
HETATM    4  N7  UNL     1      30.459  39.595   6.550  1.00  0.00    -0.022 N
ATOM      5  H7  UNL     1      30.706  38.712   6.997  1.00  0.00     0.203 HD
HETATM    6  C7  UNL     1      29.635  39.595   5.461  1.00  0.00     0.693 A
HETATM    7  N9  UNL     1      29.318  40.778   4.877  1.00  0.00    -0.154 N
ATOM      8  H9  UNL     1      28.702  40.790   4.063  1.00  0.00     0.188 HD
HETATM    9  C8  UNL     1      29.801  41.929   5.356  1.00  0.00     0.254 A
ENDROOT
BRANCH   3  10
HETATM   10  N2  UNL     1      31.798  40.764   8.157  1.00  0.00    -0.019 N
ATOM     11  H2  UNL     1      32.761  41.058   7.995  1.00  0.00     0.203 HD
BRANCH  10  12
HETATM   12  C3  UNL     1      31.488  40.456   9.345  1.00  0.00     0.727 A
HETATM   13  N3  UNL     1      30.733  41.205  10.155  1.00  0.00    -0.019 N
HETATM   14  C4  UNL     1      30.598  40.598  11.335  1.00  0.00     0.715 A
ATOM     15  H3  UNL     1      30.323  42.105   9.908  1.00  0.00     0.203 HD
HETATM   16  N5  UNL     1      31.292  39.403  11.294  1.00  0.00    -0.032 N
HETATM   17  C5  UNL     1      31.363  38.501  12.378  1.00  0.00     0.314 C
HETATM   18  N6  UNL     1      31.805  39.366  10.085  1.00  0.00    -0.107 N
HETATM   19  O1  UNL     1      30.743  38.820  13.457  1.00  0.00    -0.265 OA
ATOM     20  H6  UNL     1      32.382  38.599   9.740  1.00  0.00     0.207 HD
BRANCH  14  21
HETATM   21  N4  UNL     1      29.932  41.032  12.366  1.00  0.00    -0.232 N
ATOM     22  H42 UNL     1      30.134  41.899  12.865  1.00  0.00     0.174 HD
ATOM     23  H41 UNL     1      29.132  40.582  12.813  1.00  0.00     0.174 HD
ENDBRANCH  14  21
BRANCH  17  24
HETATM   24  C6  UNL     1      32.076  37.240  12.387  1.00  0.00     0.351 C
BRANCH  24  25
HETATM   25  O2  UNL     1      32.240  36.722  11.124  1.00  0.00    -0.363 OA
ATOM     26  H2  UNL     1      32.493  35.806  11.138  1.00  0.00     0.213 HD
ENDBRANCH  24  25
BRANCH  24  27
HETATM   27  O3  UNL     1      31.270  36.311  13.088  1.00  0.00    -0.363 OA
ATOM     28  H3  UNL     1      30.496  36.157  12.559  1.00  0.00     0.213 HD
ENDBRANCH  24  27
ENDBRANCH  17  24
ENDBRANCH  10  12
ENDBRANCH   3  10
BRANCH   9  29
HETATM   29  O4  UNL     1      29.482  43.135   4.767  1.00  0.00    -0.321 OA
BRANCH  29  30
HETATM   30  C9  UNL     1      28.272  43.226   4.051  1.00  0.00     0.188 C
BRANCH  30  31
HETATM   31  C10 UNL     1      28.482  43.753   2.651  1.00  0.00     0.138 C
BRANCH  31  32
HETATM   32  C11 UNL     1      29.083  42.693   1.804  1.00  0.00     0.268 C
HETATM   33  O5  UNL     1      30.296  42.688   1.593  1.00  0.00    -0.265 OA
BRANCH  32  34
HETATM   34  O6  UNL     1      28.272  41.735   1.273  1.00  0.00    -0.248 OA
BRANCH  34  35
HETATM   35  C12 UNL     1      28.323  40.398   1.571  1.00  0.00     0.232 C
HETATM   36  N10 UNL     1      29.076  39.582   1.012  1.00  0.00    -0.367 N
ATOM     37 2H10 UNL     1      29.717  39.876   0.275  1.00  0.00     0.159 HD
ATOM     38 1H10 UNL     1      29.114  38.586   1.233  1.00  0.00     0.159 HD
HETATM   39  N11 UNL     1      27.409  39.979   2.621  1.00  0.00    -0.056 NA
ENDBRANCH  34  35
ENDBRANCH  32  34
ENDBRANCH  31  32
ENDBRANCH  30  31
ENDBRANCH  29  30
ENDBRANCH   9  29
BRANCH   6  40
HETATM   40  N8  UNL     1      29.143  38.527   4.958  1.00  0.00    -0.234 N
ATOM     41  H82 UNL     1      29.021  37.722   5.572  1.00  0.00     0.174 HD
ATOM     42  H81 UNL     1      28.871  38.447   3.978  1.00  0.00     0.174 HD
ENDBRANCH   6  40
TORSDOF 13
ENDMDL