MODEL 4
REMARK VINA RESULT: -7.400748329      1.471      2.124
REMARK  11 active torsions:
REMARK  status: ('A' for Active; 'I' for Inactive)
REMARK    1  A    between atoms: N1_1  and  C1_4
REMARK    2  A    between atoms: C4_10  and  C5_11
REMARK    3  A    between atoms: C5_11  and  C6_12
REMARK    4  A    between atoms: C6_12  and  N3_13
REMARK    5  A    between atoms: C6_12  and  C7_17
REMARK    6  A    between atoms: C7_17  and  O2_18
REMARK    7  A    between atoms: C7_17  and  C8_20
REMARK    8  A    between atoms: N5_22  and  N6_24
REMARK    9  A    between atoms: N7_28  and  C10_29
REMARK   10  A    between atoms: C12_33  and  N9_34
REMARK   11  A    between atoms: N10_37  and  O5_38
ROOT
HETATM    1  C1  UNL     1      31.719  38.610   9.186  1.00  0.00     0.680 A
HETATM    2  N2  UNL     1      30.843  38.053   8.304  1.00  0.00    -0.155 N
ATOM      3  H2  UNL     1      30.653  37.051   8.318  1.00  0.00     0.187 HD
HETATM    4  C2  UNL     1      30.234  38.857   7.413  1.00  0.00     0.274 A
HETATM    5  O1  UNL     1      29.425  38.350   6.598  1.00  0.00    -0.267 OA
HETATM    6  C3  UNL     1      30.493  40.223   7.394  1.00  0.00     0.086 A
HETATM    7  C4  UNL     1      30.030  41.275   6.617  1.00  0.00    -0.020 A
HETATM    8  C9  UNL     1      30.663  42.371   7.094  1.00  0.00     0.125 A
HETATM    9  N7  UNL     1      31.498  42.076   8.124  1.00  0.00    -0.139 N
HETATM   10  C13 UNL     1      31.384  40.751   8.299  1.00  0.00     0.160 A
HETATM   11  N11 UNL     1      31.989  39.924   9.191  1.00  0.00    -0.175 N
ATOM     12  H11 UNL     1      32.651  40.304   9.867  1.00  0.00     0.186 HD
ENDROOT
BRANCH   7  13
HETATM   13  C5  UNL     1      29.049  41.044   5.542  1.00  0.00     0.077 C
BRANCH  13  14
HETATM   14  C6  UNL     1      29.465  41.550   4.193  1.00  0.00     0.223 C
BRANCH  14  15
HETATM   15  N3  UNL     1      30.829  41.088   3.883  1.00  0.00    -0.072 N
ATOM     16  H33 UNL     1      31.239  40.561   4.653  1.00  0.00     0.274 HD
ATOM     17  H32 UNL     1      30.832  40.349   3.179  1.00  0.00     0.274 HD
ATOM     18  H31 UNL     1      31.410  41.880   3.608  1.00  0.00     0.274 HD
ENDBRANCH  14  15
BRANCH  14  19
HETATM   19  C7  UNL     1      28.520  41.221   3.092  1.00  0.00     0.214 C
BRANCH  19  20
HETATM   20  O2  UNL     1      28.194  39.827   3.246  1.00  0.00    -0.386 OA
ATOM     21  H2  UNL     1      27.635  39.770   4.012  1.00  0.00     0.210 HD
ENDBRANCH  19  20
BRANCH  19  22
HETATM   22  C8  UNL     1      29.129  41.226   1.723  1.00  0.00     0.138 C
HETATM   23  N4  UNL     1      29.641  42.528   1.307  1.00  0.00    -0.083 NA
HETATM   24  N5  UNL     1      29.226  40.326   0.895  1.00  0.00    -0.296 N
ATOM     25  H5  UNL     1      29.699  40.679   0.064  1.00  0.00     0.187 HD
BRANCH  24  26
HETATM   26  N6  UNL     1      28.920  39.034   0.717  1.00  0.00    -0.344 N
ATOM     27  H62 UNL     1      28.552  38.929  -0.229  1.00  0.00     0.176 HD
ATOM     28  H61 UNL     1      28.932  38.138   1.205  1.00  0.00     0.176 HD
ENDBRANCH  24  26
ENDBRANCH  19  22
ENDBRANCH  14  19
ENDBRANCH  13  14
ENDBRANCH   7  13
BRANCH   9  29
HETATM   29  C10 UNL     1      32.313  43.009   8.840  1.00  0.00     0.718 A
HETATM   30  N8  UNL     1      32.142  43.495  10.079  1.00  0.00    -0.195 N
HETATM   31  C11 UNL     1      33.142  44.353  10.380  1.00  0.00     0.164 A
ATOM     32  H8  UNL     1      31.372  43.253  10.702  1.00  0.00     0.183 HD
HETATM   33  C12 UNL     1      33.961  44.394   9.274  1.00  0.00     0.234 A
HETATM   34  N10 UNL     1      33.420  43.561   8.360  1.00  0.00    -0.027 N
BRANCH  33  35
HETATM   35  N9  UNL     1      35.136  45.164   9.137  1.00  0.00    -0.093 N
HETATM   36  O3  UNL     1      36.208  44.625   8.814  1.00  0.00    -0.530 OA
HETATM   37  O4  UNL     1      35.130  46.519   9.356  1.00  0.00    -0.530 OA
ENDBRANCH  33  35
BRANCH  34  38
HETATM   38  O5  UNL     1      33.958  43.337   7.124  1.00  0.00    -0.268 OA
ATOM     39  H5  UNL     1      33.703  42.647   6.522  1.00  0.00     0.246 HD
ENDBRANCH  34  38
ENDBRANCH   9  29
BRANCH   1  40
HETATM   40  N1  UNL     1      32.290  37.828  10.029  1.00  0.00    -0.234 N
ATOM     41  H12 UNL     1      31.948  36.876  10.161  1.00  0.00     0.174 HD
ATOM     42  H11 UNL     1      33.086  38.197  10.549  1.00  0.00     0.174 HD
ENDBRANCH   1  40
TORSDOF 11
ENDMDL