MODEL 1
REMARK VINA RESULT: -6.637010173      0.000      0.000
REMARK  12 active torsions:
REMARK  status: ('A' for Active; 'I' for Inactive)
REMARK       I    between atoms: C2_2  and  N1_4
REMARK    1  A    between atoms: N1_4  and  C3_5
REMARK    2  A    between atoms: N1_4  and  C15_38
REMARK    3  A    between atoms: C3_5  and  C4_6
REMARK    4  A    between atoms: C5_9  and  N3_10
REMARK    5  A    between atoms: N3_10  and  N4_12
REMARK    6  A    between atoms: N4_12  and  C6_14
REMARK    7  A    between atoms: C11_20  and  O3_21
REMARK       I    between atoms: N6_26  and  C13_27
REMARK    8  A    between atoms: C13_27  and  C14_29
REMARK    9  A    between atoms: C14_29  and  N7_30
REMARK   10  A    between atoms: C14_29  and  N8_34
REMARK   11  A    between atoms: C15_38  and  N9_39
REMARK   12  A    between atoms: C15_38  and  O5_43
ROOT
HETATM    1  C4  UNL     1      32.418  37.972  12.457  1.00  0.00     0.141 A
HETATM    2  N2  UNL     1      31.763  38.377  11.329  1.00  0.00    -0.174 N
ATOM      3  H2  UNL     1      30.956  39.000  11.308  1.00  0.00     0.185 HD
HETATM    4  C5  UNL     1      32.346  37.826  10.254  1.00  0.00     0.713 A
HETATM    5  N5  UNL     1      33.356  37.088  10.733  1.00  0.00    -0.120 N
ATOM      6  H5  UNL     1      33.997  36.540  10.159  1.00  0.00     0.206 HD
HETATM    7  N6  UNL     1      33.409  37.169  12.070  1.00  0.00    -0.191 N
HETATM    8  C13 UNL     1      34.393  36.488  12.819  1.00  0.00     0.302 C
HETATM    9  O4  UNL     1      34.401  36.617  14.068  1.00  0.00    -0.267 OA
ENDROOT
BRANCH   4  10
HETATM   10  N3  UNL     1      31.934  38.020   8.900  1.00  0.00    -0.130 N
ATOM     11  H3  UNL     1      32.461  37.581   8.146  1.00  0.00     0.205 HD
BRANCH  10  12
HETATM   12  N4  UNL     1      30.835  38.793   8.603  1.00  0.00    -0.286 N
ATOM     13  H4  UNL     1      30.174  39.016   9.349  1.00  0.00     0.187 HD
BRANCH  12  14
HETATM   14  C6  UNL     1      30.589  39.286   7.314  1.00  0.00     0.051 C
HETATM   15  C7  UNL     1      29.812  38.510   6.470  1.00  0.00     0.031 C
HETATM   16  C8  UNL     1      29.080  38.878   5.351  1.00  0.00     0.006 C
HETATM   17  C9  UNL     1      29.154  40.034   4.604  1.00  0.00     0.058 C
HETATM   18  C10 UNL     1      29.978  41.114   4.842  1.00  0.00     0.204 C
HETATM   19  O2  UNL     1      30.071  41.965   3.936  1.00  0.00    -0.285 OA
HETATM   20  C11 UNL     1      30.734  41.379   5.989  1.00  0.00     0.118 C
HETATM   21  C12 UNL     1      31.133  40.504   6.973  1.00  0.00     0.071 C
BRANCH  20  22
HETATM   22  O3  UNL     1      31.115  42.704   6.127  1.00  0.00    -0.357 OA
ATOM     23  H3  UNL     1      31.103  43.023   7.022  1.00  0.00     0.218 HD
ENDBRANCH  20  22
ENDBRANCH  12  14
ENDBRANCH  10  12
ENDBRANCH   4  10
BRANCH   1  24
HETATM   24  C3  UNL     1      32.020  38.407  13.792  1.00  0.00     0.209 C
BRANCH  24  25
HETATM   25  N1  UNL     1      30.642  38.060  14.113  1.00  0.00    -0.296 N
HETATM   26  C2  UNL     1      30.254  36.753  14.483  1.00  0.00     0.219 C
HETATM   27  C1  UNL     1      28.883  36.364  14.813  1.00  0.00     0.117 C
HETATM   28  O1  UNL     1      31.163  35.866  14.529  1.00  0.00    -0.274 OA
BRANCH  25  29
HETATM   29  C15 UNL     1      29.655  39.100  14.045  1.00  0.00     0.428 C
BRANCH  29  30
HETATM   30  N9  UNL     1      30.047  40.135  14.987  1.00  0.00    -0.035 N
ATOM     31  H93 UNL     1      30.968  39.975  15.393  1.00  0.00     0.279 HD
ATOM     32  H92 UNL     1      30.252  41.026  14.536  1.00  0.00     0.279 HD
ATOM     33  H91 UNL     1      29.310  40.205  15.689  1.00  0.00     0.279 HD
ENDBRANCH  29  30
BRANCH  29  34
HETATM   34  O5  UNL     1      29.490  39.614  12.764  1.00  0.00    -0.354 OA
ATOM     35  H5  UNL     1      28.762  39.222  12.295  1.00  0.00     0.213 HD
ENDBRANCH  29  34
ENDBRANCH  25  29
ENDBRANCH  24  25
ENDBRANCH   1  24
BRANCH   8  36
HETATM   36  C14 UNL     1      35.428  35.623  12.230  1.00  0.00     0.470 C
BRANCH  36  37
HETATM   37  N7  UNL     1      34.965  34.313  11.888  1.00  0.00    -0.041 N
ATOM     38  H73 UNL     1      34.395  33.927  12.640  1.00  0.00     0.277 HD
ATOM     39  H72 UNL     1      34.265  34.363  11.148  1.00  0.00     0.277 HD
ATOM     40  H71 UNL     1      35.710  33.664  11.633  1.00  0.00     0.277 HD
ENDBRANCH  36  37
BRANCH  36  41
HETATM   41  N8  UNL     1      36.599  35.517  13.120  1.00  0.00    -0.041 N
ATOM     42  H83 UNL     1      36.337  35.185  14.048  1.00  0.00     0.277 HD
ATOM     43  H82 UNL     1      37.210  34.748  12.846  1.00  0.00     0.277 HD
ATOM     44  H81 UNL     1      37.105  36.402  13.167  1.00  0.00     0.277 HD
ENDBRANCH  36  41
ENDBRANCH   8  36
TORSDOF 12
ENDMDL