MODEL 1
REMARK VINA RESULT: -7.066251610      0.000      0.000
REMARK  8 active torsions:
REMARK  status: ('A' for Active; 'I' for Inactive)
REMARK    1  A    between atoms: O1_2  and  C2_3
REMARK    2  A    between atoms: C2_3  and  O2_4
REMARK    3  A    between atoms: C2_3  and  C3_6
REMARK    4  A    between atoms: C4_11  and  N3_12
REMARK       I    between atoms: N3_12  and  C5_14
REMARK       I    between atoms: C5_14  and  N5_18
REMARK    5  A    between atoms: N5_18  and  N6_20
REMARK    6  A    between atoms: C8_31  and  N10_32
REMARK    7  A    between atoms: N11_36  and  C9_37
REMARK    8  A    between atoms: C9_37  and  C10_38
ROOT
HETATM    1  C3  UNL     1      31.022  39.703   8.122  1.00  0.00     0.208 C
HETATM    2  N1  UNL     1      29.639  39.515   7.655  1.00  0.00    -0.307 N
ATOM      3  H1  UNL     1      28.900  39.513   8.358  1.00  0.00     0.181 HD
HETATM    4  N2  UNL     1      29.258  39.339   6.322  1.00  0.00    -0.134 N
ATOM      5  H2  UNL     1      28.432  38.761   6.163  1.00  0.00     0.205 HD
HETATM    6  C4  UNL     1      29.836  39.827   5.248  1.00  0.00     0.725 C
HETATM    7  N7  UNL     1      31.011  40.667   5.276  1.00  0.00    -0.130 N
ATOM      8  H7  UNL     1      31.533  40.776   4.407  1.00  0.00     0.205 HD
HETATM    9  N8  UNL     1      31.489  41.347   6.410  1.00  0.00    -0.286 N
ATOM     10  H8  UNL     1      31.873  42.272   6.220  1.00  0.00     0.187 HD
HETATM   11  C6  UNL     1      31.524  40.985   7.686  1.00  0.00     0.077 C
HETATM   12  C7  UNL     1      32.095  42.006   8.534  1.00  0.00     0.036 C
HETATM   13  N9  UNL     1      32.271  41.988   9.787  1.00  0.00    -0.348 N
ATOM     14  H9  UNL     1      31.969  41.137  10.260  1.00  0.00     0.163 HD
HETATM   15  C8  UNL     1      32.837  42.998  10.634  1.00  0.00     0.385 C
HETATM   16  N11 UNL     1      33.558  44.003   9.930  1.00  0.00    -0.361 N
HETATM   17  C11 UNL     1      33.840  43.679   8.565  1.00  0.00     0.127 C
HETATM   18  C12 UNL     1      32.551  43.289   7.872  1.00  0.00     0.078 C
ENDROOT
BRANCH   1  19
HETATM   19  C2  UNL     1      31.190  39.242   9.503  1.00  0.00     0.286 C
BRANCH  19  20
HETATM   20  O1  UNL     1      31.459  37.923   9.725  1.00  0.00    -0.364 OA
HETATM   21  C1  UNL     1      32.365  37.712  10.751  1.00  0.00     0.204 C
ENDBRANCH  19  20
BRANCH  19  22
HETATM   22  O2  UNL     1      30.196  39.778  10.342  1.00  0.00    -0.369 OA
ATOM     23  H2  UNL     1      30.187  40.728  10.379  1.00  0.00     0.212 HD
ENDBRANCH  19  22
ENDBRANCH   1  19
BRANCH   6  24
HETATM   24  N3  UNL     1      29.304  39.539   3.984  1.00  0.00    -0.018 N
HETATM   25  C5  UNL     1      28.874  40.493   3.033  1.00  0.00     0.709 C
HETATM   26  N4  UNL     1      27.721  41.063   3.145  1.00  0.00    -0.233 N
HETATM   27  N5  UNL     1      29.758  40.798   1.956  1.00  0.00    -0.072 N
ATOM     28  H42 UNL     1      27.089  40.845   3.915  1.00  0.00     0.174 HD
ATOM     29  H41 UNL     1      27.411  41.751   2.459  1.00  0.00     0.174 HD
ATOM     30  H5  UNL     1      30.425  40.108   1.611  1.00  0.00     0.212 HD
ATOM     31  H3  UNL     1      29.220  38.555   3.727  1.00  0.00     0.203 HD
BRANCH  27  32
HETATM   32  N6  UNL     1      29.680  42.066   1.391  1.00  0.00    -0.024 N
HETATM   33  O3  UNL     1      29.483  42.252   0.179  1.00  0.00    -0.516 OA
HETATM   34  O4  UNL     1      29.830  43.157   2.205  1.00  0.00    -0.516 OA
ENDBRANCH  27  32
ENDBRANCH   6  24
BRANCH  15  35
HETATM   35  N10 UNL     1      31.873  43.644  11.493  1.00  0.00    -0.041 N
ATOM     36 3H10 UNL     1      31.762  44.625  11.235  1.00  0.00     0.279 HD
ATOM     37 2H10 UNL     1      30.932  43.305  11.295  1.00  0.00     0.279 HD
ATOM     38 1H10 UNL     1      32.084  43.557  12.487  1.00  0.00     0.279 HD
ENDBRANCH  15  35
BRANCH  16  39
HETATM   39  C9  UNL     1      34.633  44.628  10.596  1.00  0.00     0.233 C
BRANCH  39  40
HETATM   40  C10 UNL     1      35.475  43.792  11.442  1.00  0.00     0.191 C
HETATM   41  O5  UNL     1      36.289  42.982  10.931  1.00  0.00    -0.647 OA
HETATM   42  O6  UNL     1      35.420  43.846  12.825  1.00  0.00    -0.647 OA
ENDBRANCH  39  40
ENDBRANCH  16  39
TORSDOF 8
ENDMDL