MODEL 4
REMARK VINA RESULT: -5.500230143      2.488      7.126
REMARK  12 active torsions:
REMARK  status: ('A' for Active; 'I' for Inactive)
REMARK       I    between atoms: C2_2  and  N1_4
REMARK    1  A    between atoms: C6_11  and  O2_12
REMARK    2  A    between atoms: C8_16  and  N4_17
REMARK    3  A    between atoms: N4_17  and  C9_19
REMARK    4  A    between atoms: C9_19  and  O3_20
REMARK    5  A    between atoms: C9_19  and  C10_22
REMARK    6  A    between atoms: C10_22  and  N5_23
REMARK    7  A    between atoms: C10_22  and  C11_27
REMARK    8  A    between atoms: C11_27  and  O4_28
REMARK    9  A    between atoms: C12_31  and  C13_32
REMARK   10  A    between atoms: C13_32  and  O5_33
REMARK   11  A    between atoms: C13_32  and  C14_35
REMARK   12  A    between atoms: C14_35  and  O6_36
ROOT
HETATM    1  C1  UNL     1      30.307  43.498  15.071  1.00  0.00     0.117 C
HETATM    2  C2  UNL     1      29.280  42.607  14.431  1.00  0.00     0.219 C
HETATM    3  O1  UNL     1      28.776  41.645  15.047  1.00  0.00    -0.274 OA
HETATM    4  N1  UNL     1      28.890  42.885  13.094  1.00  0.00    -0.309 N
ATOM      5  H1  UNL     1      28.108  43.515  12.914  1.00  0.00     0.170 HD
HETATM    6  C3  UNL     1      29.520  42.342  12.107  1.00  0.00     0.179 C
HETATM    7  N2  UNL     1      30.550  41.516  12.470  1.00  0.00    -0.323 N
ATOM      8  H2  UNL     1      31.021  41.708  13.354  1.00  0.00     0.169 HD
HETATM    9  C4  UNL     1      30.995  40.450  11.732  1.00  0.00     0.119 A
HETATM   10  C5  UNL     1      31.405  39.373  12.471  1.00  0.00     0.087 A
HETATM   11  C6  UNL     1      31.831  38.231  11.787  1.00  0.00     0.097 A
HETATM   12  C7  UNL     1      31.845  38.159  10.409  1.00  0.00     0.124 A
HETATM   13  N3  UNL     1      32.294  36.941   9.862  1.00  0.00    -0.095 NA
HETATM   14  C8  UNL     1      31.415  39.281   9.710  1.00  0.00     0.144 A
HETATM   15  N6  UNL     1      31.010  40.393  10.372  1.00  0.00    -0.268 N
HETATM   16  C12 UNL     1      30.801  41.421   9.488  1.00  0.00     0.125 C
HETATM   17  N7  UNL     1      29.746  42.258   9.670  1.00  0.00    -0.307 N
ATOM     18  H7  UNL     1      29.363  42.669   8.820  1.00  0.00     0.170 HD
HETATM   19  C15 UNL     1      29.122  42.627  10.833  1.00  0.00     0.291 C
HETATM   20  O7  UNL     1      28.086  43.292  10.700  1.00  0.00    -0.264 OA
ENDROOT
BRANCH  14  21
HETATM   21  N4  UNL     1      31.321  39.296   8.338  1.00  0.00    -0.323 N
ATOM     22  H4  UNL     1      31.961  39.944   7.878  1.00  0.00     0.169 HD
BRANCH  21  23
HETATM   23  C9  UNL     1      30.488  38.567   7.452  1.00  0.00     0.150 C
BRANCH  23  24
HETATM   24  O3  UNL     1      29.572  37.688   7.988  1.00  0.00    -0.348 OA
ATOM     25  H3  UNL     1      28.713  37.629   7.587  1.00  0.00     0.219 HD
ENDBRANCH  23  24
BRANCH  23  26
HETATM   26  C10 UNL     1      30.155  39.195   6.147  1.00  0.00     0.280 C
BRANCH  26  27
HETATM   27  N5  UNL     1      29.509  38.216   5.266  1.00  0.00    -0.066 N
ATOM     28  H53 UNL     1      29.107  38.655   4.437  1.00  0.00     0.275 HD
ATOM     29  H52 UNL     1      30.189  37.614   4.802  1.00  0.00     0.275 HD
ATOM     30  H51 UNL     1      28.817  37.679   5.787  1.00  0.00     0.275 HD
ENDBRANCH  26  27
BRANCH  26  31
HETATM   31  C11 UNL     1      29.141  40.317   6.268  1.00  0.00     0.205 C
BRANCH  31  32
HETATM   32  O4  UNL     1      28.539  40.315   7.540  1.00  0.00    -0.398 OA
ATOM     33  H4  UNL     1      27.637  40.607   7.488  1.00  0.00     0.209 HD
ENDBRANCH  31  32
ENDBRANCH  26  31
ENDBRANCH  23  26
ENDBRANCH  21  23
ENDBRANCH  14  21
BRANCH  11  34
HETATM   34  O2  UNL     1      32.258  37.121  12.537  1.00  0.00    -0.358 OA
ATOM     35  H2  UNL     1      31.675  36.769  13.200  1.00  0.00     0.217 HD
ENDBRANCH  11  34
BRANCH  16  36
HETATM   36  C13 UNL     1      31.818  41.515   8.474  1.00  0.00     0.209 C
BRANCH  36  37
HETATM   37  O5  UNL     1      33.025  42.194   8.848  1.00  0.00    -0.386 OA
ATOM     38  H5  UNL     1      33.443  42.711   8.169  1.00  0.00     0.210 HD
ENDBRANCH  36  37
BRANCH  36  39
HETATM   39  C14 UNL     1      31.297  42.850   7.807  1.00  0.00     0.203 C
BRANCH  39  40
HETATM   40  O6  UNL     1      31.657  42.884   6.494  1.00  0.00    -0.398 OA
ATOM     41  H6  UNL     1      32.525  43.258   6.405  1.00  0.00     0.209 HD
ENDBRANCH  39  40
ENDBRANCH  36  39
ENDBRANCH  16  36
TORSDOF 12
ENDMDL