MODEL 3
REMARK VINA RESULT: -7.188488327      1.125      1.552
REMARK  8 active torsions:
REMARK  status: ('A' for Active; 'I' for Inactive)
REMARK    1  A    between atoms: C1_4  and  C2_6
REMARK    2  A    between atoms: N3_8  and  N4_9
REMARK    3  A    between atoms: N5_11  and  C4_13
REMARK    4  A    between atoms: C7_18  and  C8_19
REMARK    5  A    between atoms: C8_19  and  O2_20
REMARK    6  A    between atoms: C8_19  and  C9_22
REMARK    7  A    between atoms: C10_25  and  O5_26
REMARK    8  A    between atoms: C14_37  and  N11_38
ROOT
HETATM    1  C4  UNL     1      30.241  41.233   6.993  1.00  0.00     0.186 C
HETATM    2  C5  UNL     1      29.843  40.275   6.181  1.00  0.00     0.144 C
HETATM    3  N6  UNL     1      30.313  39.016   6.650  1.00  0.00    -0.094 NA
HETATM    4  C6  UNL     1      29.063  40.201   4.955  1.00  0.00     0.217 C
HETATM    5  O1  UNL     1      28.669  39.045   4.692  1.00  0.00    -0.285 OA
HETATM    6  C7  UNL     1      28.582  41.144   3.885  1.00  0.00     0.107 C
HETATM    7  C10 UNL     1      28.350  42.428   4.047  1.00  0.00     0.172 C
HETATM    8  N7  UNL     1      28.430  43.391   5.138  1.00  0.00    -0.168 N
ATOM      9  H7  UNL     1      27.758  44.149   5.019  1.00  0.00     0.186 HD
HETATM   10  C11 UNL     1      29.191  43.554   6.314  1.00  0.00     0.701 C
HETATM   11  N8  UNL     1      29.199  44.653   6.977  1.00  0.00    -0.209 N
ATOM     12  H8  UNL     1      28.668  45.485   6.717  1.00  0.00     0.179 HD
HETATM   13  C12 UNL     1      30.057  44.564   8.142  1.00  0.00     0.275 C
HETATM   14  N9  UNL     1      30.868  43.405   7.869  1.00  0.00    -0.097 NA
HETATM   15  N10 UNL     1      30.064  42.651   7.015  1.00  0.00    -0.070 N
ENDROOT
BRANCH   1  16
HETATM   16  N5  UNL     1      31.017  40.812   8.106  1.00  0.00    -0.268 N
HETATM   17  N4  UNL     1      30.460  40.742   9.224  1.00  0.00    -0.243 N
ATOM     18  H4  UNL     1      29.473  40.997   9.260  1.00  0.00     0.208 HD
ATOM     19  H5  UNL     1      32.003  40.573   7.997  1.00  0.00     0.190 HD
BRANCH  17  20
HETATM   20  N3  UNL     1      31.045  40.357  10.412  1.00  0.00    -0.311 N
HETATM   21  C3  UNL     1      30.679  39.236  11.232  1.00  0.00     0.158 C
HETATM   22  C2  UNL     1      31.911  38.894  12.054  1.00  0.00     0.101 C
HETATM   23  C14 UNL     1      32.998  39.815  11.484  1.00  0.00     0.215 C
HETATM   24  C13 UNL     1      32.144  41.006  11.069  1.00  0.00     0.177 C
BRANCH  22  25
HETATM   25  C1  UNL     1      32.272  37.468  11.851  1.00  0.00     0.094 C
HETATM   26  N1  UNL     1      32.423  36.732  12.890  1.00  0.00    -0.391 N
ATOM     27  H12 UNL     1      32.671  35.752  12.751  1.00  0.00     0.157 HD
ATOM     28  H11 UNL     1      32.302  37.103  13.833  1.00  0.00     0.157 HD
HETATM   29  N2  UNL     1      32.440  36.953  10.542  1.00  0.00    -0.088 NA
ENDBRANCH  22  25
BRANCH  23  30
HETATM   30  N11 UNL     1      33.971  40.166  12.482  1.00  0.00    -0.073 N
ATOM     31 3H11 UNL     1      33.669  39.880  13.414  1.00  0.00     0.274 HD
ATOM     32 2H11 UNL     1      34.809  39.590  12.404  1.00  0.00     0.274 HD
ATOM     33 1H11 UNL     1      34.197  41.159  12.453  1.00  0.00     0.274 HD
ENDBRANCH  23  30
ENDBRANCH  17  20
ENDBRANCH   1  16
BRANCH   6  34
HETATM   34  C8  UNL     1      28.400  40.477   2.661  1.00  0.00     0.161 C
BRANCH  34  35
HETATM   35  O2  UNL     1      27.207  39.869   2.577  1.00  0.00    -0.354 OA
ATOM     36  H2  UNL     1      27.157  39.088   3.116  1.00  0.00     0.218 HD
ENDBRANCH  34  35
BRANCH  34  37
HETATM   37  C9  UNL     1      29.165  40.288   1.495  1.00  0.00     0.234 C
HETATM   38  O3  UNL     1      29.442  39.265   0.879  1.00  0.00    -0.642 OA
HETATM   39  O4  UNL     1      29.766  41.443   0.842  1.00  0.00    -0.642 OA
ENDBRANCH  34  37
ENDBRANCH   6  34
BRANCH   7  40
HETATM   40  O5  UNL     1      27.922  43.027   2.905  1.00  0.00    -0.345 OA
ATOM     41  H5  UNL     1      28.615  43.505   2.465  1.00  0.00     0.219 HD
ENDBRANCH   7  40
TORSDOF 8
ENDMDL