MODEL 4
REMARK VINA RESULT: -6.531729763      1.206      1.440
REMARK  11 active torsions:
REMARK  status: ('A' for Active; 'I' for Inactive)
REMARK    1  A    between atoms: N1_1  and  C1_4
REMARK    2  A    between atoms: C2_7  and  N3_8
REMARK    3  A    between atoms: C5_11  and  C6_12
REMARK    4  A    between atoms: C5_11  and  N4_15
REMARK    5  A    between atoms: C6_12  and  O1_13
REMARK    6  A    between atoms: N4_15  and  C7_18
REMARK    7  A    between atoms: C7_18  and  C8_19
REMARK    8  A    between atoms: C8_19  and  O2_20
REMARK    9  A    between atoms: C8_19  and  C9_22
REMARK   10  A    between atoms: C9_22  and  O3_23
REMARK   11  A    between atoms: N8_37  and  N9_38
ROOT
HETATM    1  C1  UNL     1      28.742  41.703   1.950  1.00  0.00     0.149 A
HETATM    2  N2  UNL     1      28.993  41.154   3.116  1.00  0.00    -0.174 N
ATOM      3  H2  UNL     1      29.213  40.158   3.132  1.00  0.00     0.186 HD
HETATM    4  C2  UNL     1      28.981  41.813   4.298  1.00  0.00     0.684 A
HETATM    5  N5  UNL     1      28.692  43.197   4.372  1.00  0.00    -0.167 N
ATOM      6  H5  UNL     1      28.682  43.700   5.259  1.00  0.00     0.186 HD
HETATM    7  C11 UNL     1      28.448  43.770   3.273  1.00  0.00     0.198 A
HETATM    8  C12 UNL     1      28.446  43.090   2.047  1.00  0.00     0.173 A
HETATM    9  N6  UNL     1      28.095  43.487   0.731  1.00  0.00    -0.154 N
HETATM   10  O4  UNL     1      26.828  44.019   0.334  1.00  0.00    -0.252 OA
HETATM   11  C13 UNL     1      26.796  45.411   0.954  1.00  0.00     0.287 C
HETATM   12  C14 UNL     1      27.987  45.323   1.692  1.00  0.00     0.149 C
HETATM   13  N7  UNL     1      29.188  45.107   1.191  1.00  0.00    -0.357 N
ATOM     14  H7  UNL     1      30.000  45.137   1.808  1.00  0.00     0.162 HD
HETATM   15  C15 UNL     1      29.384  44.820  -0.266  1.00  0.00     0.263 C
HETATM   16  N8  UNL     1      29.244  43.195  -0.083  1.00  0.00    -0.101 NA
HETATM   17  O5  UNL     1      28.163  45.291   3.134  1.00  0.00    -0.276 OA
ENDROOT
BRANCH   4  18
HETATM   18  N3  UNL     1      29.261  41.166   5.513  1.00  0.00    -0.215 N
HETATM   19  C3  UNL     1      28.727  41.480   6.824  1.00  0.00     0.144 C
HETATM   20  C4  UNL     1      29.420  40.571   7.799  1.00  0.00     0.063 C
HETATM   21  C5  UNL     1      30.756  40.320   7.073  1.00  0.00     0.164 C
HETATM   22  C10 UNL     1      30.161  40.041   5.675  1.00  0.00     0.182 C
BRANCH  21  23
HETATM   23  C6  UNL     1      31.556  41.564   6.948  1.00  0.00     0.204 C
BRANCH  23  24
HETATM   24  O1  UNL     1      32.853  41.518   7.396  1.00  0.00    -0.398 OA
ATOM     25  H1  UNL     1      33.056  42.013   8.181  1.00  0.00     0.209 HD
ENDBRANCH  23  24
ENDBRANCH  21  23
BRANCH  21  26
HETATM   26  N4  UNL     1      31.382  39.164   7.578  1.00  0.00    -0.060 N
ATOM     27  H42 UNL     1      31.333  38.405   6.899  1.00  0.00     0.278 HD
ATOM     28  H41 UNL     1      32.392  39.294   7.620  1.00  0.00     0.278 HD
BRANCH  26  29
HETATM   29  C7  UNL     1      30.885  38.739   8.830  1.00  0.00     0.267 C
BRANCH  29  30
HETATM   30  C8  UNL     1      32.075  38.469   9.763  1.00  0.00     0.167 C
BRANCH  30  31
HETATM   31  O2  UNL     1      31.801  37.298  10.482  1.00  0.00    -0.392 OA
ATOM     32  H2  UNL     1      31.667  36.595   9.857  1.00  0.00     0.210 HD
ENDBRANCH  30  31
BRANCH  30  33
HETATM   33  C9  UNL     1      32.111  39.594  10.781  1.00  0.00     0.197 C
BRANCH  33  34
HETATM   34  O3  UNL     1      32.457  40.813  10.219  1.00  0.00    -0.398 OA
ATOM     35  H3  UNL     1      31.715  41.261   9.830  1.00  0.00     0.209 HD
ENDBRANCH  33  34
ENDBRANCH  30  33
ENDBRANCH  29  30
ENDBRANCH  26  29
ENDBRANCH  21  26
ENDBRANCH   4  18
BRANCH   1  36
HETATM   36  N1  UNL     1      28.788  41.318   0.730  1.00  0.00    -0.383 N
ATOM     37  H12 UNL     1      29.651  40.811   0.530  1.00  0.00     0.157 HD
ATOM     38  H11 UNL     1      28.145  41.330  -0.062  1.00  0.00     0.157 HD
ENDBRANCH   1  36
BRANCH  16  39
HETATM   39  N9  UNL     1      30.520  43.357   0.549  1.00  0.00    -0.342 NA
ATOM     40  H92 UNL     1      29.936  43.619   1.343  1.00  0.00     0.172 HD
ATOM     41  H91 UNL     1      30.835  42.579   1.129  1.00  0.00     0.172 HD
ENDBRANCH  16  39
TORSDOF 11
ENDMDL