MODEL 5
REMARK VINA RESULT: -6.817697649      1.348      1.763
REMARK  6 active torsions:
REMARK  status: ('A' for Active; 'I' for Inactive)
REMARK    1  A    between atoms: C2_6  and  N4_7
REMARK       I    between atoms: N4_7  and  C3_9
REMARK    2  A    between atoms: C4_14  and  C5_15
REMARK    3  A    between atoms: C5_15  and  N7_16
REMARK    4  A    between atoms: C6_20  and  N10_21
REMARK       I    between atoms: N10_21  and  C7_23
REMARK       I    between atoms: C7_23  and  N12_27
REMARK    5  A    between atoms: N12_27  and  N13_29
REMARK    6  A    between atoms: N13_29  and  O1_33
ROOT
HETATM    1  N7  UNL     1      31.258  40.580   8.508  1.00  0.00    -0.201 N
HETATM    2  N8  UNL     1      30.516  41.642   8.243  1.00  0.00     0.011 NA
HETATM    3  N9  UNL     1      30.322  41.776   6.930  1.00  0.00    -0.113 N
ATOM      4  H9  UNL     1      29.788  42.508   6.461  1.00  0.00     0.203 HD
HETATM    5  C6  UNL     1      30.969  40.758   6.350  1.00  0.00     0.725 A
HETATM    6  N15 UNL     1      31.527  40.049   7.334  1.00  0.00    -0.115 N
ATOM      7  H15 UNL     1      32.086  39.208   7.195  1.00  0.00     0.207 HD
ENDROOT
BRANCH   1   8
HETATM    8  C5  UNL     1      31.667  40.154   9.795  1.00  0.00     0.196 C
BRANCH   8   9
HETATM    9  C4  UNL     1      30.666  39.790  10.792  1.00  0.00     0.167 C
HETATM   10  N1  UNL     1      29.896  40.808  11.432  1.00  0.00    -0.205 NA
HETATM   11  C1  UNL     1      30.619  41.625  12.379  1.00  0.00     0.134 C
HETATM   12  N2  UNL     1      29.131  39.929  12.272  1.00  0.00    -0.046 NA
HETATM   13  N3  UNL     1      30.169  39.143  12.845  1.00  0.00    -0.276 N
HETATM   14  C2  UNL     1      31.149  39.025  11.976  1.00  0.00     0.117 C
ATOM     15  H3  UNL     1      30.155  38.736  13.780  1.00  0.00     0.185 HD
BRANCH  14  16
HETATM   16  N4  UNL     1      32.367  38.320  12.158  1.00  0.00    -0.318 N
HETATM   17  C3  UNL     1      32.334  36.957  12.570  1.00  0.00     0.187 C
HETATM   18  N5  UNL     1      33.370  36.187  12.476  1.00  0.00    -0.373 N
HETATM   19  N6  UNL     1      31.147  36.379  13.113  1.00  0.00    -0.064 NA
ATOM     20  H52 UNL     1      34.219  36.600  12.088  1.00  0.00     0.158 HD
ATOM     21  H51 UNL     1      33.347  35.211  12.771  1.00  0.00     0.158 HD
ATOM     22  H4  UNL     1      33.260  38.786  11.994  1.00  0.00     0.169 HD
ENDBRANCH  14  16
ENDBRANCH   8   9
ENDBRANCH   1   8
BRANCH   5  23
HETATM   23  N10 UNL     1      31.032  40.519   5.091  1.00  0.00    -0.019 N
HETATM   24  C7  UNL     1      29.896  40.169   4.310  1.00  0.00     0.708 C
HETATM   25  N11 UNL     1      29.386  38.980   4.466  1.00  0.00    -0.233 N
HETATM   26  N12 UNL     1      29.363  41.101   3.405  1.00  0.00    -0.090 N
ATOM     27 2H11 UNL     1      29.774  38.303   5.124  1.00  0.00     0.174 HD
ATOM     28 1H11 UNL     1      28.572  38.729   3.906  1.00  0.00     0.174 HD
ATOM     29  H12 UNL     1      28.930  41.951   3.765  1.00  0.00     0.210 HD
ATOM     30  H10 UNL     1      31.939  40.582   4.630  1.00  0.00     0.203 HD
BRANCH  26  31
HETATM   31  N13 UNL     1      29.411  40.893   2.031  1.00  0.00    -0.087 N
HETATM   32  N14 UNL     1      29.349  41.859   1.245  1.00  0.00    -0.303 N
ATOM     33 2H14 UNL     1      29.264  42.813   1.592  1.00  0.00     0.181 HD
ATOM     34 1H14 UNL     1      29.384  41.706   0.237  1.00  0.00     0.181 HD
BRANCH  31  35
HETATM   35  O1  UNL     1      29.525  39.614   1.565  1.00  0.00    -0.253 OA
ATOM     36  H1  UNL     1      30.357  39.334   1.201  1.00  0.00     0.248 HD
ENDBRANCH  31  35
ENDBRANCH  26  31
ENDBRANCH   5  23
TORSDOF 6
ENDMDL