MODEL 3
REMARK VINA RESULT: -6.620396353      2.558      5.491
REMARK  5 active torsions:
REMARK  status: ('A' for Active; 'I' for Inactive)
REMARK    1  A    between atoms: C2_2  and  C3_4
REMARK    2  A    between atoms: C4_5  and  N1_6
REMARK    3  A    between atoms: C7_17  and  N5_18
REMARK    4  A    between atoms: C9_24  and  N8_25
REMARK    5  A    between atoms: N8_25  and  N9_27
ROOT
HETATM    1  N5  UNL     1      29.580  38.932   7.257  1.00  0.00    -0.301 N
ATOM      2  H5  UNL     1      28.760  38.997   7.859  1.00  0.00     0.174 HD
HETATM    3  C8  UNL     1      29.393  38.587   5.927  1.00  0.00     0.179 C
HETATM    4  N6  UNL     1      29.229  38.286   4.815  1.00  0.00    -0.172 NA
ENDROOT
BRANCH   1   5
HETATM    5  C7  UNL     1      30.870  39.205   7.833  1.00  0.00     0.244 C
HETATM    6  C4  UNL     1      30.759  39.706   9.255  1.00  0.00     0.066 C
HETATM    7  C3  UNL     1      30.161  40.928   9.352  1.00  0.00     0.039 C
HETATM    8  C10 UNL     1      29.848  41.678   8.127  1.00  0.00     0.200 C
HETATM    9  C9  UNL     1      30.956  41.479   7.121  1.00  0.00     0.116 C
HETATM   10  C11 UNL     1      29.765  43.121   8.395  1.00  0.00     0.076 C
HETATM   11  N7  UNL     1      31.434  40.323   7.005  1.00  0.00    -0.350 N
ATOM     12  H7  UNL     1      32.199  40.146   6.355  1.00  0.00     0.163 HD
HETATM   13  N10 UNL     1      29.709  44.286   8.560  1.00  0.00    -0.196 NA
BRANCH   6  14
HETATM   14  N1  UNL     1      31.180  38.938  10.264  1.00  0.00    -0.336 N
HETATM   15  C5  UNL     1      31.868  38.022  10.713  1.00  0.00     0.192 A
HETATM   16  N2  UNL     1      31.831  37.686  12.070  1.00  0.00    -0.266 N
HETATM   17  C6  UNL     1      32.762  37.155  10.132  1.00  0.00     0.306 A
HETATM   18  N3  UNL     1      32.651  36.695  12.237  1.00  0.00    -0.238 N
ATOM     19  H2  UNL     1      31.266  38.134  12.792  1.00  0.00     0.190 HD
HETATM   20  N4  UNL     1      33.228  36.343  11.122  1.00  0.00    -0.249 N
ATOM     21  H3  UNL     1      32.825  36.245  13.136  1.00  0.00     0.208 HD
ATOM     22  H4  UNL     1      33.908  35.591  11.011  1.00  0.00     0.192 HD
HETATM   23  O2  UNL     1      33.155  37.034   8.942  1.00  0.00    -0.262 OA
ATOM     24  H1  UNL     1      30.672  39.291  11.076  1.00  0.00     0.167 HD
ENDBRANCH   6  14
BRANCH   7  25
HETATM   25  C2  UNL     1      29.917  41.500  10.645  1.00  0.00     0.155 C
HETATM   26  C1  UNL     1      28.608  41.662  11.316  1.00  0.00     0.096 C
HETATM   27  O1  UNL     1      30.888  41.943  11.365  1.00  0.00    -0.293 OA
ENDBRANCH   7  25
BRANCH   9  28
HETATM   28  N8  UNL     1      31.401  42.595   6.397  1.00  0.00    -0.294 N
ATOM     29  H8  UNL     1      30.915  42.887   5.549  1.00  0.00     0.187 HD
BRANCH  28  30
HETATM   30  N9  UNL     1      32.534  43.311   6.858  1.00  0.00    -0.344 N
ATOM     31  H92 UNL     1      32.433  43.962   7.637  1.00  0.00     0.176 HD
ATOM     32  H91 UNL     1      33.435  43.162   6.404  1.00  0.00     0.176 HD
ENDBRANCH  28  30
ENDBRANCH   9  28
ENDBRANCH   1   5
TORSDOF 5
ENDMDL