MODEL 4
REMARK VINA RESULT: -6.765708529      1.225      1.290
REMARK  6 active torsions:
REMARK  status: ('A' for Active; 'I' for Inactive)
REMARK    1  A    between atoms: C3_5  and  S1_6
REMARK    2  A    between atoms: S1_6  and  C4_7
REMARK    3  A    between atoms: C4_7  and  C5_8
REMARK       I    between atoms: C5_8  and  N2_10
REMARK    4  A    between atoms: N2_10  and  N3_12
REMARK    5  A    between atoms: N3_12  and  N4_13
REMARK       I    between atoms: N4_13  and  C6_15
REMARK       I    between atoms: C6_15  and  N5_17
REMARK    6  A    between atoms: N5_17  and  N6_19
ROOT
HETATM    1  C1  UNL     1      27.481  42.355   9.245  1.00  0.00     0.089 C
HETATM    2  C2  UNL     1      28.553  41.327   9.206  1.00  0.00     0.080 A
HETATM    3  N1  UNL     1      28.830  40.678   8.062  1.00  0.00    -0.326 N
ATOM      4  H1  UNL     1      28.299  40.896   7.218  1.00  0.00     0.169 HD
HETATM    5  C3  UNL     1      29.805  39.738   8.015  1.00  0.00     0.171 A
HETATM    6  N7  UNL     1      30.529  39.420   9.098  1.00  0.00    -0.110 N
HETATM    7  C7  UNL     1      31.527  38.553   9.330  1.00  0.00     0.685 A
HETATM    8  N8  UNL     1      32.099  37.740   8.527  1.00  0.00    -0.234 N
ATOM      9  H81 UNL     1      32.857  37.081   8.703  1.00  0.00     0.174 HD
ATOM     10  H82 UNL     1      31.818  37.676   7.548  1.00  0.00     0.174 HD
HETATM   11  N9  UNL     1      31.907  38.640  10.650  1.00  0.00    -0.198 N
ATOM     12  H9  UNL     1      32.641  38.102  11.111  1.00  0.00     0.183 HD
HETATM   13  C8  UNL     1      31.134  39.557  11.200  1.00  0.00     0.155 A
HETATM   14  C9  UNL     1      30.262  40.067  10.266  1.00  0.00     0.148 A
HETATM   15  N10 UNL     1      29.295  40.984  10.271  1.00  0.00    -0.330 N
ATOM     16  H10 UNL     1      29.104  41.462  11.151  1.00  0.00     0.168 HD
ENDROOT
BRANCH   5  17
HETATM   17  S1  UNL     1      30.064  38.961   6.439  1.00  0.00    -0.083 SA
BRANCH  17  18
HETATM   18  C4  UNL     1      31.058  40.108   5.409  1.00  0.00     0.186 C
BRANCH  18  19
HETATM   19  C5  UNL     1      30.099  40.815   4.542  1.00  0.00     0.244 C
HETATM   20  O1  UNL     1      29.449  41.769   5.007  1.00  0.00    -0.271 OA
HETATM   21  N2  UNL     1      29.917  40.417   3.200  1.00  0.00    -0.253 N
ATOM     22  H2  UNL     1      30.460  39.632   2.840  1.00  0.00     0.187 HD
BRANCH  21  23
HETATM   23  N3  UNL     1      29.024  41.060   2.358  1.00  0.00    -0.016 NA
BRANCH  23  24
HETATM   24  N4  UNL     1      29.567  42.282   1.956  1.00  0.00    -0.234 N
HETATM   25  C6  UNL     1      29.181  42.803   0.692  1.00  0.00     0.351 C
HETATM   26  O2  UNL     1      28.363  42.163  -0.041  1.00  0.00    -0.244 OA
HETATM   27  N5  UNL     1      29.732  44.040   0.287  1.00  0.00    -0.257 N
ATOM     28  H5  UNL     1      30.387  44.535   0.893  1.00  0.00     0.191 HD
ATOM     29  H4  UNL     1      30.223  42.786   2.553  1.00  0.00     0.189 HD
BRANCH  27  30
HETATM   30  N6  UNL     1      29.372  44.575  -0.945  1.00  0.00    -0.341 N
ATOM     31  H62 UNL     1      29.192  43.949  -1.729  1.00  0.00     0.177 HD
ATOM     32  H61 UNL     1      29.294  45.587  -1.047  1.00  0.00     0.177 HD
ENDBRANCH  27  30
ENDBRANCH  23  24
ENDBRANCH  21  23
ENDBRANCH  18  19
ENDBRANCH  17  18
ENDBRANCH   5  17
TORSDOF 6
ENDMDL