MODEL 1
REMARK VINA RESULT: -6.578210343      0.000      0.000
REMARK  12 active torsions:
REMARK  status: ('A' for Active; 'I' for Inactive)
REMARK    1  A    between atoms: N1_1  and  N2_4
REMARK    2  A    between atoms: N2_4  and  N3_5
REMARK    3  A    between atoms: N3_5  and  C1_7
REMARK    4  A    between atoms: C1_7  and  C2_8
REMARK    5  A    between atoms: C2_8  and  C3_9
REMARK    6  A    between atoms: C2_8  and  N7_19
REMARK    7  A    between atoms: C4_10  and  N4_11
REMARK    8  A    between atoms: C5_13  and  N5_14
REMARK    9  A    between atoms: N5_14  and  N6_16
REMARK   10  A    between atoms: C6_22  and  C7_23
REMARK       I    between atoms: C7_23  and  N9_25
REMARK   11  A    between atoms: N9_25  and  N10_27
REMARK   12  A    between atoms: C9_31  and  N11_32
ROOT
HETATM    1  N7  UNL     1      30.603  39.870   8.187  1.00  0.00    -0.257 N
HETATM    2  N8  UNL     1      31.737  40.476   7.982  1.00  0.00    -0.289 N
ATOM      3  H8  UNL     1      32.489  40.111   7.398  1.00  0.00     0.187 HD
HETATM    4  C6  UNL     1      31.788  41.663   8.650  1.00  0.00     0.135 A
HETATM    5  C8  UNL     1      30.609  41.815   9.321  1.00  0.00     0.087 A
HETATM    6  C9  UNL     1      30.046  42.761  10.151  1.00  0.00     0.116 A
HETATM    7  N12 UNL     1      28.809  42.553  10.640  1.00  0.00    -0.338 N
ATOM      8  H12 UNL     1      28.398  43.256  11.254  1.00  0.00     0.168 HD
HETATM    9  C10 UNL     1      28.097  41.451  10.347  1.00  0.00     0.183 A
HETATM   10  N13 UNL     1      28.659  40.541   9.537  1.00  0.00    -0.336 N
ATOM     11  H13 UNL     1      28.119  39.705   9.315  1.00  0.00     0.168 HD
HETATM   12  C11 UNL     1      29.877  40.654   9.002  1.00  0.00     0.141 A
ENDROOT
BRANCH   1  13
HETATM   13  C2  UNL     1      30.157  38.590   7.658  1.00  0.00     0.210 C
BRANCH  13  14
HETATM   14  C1  UNL     1      31.247  37.560   7.735  1.00  0.00     0.195 C
BRANCH  14  15
HETATM   15  N3  UNL     1      32.267  37.879   8.683  1.00  0.00    -0.250 N
ATOM     16  H3  UNL     1      32.834  38.720   8.575  1.00  0.00     0.197 HD
BRANCH  15  17
HETATM   17  N2  UNL     1      32.451  37.107   9.645  1.00  0.00    -0.248 NA
BRANCH  17  18
HETATM   18  N1  UNL     1      32.848  36.515  10.668  1.00  0.00    -0.261 N
ATOM     19  H12 UNL     1      33.764  36.959  10.606  1.00  0.00     0.193 HD
ATOM     20  H11 UNL     1      32.957  35.940  11.503  1.00  0.00     0.193 HD
ENDBRANCH  17  18
ENDBRANCH  15  17
ENDBRANCH  14  15
ENDBRANCH  13  14
BRANCH  13  21
HETATM   21  C3  UNL     1      29.789  38.784   6.254  1.00  0.00    -0.054 C
HETATM   22  C4  UNL     1      29.492  38.963   5.099  1.00  0.00     0.013 C
BRANCH  22  23
HETATM   23  N4  UNL     1      29.153  39.197   3.741  1.00  0.00    -0.310 N
HETATM   24  C5  UNL     1      29.631  40.206   3.097  1.00  0.00     0.205 C
ATOM     25  H4  UNL     1      28.519  38.554   3.266  1.00  0.00     0.177 HD
BRANCH  24  26
HETATM   26  N5  UNL     1      29.236  40.359   1.745  1.00  0.00    -0.302 N
ATOM     27  H5  UNL     1      29.602  41.122   1.176  1.00  0.00     0.187 HD
BRANCH  26  28
HETATM   28  N6  UNL     1      28.333  39.438   1.210  1.00  0.00    -0.344 N
ATOM     29  H62 UNL     1      28.679  38.591   0.758  1.00  0.00     0.176 HD
ATOM     30  H61 UNL     1      27.335  39.637   1.285  1.00  0.00     0.176 HD
ENDBRANCH  26  28
ENDBRANCH  24  26
ENDBRANCH  22  23
ENDBRANCH  13  21
ENDBRANCH   1  13
BRANCH   4  31
HETATM   31  C7  UNL     1      32.921  42.579   8.626  1.00  0.00     0.288 C
HETATM   32  O1  UNL     1      33.380  43.179   9.591  1.00  0.00    -0.264 OA
HETATM   33  N9  UNL     1      33.593  42.826   7.367  1.00  0.00    -0.271 N
ATOM     34  H9  UNL     1      33.275  42.366   6.514  1.00  0.00     0.189 HD
BRANCH  33  35
HETATM   35  N10 UNL     1      34.658  43.685   7.332  1.00  0.00    -0.342 N
ATOM     36 2H10 UNL     1      34.597  44.537   6.774  1.00  0.00     0.176 HD
ATOM     37 1H10 UNL     1      35.498  43.460   7.865  1.00  0.00     0.176 HD
ENDBRANCH  33  35
ENDBRANCH   4  31
BRANCH   6  38
HETATM   38  N11 UNL     1      30.679  43.825  10.461  1.00  0.00    -0.385 N
ATOM     39 2H11 UNL     1      31.585  44.017  10.035  1.00  0.00     0.157 HD
ATOM     40 1H11 UNL     1      30.293  44.490  11.132  1.00  0.00     0.157 HD
ENDBRANCH   6  38
TORSDOF 12
ENDMDL