MODEL 4
REMARK VINA RESULT: -6.108958065      3.204      7.622
REMARK  8 active torsions:
REMARK  status: ('A' for Active; 'I' for Inactive)
REMARK    1  A    between atoms: C2_2  and  C3_3
REMARK    2  A    between atoms: C3_3  and  S1_4
REMARK    3  A    between atoms: S1_4  and  C4_5
REMARK    4  A    between atoms: C5_8  and  N2_9
REMARK    5  A    between atoms: C6_14  and  N4_15
REMARK    6  A    between atoms: N4_15  and  C7_17
REMARK    7  A    between atoms: N10_28  and  N11_30
REMARK       I    between atoms: C8_32  and  N13_34
REMARK    8  A    between atoms: N13_34  and  N14_36
ROOT
HETATM    1  C4  UNL     1      31.422  39.174   8.835  1.00  0.00     0.174 A
HETATM    2  N1  UNL     1      31.396  38.666  10.105  1.00  0.00    -0.170 N
ATOM      3  H1  UNL     1      31.152  37.684  10.239  1.00  0.00     0.186 HD
HETATM    4  C5  UNL     1      31.681  39.417  11.179  1.00  0.00     0.692 A
HETATM    5  N3  UNL     1      32.005  40.713  11.032  1.00  0.00    -0.022 N
ATOM      6  H3  UNL     1      32.220  41.282  11.851  1.00  0.00     0.203 HD
HETATM    7  C6  UNL     1      32.046  41.264   9.790  1.00  0.00     0.713 A
HETATM    8  N9  UNL     1      31.754  40.478   8.743  1.00  0.00    -0.169 N
ATOM      9  H9  UNL     1      31.786  40.895   7.812  1.00  0.00     0.186 HD
ENDROOT
BRANCH   1  10
HETATM   10  S1  UNL     1      31.047  38.179   7.423  1.00  0.00    -0.087 SA
BRANCH  10  11
HETATM   11  C3  UNL     1      29.526  38.635   6.616  1.00  0.00     0.136 C
BRANCH  11  12
HETATM   12  C2  UNL     1      29.633  39.845   5.805  1.00  0.00     0.009 C
HETATM   13  C1  UNL     1      29.472  41.182   6.409  1.00  0.00     0.066 C
HETATM   14  N10 UNL     1      29.874  39.785   4.520  1.00  0.00    -0.306 N
ATOM     15  H10 UNL     1      29.992  38.879   4.067  1.00  0.00     0.186 HD
BRANCH  14  16
HETATM   16  N11 UNL     1      29.967  40.942   3.780  1.00  0.00    -0.273 N
HETATM   17  C8  UNL     1      29.810  40.964   2.503  1.00  0.00     0.221 C
HETATM   18  N12 UNL     1      29.918  42.178   1.798  1.00  0.00    -0.061 NA
HETATM   19  N13 UNL     1      29.529  39.750   1.822  1.00  0.00    -0.279 N
ATOM     20  H13 UNL     1      30.251  39.038   1.715  1.00  0.00     0.189 HD
ATOM     21  H11 UNL     1      30.167  41.817   4.263  1.00  0.00     0.189 HD
BRANCH  19  22
HETATM   22  N14 UNL     1      28.231  39.542   1.291  1.00  0.00    -0.343 N
ATOM     23 2H14 UNL     1      27.599  38.888   1.753  1.00  0.00     0.176 HD
ATOM     24 1H14 UNL     1      27.951  40.051   0.453  1.00  0.00     0.176 HD
ENDBRANCH  19  22
ENDBRANCH  14  16
ENDBRANCH  11  12
ENDBRANCH  10  11
ENDBRANCH   1  10
BRANCH   4  25
HETATM   25  N2  UNL     1      31.633  38.869  12.341  1.00  0.00    -0.234 N
ATOM     26  H22 UNL     1      30.858  39.047  12.979  1.00  0.00     0.174 HD
ATOM     27  H21 UNL     1      32.393  38.246  12.615  1.00  0.00     0.174 HD
ENDBRANCH   4  25
BRANCH   7  28
HETATM   28  N4  UNL     1      32.390  42.643   9.592  1.00  0.00    -0.019 N
ATOM     29  H4  UNL     1      31.848  43.354  10.083  1.00  0.00     0.203 HD
BRANCH  28  30
HETATM   30  C7  UNL     1      33.335  43.022   8.836  1.00  0.00     0.728 A
HETATM   31  N5  UNL     1      33.339  43.060   7.500  1.00  0.00    -0.115 N
HETATM   32  N6  UNL     1      34.524  43.520   7.144  1.00  0.00    -0.213 N
ATOM     33  H5  UNL     1      32.577  42.788   6.878  1.00  0.00     0.207 HD
HETATM   34  N7  UNL     1      35.258  43.770   8.208  1.00  0.00    -0.213 N
ATOM     35  H6  UNL     1      34.828  43.662   6.181  1.00  0.00     0.210 HD
HETATM   36  N8  UNL     1      34.524  43.462   9.262  1.00  0.00    -0.115 N
ATOM     37  H7  UNL     1      36.211  44.133   8.217  1.00  0.00     0.210 HD
ATOM     38  H8  UNL     1      34.815  43.546  10.236  1.00  0.00     0.207 HD
ENDBRANCH  28  30
ENDBRANCH   7  28
TORSDOF 8
ENDMDL