MODEL 3
REMARK VINA RESULT: -7.134729736      1.632      5.698
REMARK  6 active torsions:
REMARK  status: ('A' for Active; 'I' for Inactive)
REMARK    1  A    between atoms: N1_1  and  O1_4
REMARK    2  A    between atoms: O1_4  and  C1_5
REMARK       I    between atoms: C1_5  and  N2_7
REMARK    3  A    between atoms: N2_7  and  N3_9
REMARK       I    between atoms: N3_9  and  C2_11
REMARK    4  A    between atoms: C2_11  and  C3_13
REMARK    5  A    between atoms: C7_21  and  N6_22
REMARK       I    between atoms: N6_22  and  C8_24
REMARK    6  A    between atoms: C8_24  and  C9_26
ROOT
HETATM    1  C3  UNL     1      29.824  39.900   5.003  1.00  0.00     0.134 A
HETATM    2  N4  UNL     1      29.882  39.677   3.677  1.00  0.00    -0.317 N
ATOM      3  H4  UNL     1      30.098  38.746   3.322  1.00  0.00     0.169 HD
HETATM    4  C4  UNL     1      29.653  40.687   2.829  1.00  0.00     0.247 A
HETATM    5  O4  UNL     1      29.708  40.471   1.576  1.00  0.00    -0.268 OA
HETATM    6  C5  UNL     1      29.358  41.967   3.248  1.00  0.00     0.103 A
HETATM    7  C6  UNL     1      29.295  42.216   4.591  1.00  0.00     0.081 A
HETATM    8  N5  UNL     1      28.989  43.535   5.062  1.00  0.00    -0.100 NA
HETATM    9  C7  UNL     1      29.529  41.175   5.500  1.00  0.00     0.092 A
ENDROOT
BRANCH   1  10
HETATM   10  C2  UNL     1      30.089  38.814   5.915  1.00  0.00     0.289 C
HETATM   11  N3  UNL     1      31.233  38.740   6.734  1.00  0.00    -0.260 N
ATOM     12  H3  UNL     1      31.921  39.491   6.688  1.00  0.00     0.190 HD
HETATM   13  O3  UNL     1      29.264  37.868   5.999  1.00  0.00    -0.264 OA
BRANCH  11  14
HETATM   14  N2  UNL     1      31.457  37.674   7.607  1.00  0.00    -0.241 N
HETATM   15  C1  UNL     1      31.961  37.882   8.916  1.00  0.00     0.401 C
HETATM   16  O2  UNL     1      32.231  39.032   9.358  1.00  0.00    -0.235 OA
ATOM     17  H2  UNL     1      31.253  36.724   7.296  1.00  0.00     0.192 HD
BRANCH  15  18
HETATM   18  O1  UNL     1      32.175  36.818   9.762  1.00  0.00    -0.187 OA
BRANCH  18  19
HETATM   19  N1  UNL     1      32.645  36.986  11.044  1.00  0.00    -0.301 N
ATOM     20  H12 UNL     1      33.624  37.249  11.163  1.00  0.00     0.184 HD
ATOM     21  H11 UNL     1      32.050  36.856  11.862  1.00  0.00     0.184 HD
ENDBRANCH  18  19
ENDBRANCH  15  18
ENDBRANCH  11  14
ENDBRANCH   1  10
BRANCH   9  22
HETATM   22  N6  UNL     1      29.438  41.473   6.879  1.00  0.00    -0.317 N
HETATM   23  C8  UNL     1      30.598  41.839   7.594  1.00  0.00     0.292 C
HETATM   24  O5  UNL     1      31.695  41.892   6.986  1.00  0.00    -0.264 OA
ATOM     25  H6  UNL     1      28.537  41.424   7.355  1.00  0.00     0.169 HD
BRANCH  23  26
HETATM   26  C9  UNL     1      30.549  42.157   9.029  1.00  0.00     0.200 A
HETATM   27  N7  UNL     1      30.312  41.291  10.029  1.00  0.00    -0.266 N
HETATM   28  N8  UNL     1      30.350  41.967  11.179  1.00  0.00    -0.007 NA
ATOM     29  H7  UNL     1      30.134  40.292   9.927  1.00  0.00     0.185 HD
HETATM   30  N9  UNL     1      30.604  43.243  10.947  1.00  0.00    -0.007 NA
HETATM   31  N10 UNL     1      30.723  43.346   9.629  1.00  0.00    -0.266 N
ATOM     32  H10 UNL     1      30.921  44.217   9.136  1.00  0.00     0.185 HD
ENDBRANCH  23  26
ENDBRANCH   9  22
TORSDOF 6
ENDMDL