MODEL 3
REMARK VINA RESULT: -6.703606829      1.579      2.174
REMARK  6 active torsions:
REMARK  status: ('A' for Active; 'I' for Inactive)
REMARK    1  A    between atoms: C4_8  and  N4_9
REMARK    2  A    between atoms: N4_9  and  N5_11
REMARK    3  A    between atoms: C5_13  and  C6_15
REMARK    4  A    between atoms: C6_15  and  N7_16
REMARK    5  A    between atoms: C9_23  and  N8_24
REMARK    6  A    between atoms: N8_24  and  N9_26
ROOT
HETATM    1  N1  UNL     1      29.421  39.788   1.657  1.00  0.00    -0.191 NA
HETATM    2  C1  UNL     1      29.355  40.468   2.617  1.00  0.00     0.105 C
HETATM    3  C2  UNL     1      29.277  41.316   3.772  1.00  0.00     0.113 A
HETATM    4  C3  UNL     1      28.984  42.678   3.640  1.00  0.00     0.141 A
HETATM    5  N2  UNL     1      28.769  43.184   2.337  1.00  0.00    -0.081 NA
HETATM    6  N3  UNL     1      28.924  43.418   4.745  1.00  0.00    -0.328 N
ATOM      7  H3  UNL     1      28.710  44.409   4.635  1.00  0.00     0.168 HD
HETATM    8  C4  UNL     1      29.127  42.958   6.015  1.00  0.00     0.138 A
HETATM    9  C7  UNL     1      29.412  41.621   6.127  1.00  0.00     0.092 A
HETATM   10  C8  UNL     1      29.581  41.257   7.440  1.00  0.00     0.233 C
HETATM   11  O1  UNL     1      29.881  42.140   8.268  1.00  0.00    -0.283 OA
HETATM   12  C9  UNL     1      29.444  39.960   7.934  1.00  0.00     0.175 C
HETATM   13  N10 UNL     1      29.454  38.798   7.260  1.00  0.00    -0.290 N
ATOM     14  H10 UNL     1      29.212  37.977   7.814  1.00  0.00     0.172 HD
HETATM   15  C10 UNL     1      29.733  38.550   5.968  1.00  0.00     0.326 C
HETATM   16  O2  UNL     1      29.986  37.356   5.669  1.00  0.00    -0.247 OA
HETATM   17  N11 UNL     1      29.764  39.462   4.983  1.00  0.00    -0.306 N
ATOM     18  H11 UNL     1      30.034  39.100   4.069  1.00  0.00     0.171 HD
HETATM   19  C11 UNL     1      29.494  40.777   5.017  1.00  0.00     0.078 A
ENDROOT
BRANCH   8  20
HETATM   20  N4  UNL     1      29.025  43.855   7.113  1.00  0.00    -0.283 N
ATOM     21  H4  UNL     1      29.785  43.933   7.789  1.00  0.00     0.188 HD
BRANCH  20  22
HETATM   22  N5  UNL     1      27.891  44.617   7.253  1.00  0.00    -0.288 N
HETATM   23  C5  UNL     1      26.944  44.535   8.089  1.00  0.00     0.133 C
HETATM   24  N6  UNL     1      25.880  45.461   8.007  1.00  0.00    -0.084 NA
ATOM     25  H5  UNL     1      27.796  45.371   6.573  1.00  0.00     0.188 HD
BRANCH  23  26
HETATM   26  C6  UNL     1      26.915  43.513   9.140  1.00  0.00     0.303 C
BRANCH  26  27
HETATM   27  N7  UNL     1      27.864  43.772  10.207  1.00  0.00    -0.073 N
ATOM     28  H73 UNL     1      27.930  44.771  10.402  1.00  0.00     0.274 HD
ATOM     29  H72 UNL     1      27.500  43.451  11.105  1.00  0.00     0.274 HD
ATOM     30  H71 UNL     1      28.786  43.375  10.024  1.00  0.00     0.274 HD
ENDBRANCH  26  27
ENDBRANCH  23  26
ENDBRANCH  20  22
ENDBRANCH   8  20
BRANCH  12  31
HETATM   31  N8  UNL     1      29.285  39.889   9.212  1.00  0.00    -0.289 N
ATOM     32  H8  UNL     1      30.056  39.580   9.804  1.00  0.00     0.188 HD
BRANCH  31  33
HETATM   33  N9  UNL     1      28.059  40.234   9.786  1.00  0.00    -0.344 N
ATOM     34  H92 UNL     1      27.788  41.217   9.818  1.00  0.00     0.176 HD
ATOM     35  H91 UNL     1      27.450  39.509  10.168  1.00  0.00     0.176 HD
ENDBRANCH  31  33
ENDBRANCH  12  31
TORSDOF 6
ENDMDL