MODEL 4
REMARK VINA RESULT: -7.154274883      1.489      1.852
REMARK  8 active torsions:
REMARK  status: ('A' for Active; 'I' for Inactive)
REMARK    1  A    between atoms: C5_5  and  N1_6
REMARK    2  A    between atoms: N1_6  and  O1_8
REMARK    3  A    between atoms: C6_10  and  C7_11
REMARK       I    between atoms: C7_11  and  N2_13
REMARK    4  A    between atoms: N2_13  and  N3_15
REMARK    5  A    between atoms: C8_17  and  N4_18
REMARK    6  A    between atoms: C8_17  and  C9_23
REMARK    7  A    between atoms: N4_18  and  N5_20
REMARK       I    between atoms: C9_23  and  N6_25
REMARK    8  A    between atoms: N6_25  and  N7_26
ROOT
HETATM    1  C7  UNL     1      31.061  40.396   6.180  1.00  0.00     0.248 C
HETATM    2  O2  UNL     1      30.907  39.175   5.910  1.00  0.00    -0.271 OA
HETATM    3  N2  UNL     1      30.989  41.350   5.160  1.00  0.00    -0.268 N
ATOM      4  H2  UNL     1      31.095  42.339   5.387  1.00  0.00     0.190 HD
ENDROOT
BRANCH   3   5
HETATM    5  N3  UNL     1      30.772  40.965   3.837  1.00  0.00    -0.276 N
HETATM    6  C8  UNL     1      29.632  41.297   3.301  1.00  0.00     0.225 C
ATOM      7  H3  UNL     1      31.476  40.446   3.312  1.00  0.00     0.189 HD
BRANCH   6   8
HETATM    8  N4  UNL     1      28.661  42.005   3.996  1.00  0.00    -0.218 N
ATOM      9  H4  UNL     1      28.009  41.488   4.586  1.00  0.00     0.195 HD
BRANCH   8  10
HETATM   10  N5  UNL     1      28.537  43.410   3.920  1.00  0.00    -0.037 N
HETATM   11  O3  UNL     1      29.099  44.166   4.704  1.00  0.00    -0.516 OA
HETATM   12  O4  UNL     1      27.745  43.917   2.913  1.00  0.00    -0.516 OA
ENDBRANCH   8  10
ENDBRANCH   6   8
BRANCH   6  13
HETATM   13  C9  UNL     1      29.434  40.847   1.860  1.00  0.00     0.381 C
HETATM   14  O5  UNL     1      29.501  39.671   1.683  1.00  0.00    -0.246 OA
HETATM   15  N6  UNL     1      29.203  41.884   0.970  1.00  0.00    -0.285 NA
BRANCH  15  16
HETATM   16  N7  UNL     1      28.993  42.827   0.160  1.00  0.00    -0.276 N
ATOM     17  H72 UNL     1      29.165  42.065   0.815  1.00  0.00     0.191 HD
ATOM     18  H71 UNL     1      28.824  43.591  -0.494  1.00  0.00     0.191 HD
ENDBRANCH  15  16
ENDBRANCH   6  13
ENDBRANCH   3   5
BRANCH   1  19
HETATM   19  C6  UNL     1      31.328  40.821   7.572  1.00  0.00     0.155 C
HETATM   20  C5  UNL     1      30.140  40.581   8.408  1.00  0.00     0.046 C
HETATM   21  C4  UNL     1      29.820  41.446   9.386  1.00  0.00     0.038 C
HETATM   22  C2  UNL     1      30.704  42.611   9.579  1.00  0.00     0.073 C
HETATM   23  C1  UNL     1      31.967  42.259  10.352  1.00  0.00     0.050 C
HETATM   24  C3  UNL     1      30.037  43.725  10.341  1.00  0.00     0.050 C
HETATM   25  O6  UNL     1      31.008  43.099   8.322  1.00  0.00    -0.376 OA
HETATM   26  C10 UNL     1      31.779  42.266   7.558  1.00  0.00     0.189 C
BRANCH  20  27
HETATM   27  N1  UNL     1      29.283  39.466   8.237  1.00  0.00    -0.273 N
ATOM     28  H1  UNL     1      28.294  39.607   8.031  1.00  0.00     0.194 HD
BRANCH  27  29
HETATM   29  O1  UNL     1      29.779  38.219   8.349  1.00  0.00    -0.290 OA
ATOM     30  H1  UNL     1      29.453  37.530   7.783  1.00  0.00     0.244 HD
ENDBRANCH  27  29
ENDBRANCH  20  27
ENDBRANCH   1  19
TORSDOF 8
ENDMDL