MODEL 4
REMARK VINA RESULT: -6.265832054      2.079      3.273
REMARK  6 active torsions:
REMARK  status: ('A' for Active; 'I' for Inactive)
REMARK    1  A    between atoms: C4_10  and  C5_11
REMARK    2  A    between atoms: C7_16  and  C8_17
REMARK       I    between atoms: C8_17  and  N7_19
REMARK    3  A    between atoms: N7_19  and  N8_21
REMARK    4  A    between atoms: N9_24  and  C9_25
REMARK    5  A    between atoms: C9_25  and  C10_26
REMARK    6  A    between atoms: C10_26  and  O2_27
ROOT
HETATM    1  N1  UNL     1      27.071  44.988   3.827  1.00  0.00    -0.191 NA
HETATM    2  C1  UNL     1      27.728  44.468   3.022  1.00  0.00     0.105 C
HETATM    3  C2  UNL     1      28.503  43.827   2.003  1.00  0.00     0.116 A
HETATM    4  C3  UNL     1      28.544  44.350   0.694  1.00  0.00     0.154 A
HETATM    5  N2  UNL     1      27.928  45.532   0.226  1.00  0.00    -0.080 NA
HETATM    6  N3  UNL     1      29.287  43.480   0.014  1.00  0.00    -0.286 N
ATOM      7  H3  UNL     1      29.515  43.563  -0.976  1.00  0.00     0.188 HD
HETATM    8  N4  UNL     1      29.691  42.493   0.801  1.00  0.00    -0.297 N
ATOM      9  H4  UNL     1      30.272  41.711   0.499  1.00  0.00     0.187 HD
HETATM   10  C4  UNL     1      29.219  42.669   2.074  1.00  0.00     0.091 A
ENDROOT
BRANCH  10  11
HETATM   11  C5  UNL     1      29.389  41.727   3.169  1.00  0.00     0.103 A
HETATM   12  C6  UNL     1      29.290  40.343   2.932  1.00  0.00     0.136 A
HETATM   13  N5  UNL     1      28.863  39.970   1.606  1.00  0.00    -0.082 NA
HETATM   14  N6  UNL     1      29.522  39.433   3.832  1.00  0.00    -0.325 N
HETATM   15  C7  UNL     1      29.889  39.755   5.114  1.00  0.00     0.182 A
ATOM     16  H6  UNL     1      29.429  38.449   3.577  1.00  0.00     0.169 HD
HETATM   17  N9  UNL     1      29.990  41.041   5.375  1.00  0.00    -0.293 N
HETATM   18  C11 UNL     1      29.755  42.037   4.446  1.00  0.00     0.265 A
HETATM   19  O3  UNL     1      29.895  43.232   4.815  1.00  0.00    -0.267 OA
BRANCH  15  20
HETATM   20  C8  UNL     1      30.132  38.634   6.001  1.00  0.00     0.303 C
HETATM   21  O1  UNL     1      29.493  37.590   5.971  1.00  0.00    -0.263 OA
HETATM   22  N7  UNL     1      31.168  38.741   6.963  1.00  0.00    -0.270 N
ATOM     23  H7  UNL     1      31.728  39.591   7.028  1.00  0.00     0.189 HD
BRANCH  22  24
HETATM   24  N8  UNL     1      31.406  37.666   7.817  1.00  0.00    -0.342 N
ATOM     25  H82 UNL     1      31.426  37.818   8.825  1.00  0.00     0.176 HD
ATOM     26  H81 UNL     1      31.558  36.741   7.413  1.00  0.00     0.176 HD
ENDBRANCH  22  24
ENDBRANCH  15  20
BRANCH  17  27
HETATM   27  C9  UNL     1      30.301  41.513   6.707  1.00  0.00     0.160 C
BRANCH  27  28
HETATM   28  C10 UNL     1      29.111  41.640   7.604  1.00  0.00     0.184 C
BRANCH  28  29
HETATM   29  O2  UNL     1      28.888  40.563   8.396  1.00  0.00    -0.399 OA
ATOM     30  H2  UNL     1      28.191  40.679   9.031  1.00  0.00     0.209 HD
ENDBRANCH  28  29
ENDBRANCH  27  28
ENDBRANCH  17  27
ENDBRANCH  10  11
TORSDOF 6
ENDMDL