MODEL 5
REMARK VINA RESULT: -6.577133212      1.456      1.584
REMARK  7 active torsions:
REMARK  status: ('A' for Active; 'I' for Inactive)
REMARK    1  A    between atoms: N1_1  and  N2_4
REMARK    2  A    between atoms: N2_4  and  C1_6
REMARK    3  A    between atoms: C3_11  and  C4_12
REMARK       I    between atoms: C4_12  and  N5_14
REMARK    4  A    between atoms: N5_14  and  N6_16
REMARK    5  A    between atoms: N8_21  and  N9_22
REMARK    6  A    between atoms: N9_22  and  C6_24
REMARK    7  A    between atoms: C6_24  and  C7_25
ROOT
HETATM    1  C1  UNL     1      30.551  39.694   6.262  1.00  0.00     0.184 A
HETATM    2  C2  UNL     1      29.801  39.279   5.207  1.00  0.00     0.164 A
HETATM    3  N3  UNL     1      29.464  37.898   5.029  1.00  0.00    -0.078 NA
HETATM    4  N4  UNL     1      29.387  40.218   4.338  1.00  0.00    -0.334 N
ATOM      5  H4  UNL     1      28.823  39.940   3.536  1.00  0.00     0.167 HD
HETATM    6  C3  UNL     1      29.700  41.513   4.503  1.00  0.00     0.147 A
HETATM    7  C5  UNL     1      30.468  41.866   5.599  1.00  0.00     0.172 A
HETATM    8  N7  UNL     1      30.765  43.245   5.718  1.00  0.00    -0.078 NA
HETATM    9  N8  UNL     1      30.910  40.990   6.497  1.00  0.00    -0.219 N
ENDROOT
BRANCH   9  10
HETATM   10  N9  UNL     1      31.681  41.290   7.612  1.00  0.00    -0.301 N
ATOM     11  H9  UNL     1      32.640  40.941   7.613  1.00  0.00     0.186 HD
BRANCH  10  12
HETATM   12  C6  UNL     1      31.278  42.026   8.741  1.00  0.00     0.121 C
BRANCH  12  13
HETATM   13  C7  UNL     1      29.871  41.840   9.179  1.00  0.00     0.005 A
HETATM   14  C8  UNL     1      28.849  42.704   8.913  1.00  0.00     0.015 A
HETATM   15  C9  UNL     1      27.538  42.497   9.341  1.00  0.00     0.001 A
HETATM   16  C10 UNL     1      27.283  41.361  10.065  1.00  0.00     0.002 A
HETATM   17  C11 UNL     1      28.286  40.462  10.356  1.00  0.00     0.027 A
HETATM   18  C12 UNL     1      29.552  40.690   9.926  1.00  0.00     0.058 A
HETATM   19  N10 UNL     1      30.607  39.764  10.221  1.00  0.00    -0.102 NA
ENDBRANCH  12  13
ENDBRANCH  10  12
ENDBRANCH   9  10
BRANCH   1  20
HETATM   20  N2  UNL     1      30.945  38.782   7.093  1.00  0.00    -0.288 N
ATOM     21  H2  UNL     1      31.951  38.648   7.193  1.00  0.00     0.188 HD
BRANCH  20  22
HETATM   22  N1  UNL     1      30.128  37.981   7.850  1.00  0.00    -0.343 N
ATOM     23  H12 UNL     1      29.925  37.058   7.468  1.00  0.00     0.176 HD
ATOM     24  H11 UNL     1      29.716  38.232   8.749  1.00  0.00     0.176 HD
ENDBRANCH  20  22
ENDBRANCH   1  20
BRANCH   6  25
HETATM   25  C4  UNL     1      29.238  42.536   3.538  1.00  0.00     0.289 C
HETATM   26  O1  UNL     1      29.719  42.506   2.378  1.00  0.00    -0.264 OA
HETATM   27  N5  UNL     1      28.297  43.513   3.886  1.00  0.00    -0.271 N
ATOM     28  H5  UNL     1      27.908  43.533   4.829  1.00  0.00     0.189 HD
BRANCH  27  29
HETATM   29  N6  UNL     1      27.892  44.454   2.948  1.00  0.00    -0.342 N
ATOM     30  H62 UNL     1      27.100  44.239   2.343  1.00  0.00     0.176 HD
ATOM     31  H61 UNL     1      28.384  45.344   2.872  1.00  0.00     0.176 HD
ENDBRANCH  27  29
ENDBRANCH   6  25
TORSDOF 7
ENDMDL