MODEL 1
REMARK VINA RESULT: -6.733512286      0.000      0.000
REMARK  11 active torsions:
REMARK  status: ('A' for Active; 'I' for Inactive)
REMARK    1  A    between atoms: C2_3  and  N2_4
REMARK    2  A    between atoms: N2_4  and  O1_6
REMARK    3  A    between atoms: O1_6  and  C3_7
REMARK    4  A    between atoms: C3_7  and  O2_8
REMARK    5  A    between atoms: N3_10  and  O3_11
REMARK    6  A    between atoms: C4_13  and  O4_14
REMARK    7  A    between atoms: C5_16  and  C6_17
REMARK    8  A    between atoms: C6_17  and  N4_18
REMARK    9  A    between atoms: N4_18  and  N5_20
REMARK   10  A    between atoms: N5_20  and  C7_22
REMARK   11  A    between atoms: C8_27  and  N8_28
ROOT
HETATM    1  C1  UNL     1      32.021  37.919  13.437  1.00  0.00     0.179 C
HETATM    2  N1  UNL     1      31.960  38.189  12.002  1.00  0.00    -0.147 N
HETATM    3  C2  UNL     1      32.746  37.513  11.155  1.00  0.00     0.735 A
HETATM    4  N3  UNL     1      32.708  37.745   9.833  1.00  0.00    -0.026 N
HETATM    5  C4  UNL     1      31.871  38.669   9.334  1.00  0.00     0.203 A
HETATM    6  C5  UNL     1      31.046  39.389  10.162  1.00  0.00     0.103 A
HETATM    7  C9  UNL     1      31.120  39.117  11.508  1.00  0.00     0.277 A
HETATM    8  O5  UNL     1      30.382  39.751  12.310  1.00  0.00    -0.266 OA
ENDROOT
BRANCH   6   9
HETATM    9  C6  UNL     1      30.153  40.380   9.598  1.00  0.00     0.129 C
BRANCH   9  10
HETATM   10  N4  UNL     1      29.337  40.119   8.633  1.00  0.00    -0.296 N
ATOM     11  H4  UNL     1      28.665  39.357   8.725  1.00  0.00     0.186 HD
BRANCH  10  12
HETATM   12  N5  UNL     1      29.372  40.879   7.464  1.00  0.00    -0.131 N
ATOM     13  H5  UNL     1      29.383  41.898   7.490  1.00  0.00     0.205 HD
BRANCH  12  14
HETATM   14  C7  UNL     1      29.391  40.220   6.331  1.00  0.00     0.726 A
HETATM   15  N6  UNL     1      29.207  38.898   6.206  1.00  0.00    -0.116 N
HETATM   16  N7  UNL     1      29.293  38.579   4.907  1.00  0.00    -0.117 N
ATOM     17  H6  UNL     1      29.030  38.245   6.969  1.00  0.00     0.206 HD
HETATM   18  C8  UNL     1      29.533  39.694   4.193  1.00  0.00     0.705 A
ATOM     19  H7  UNL     1      29.194  37.641   4.521  1.00  0.00     0.206 HD
HETATM   20  N9  UNL     1      29.588  40.691   5.094  1.00  0.00    -0.019 N
ATOM     21  H9  UNL     1      29.756  41.672   4.866  1.00  0.00     0.203 HD
BRANCH  18  22
HETATM   22  N8  UNL     1      29.686  39.849   2.922  1.00  0.00    -0.233 N
ATOM     23  H82 UNL     1      30.571  40.083   2.470  1.00  0.00     0.174 HD
ATOM     24  H81 UNL     1      29.007  39.776   2.164  1.00  0.00     0.174 HD
ENDBRANCH  18  22
ENDBRANCH  12  14
ENDBRANCH  10  12
ENDBRANCH   9  10
ENDBRANCH   6   9
BRANCH   5  25
HETATM   25  O4  UNL     1      31.852  38.890   7.964  1.00  0.00    -0.343 OA
ATOM     26  H4  UNL     1      31.032  39.129   7.547  1.00  0.00     0.219 HD
ENDBRANCH   5  25
BRANCH   4  27
HETATM   27  O3  UNL     1      33.531  37.027   9.007  1.00  0.00    -0.267 OA
ATOM     28  H3  UNL     1      34.345  36.681   9.353  1.00  0.00     0.246 HD
ENDBRANCH   4  27
BRANCH   3  29
HETATM   29  N2  UNL     1      33.635  36.529  11.700  1.00  0.00    -0.092 N
ATOM     30  H2  UNL     1      33.275  35.811  12.330  1.00  0.00     0.213 HD
BRANCH  29  31
HETATM   31  O1  UNL     1      34.932  36.548  11.385  1.00  0.00    -0.240 OA
BRANCH  31  32
HETATM   32  C3  UNL     1      35.467  35.280  11.222  1.00  0.00     0.367 C
BRANCH  32  33
HETATM   33  O2  UNL     1      34.900  34.569  10.183  1.00  0.00    -0.375 OA
ATOM     34  H2  UNL     1      34.905  33.628  10.317  1.00  0.00     0.212 HD
ENDBRANCH  32  33
ENDBRANCH  31  32
ENDBRANCH  29  31
ENDBRANCH   3  29
TORSDOF 11
ENDMDL