MODEL 2
REMARK VINA RESULT: -6.777748501      3.176      4.011
REMARK  6 active torsions:
REMARK  status: ('A' for Active; 'I' for Inactive)
REMARK    1  A    between atoms: N1_1  and  C1_4
REMARK    2  A    between atoms: N5_11  and  N6_12
REMARK       I    between atoms: N6_12  and  C2_14
REMARK       I    between atoms: C2_14  and  N8_16
REMARK    3  A    between atoms: N8_16  and  S1_18
REMARK    4  A    between atoms: S1_18  and  C3_21
REMARK    5  A    between atoms: C5_25  and  C6_26
REMARK    6  A    between atoms: N10_29  and  N11_30
ROOT
HETATM    1  N6  UNL     1      32.980  38.973  10.097  1.00  0.00    -0.235 N
ATOM      2  H6  UNL     1      33.958  38.903   9.814  1.00  0.00     0.192 HD
HETATM    3  C2  UNL     1      32.094  39.858   9.409  1.00  0.00     0.219 C
HETATM    4  N7  UNL     1      32.002  41.183   9.919  1.00  0.00    -0.061 NA
HETATM    5  N8  UNL     1      31.415  39.457   8.374  1.00  0.00    -0.251 N
ATOM      6  H8  UNL     1      31.503  38.499   8.034  1.00  0.00     0.181 HD
ENDROOT
BRANCH   5   7
HETATM    7  S1  UNL     1      30.367  40.569   7.593  1.00  0.00     0.284 S
HETATM    8  O1  UNL     1      31.072  41.918   7.543  1.00  0.00    -0.199 OA
HETATM    9  O2  UNL     1      29.149  40.738   8.446  1.00  0.00    -0.199 OA
BRANCH   7  10
HETATM   10  C3  UNL     1      29.947  40.040   5.996  1.00  0.00     0.188 A
HETATM   11  C4  UNL     1      29.421  38.803   5.686  1.00  0.00     0.135 A
HETATM   12  N9  UNL     1      29.245  38.804   4.355  1.00  0.00    -0.342 N
HETATM   13  C5  UNL     1      29.654  40.011   3.869  1.00  0.00     0.205 A
ATOM     14  H9  UNL     1      28.870  38.034   3.801  1.00  0.00     0.167 HD
HETATM   15  N10 UNL     1      30.090  40.778   4.883  1.00  0.00    -0.226 N
BRANCH  13  16
HETATM   16  C6  UNL     1      29.605  40.364   2.464  1.00  0.00     0.247 C
HETATM   17  O3  UNL     1      29.395  39.467   1.621  1.00  0.00    -0.642 OA
HETATM   18  O4  UNL     1      29.784  41.657   2.014  1.00  0.00    -0.642 OA
ENDBRANCH  13  16
BRANCH  15  19
HETATM   19  N11 UNL     1      30.583  42.081   4.755  1.00  0.00    -0.336 N
ATOM     20 2H11 UNL     1      30.015  42.912   4.590  1.00  0.00     0.177 HD
ATOM     21 1H11 UNL     1      31.549  42.403   4.805  1.00  0.00     0.177 HD
ENDBRANCH  15  19
ENDBRANCH   7  10
ENDBRANCH   5   7
BRANCH   1  22
HETATM   22  N5  UNL     1      32.501  38.204  11.162  1.00  0.00    -0.001 N
HETATM   23  C1  UNL     1      32.867  36.959  11.496  1.00  0.00     0.729 A
HETATM   24  N2  UNL     1      32.164  36.576  12.591  1.00  0.00    -0.114 N
HETATM   25  N3  UNL     1      31.380  37.580  12.915  1.00  0.00    -0.212 N
ATOM     26  H2  UNL     1      32.230  35.679  13.072  1.00  0.00     0.207 HD
HETATM   27  N4  UNL     1      31.592  38.554  12.047  1.00  0.00    -0.191 N
ATOM     28  H3  UNL     1      30.724  37.603  13.697  1.00  0.00     0.210 HD
ATOM     29  H4  UNL     1      31.116  39.456  12.062  1.00  0.00     0.212 HD
BRANCH  23  30
HETATM   30  N1  UNL     1      33.742  36.223  10.895  1.00  0.00    -0.230 N
ATOM     31  H12 UNL     1      34.627  35.891  11.278  1.00  0.00     0.174 HD
ATOM     32  H11 UNL     1      33.648  35.878   9.940  1.00  0.00     0.174 HD
ENDBRANCH  23  30
ENDBRANCH   1  22
TORSDOF 6
ENDMDL