MODEL 2
REMARK VINA RESULT: -6.228209303      3.604      6.508
REMARK  7 active torsions:
REMARK  status: ('A' for Active; 'I' for Inactive)
REMARK    1  A    between atoms: N1_1  and  C1_4
REMARK    2  A    between atoms: C2_9  and  C3_10
REMARK    3  A    between atoms: C3_10  and  N4_11
REMARK    4  A    between atoms: C5_14  and  C6_15
REMARK    5  A    between atoms: C6_15  and  N6_16
REMARK    6  A    between atoms: C6_15  and  O1_20
REMARK    7  A    between atoms: N7_24  and  N8_25
ROOT
HETATM    1  N4  UNL     1      31.942  40.709   9.638  1.00  0.00    -0.278 N
HETATM    2  C4  UNL     1      31.449  39.906   8.677  1.00  0.00     0.139 A
HETATM    3  N5  UNL     1      30.846  40.554   7.557  1.00  0.00    -0.081 NA
HETATM    4  C5  UNL     1      31.508  38.530   8.744  1.00  0.00     0.108 A
HETATM    5  C7  UNL     1      32.113  38.002   9.874  1.00  0.00     0.284 A
HETATM    6  O2  UNL     1      32.196  36.763   9.989  1.00  0.00    -0.265 OA
HETATM    7  N7  UNL     1      32.611  38.791  10.840  1.00  0.00    -0.170 N
HETATM    8  C11 UNL     1      32.520  40.148  10.715  1.00  0.00     0.352 A
HETATM    9  O3  UNL     1      32.986  40.909  11.620  1.00  0.00    -0.244 OA
ENDROOT
BRANCH   1  10
HETATM   10  C3  UNL     1      31.854  42.153   9.518  1.00  0.00     0.213 C
BRANCH  10  11
HETATM   11  C2  UNL     1      33.012  42.750   8.842  1.00  0.00     0.131 A
HETATM   12  N3  UNL     1      33.141  42.914   7.514  1.00  0.00    -0.273 N
HETATM   13  N2  UNL     1      34.312  43.482   7.276  1.00  0.00    -0.131 N
ATOM     14  H3  UNL     1      32.454  42.647   6.809  1.00  0.00     0.189 HD
HETATM   15  C1  UNL     1      34.963  43.697   8.434  1.00  0.00     0.691 A
ATOM     16  H2  UNL     1      34.668  43.721   6.351  1.00  0.00     0.205 HD
HETATM   17  N9  UNL     1      34.136  43.233   9.391  1.00  0.00    -0.177 N
ATOM     18  H9  UNL     1      34.336  43.249  10.391  1.00  0.00     0.185 HD
BRANCH  15  19
HETATM   19  N1  UNL     1      36.135  44.233   8.608  1.00  0.00    -0.233 N
ATOM     20  H12 UNL     1      37.039  43.797   8.431  1.00  0.00     0.174 HD
ATOM     21  H11 UNL     1      36.355  45.169   8.949  1.00  0.00     0.174 HD
ENDBRANCH  15  19
ENDBRANCH  10  11
ENDBRANCH   1  10
BRANCH   4  22
HETATM   22  C6  UNL     1      30.953  37.713   7.667  1.00  0.00     0.359 C
BRANCH  22  23
HETATM   23  N6  UNL     1      29.518  37.672   7.631  1.00  0.00    -0.049 N
ATOM     24  H63 UNL     1      29.134  38.614   7.707  1.00  0.00     0.277 HD
ATOM     25  H62 UNL     1      29.193  37.425   6.696  1.00  0.00     0.277 HD
ATOM     26  H61 UNL     1      29.095  37.059   8.328  1.00  0.00     0.277 HD
ENDBRANCH  22  23
BRANCH  22  27
HETATM   27  O1  UNL     1      31.387  38.119   6.397  1.00  0.00    -0.366 OA
ATOM     28  H1  UNL     1      30.787  37.869   5.705  1.00  0.00     0.212 HD
ENDBRANCH  22  27
ENDBRANCH   4  22
BRANCH   7  29
HETATM   29  N8  UNL     1      33.224  38.279  11.987  1.00  0.00    -0.314 N
HETATM   30  C8  UNL     1      32.675  37.856  13.266  1.00  0.00     0.145 A
HETATM   31  C9  UNL     1      34.055  37.566  13.776  1.00  0.00     0.043 A
HETATM   32  C10 UNL     1      34.564  37.959  12.404  1.00  0.00     0.145 A
ENDBRANCH   7  29
TORSDOF 7
ENDMDL