MODEL 2
REMARK VINA RESULT: -5.581458206      2.084      2.470
REMARK  10 active torsions:
REMARK  status: ('A' for Active; 'I' for Inactive)
REMARK    1  A    between atoms: N1_1  and  C1_4
REMARK    2  A    between atoms: N3_7  and  O1_8
REMARK    3  A    between atoms: C3_11  and  C4_12
REMARK    4  A    between atoms: C4_12  and  N4_13
REMARK    5  A    between atoms: C4_12  and  N5_17
REMARK    6  A    between atoms: C6_22  and  C7_23
REMARK    7  A    between atoms: C7_23  and  N6_24
REMARK    8  A    between atoms: C9_31  and  N8_32
REMARK    9  A    between atoms: N8_32  and  C10_34
REMARK   10  A    between atoms: C10_34  and  C11_35
ROOT
HETATM    1  C1  UNL     1      28.673  39.488   3.744  1.00  0.00     0.694 C
HETATM    2  N2  UNL     1      29.020  38.618   4.752  1.00  0.00    -0.105 N
ATOM      3  H2  UNL     1      28.497  37.742   4.789  1.00  0.00     0.208 HD
HETATM    4  N3  UNL     1      29.950  38.782   5.676  1.00  0.00    -0.146 N
HETATM    5  C2  UNL     1      30.446  39.942   6.152  1.00  0.00     0.122 A
HETATM    6  C3  UNL     1      30.923  39.750   7.433  1.00  0.00     0.034 A
HETATM    7  C5  UNL     1      31.487  40.932   7.936  1.00  0.00     0.040 A
HETATM    8  C6  UNL     1      31.557  42.112   7.263  1.00  0.00     0.036 A
HETATM    9  N7  UNL     1      31.068  42.193   6.040  1.00  0.00    -0.353 N
ATOM     10  H7  UNL     1      31.121  43.079   5.537  1.00  0.00     0.166 HD
HETATM   11  C8  UNL     1      30.517  41.155   5.462  1.00  0.00     0.109 A
HETATM   12  C9  UNL     1      30.065  41.455   4.202  1.00  0.00     0.146 C
HETATM   13  N9  UNL     1      29.210  40.702   3.474  1.00  0.00    -0.174 N
ATOM     14  H9  UNL     1      28.924  41.112   2.585  1.00  0.00     0.186 HD
ENDROOT
BRANCH   6  15
HETATM   15  C4  UNL     1      30.841  38.537   8.229  1.00  0.00     0.413 C
BRANCH  15  16
HETATM   16  N4  UNL     1      32.149  37.946   8.558  1.00  0.00    -0.046 N
ATOM     17  H43 UNL     1      32.787  38.024   7.766  1.00  0.00     0.277 HD
ATOM     18  H42 UNL     1      32.644  38.526   9.236  1.00  0.00     0.277 HD
ATOM     19  H41 UNL     1      32.099  36.980   8.883  1.00  0.00     0.277 HD
ENDBRANCH  15  16
BRANCH  15  20
HETATM   20  N5  UNL     1      30.733  39.198   9.614  1.00  0.00    -0.046 N
ATOM     21  H53 UNL     1      31.596  39.563  10.016  1.00  0.00     0.277 HD
ATOM     22  H52 UNL     1      30.255  40.098   9.656  1.00  0.00     0.277 HD
ATOM     23  H51 UNL     1      30.291  38.422  10.107  1.00  0.00     0.277 HD
ENDBRANCH  15  20
ENDBRANCH   6  15
BRANCH   4  24
HETATM   24  O1  UNL     1      30.516  37.707   6.228  1.00  0.00    -0.267 OA
ATOM     25  H1  UNL     1      31.406  37.768   6.554  1.00  0.00     0.247 HD
ENDBRANCH   4  24
BRANCH   8  26
HETATM   26  C7  UNL     1      32.187  43.319   7.906  1.00  0.00     0.286 C
BRANCH  26  27
HETATM   27  N6  UNL     1      33.397  43.698   7.215  1.00  0.00    -0.074 N
ATOM     28  H63 UNL     1      33.384  43.398   6.240  1.00  0.00     0.274 HD
ATOM     29  H62 UNL     1      33.447  44.706   7.066  1.00  0.00     0.274 HD
ATOM     30  H61 UNL     1      34.220  43.348   7.706  1.00  0.00     0.274 HD
ENDBRANCH  26  27
ENDBRANCH   8  26
BRANCH  12  31
HETATM   31  N8  UNL     1      30.506  42.543   3.701  1.00  0.00    -0.364 N
ATOM     32  H8  UNL     1      31.486  42.793   3.831  1.00  0.00     0.161 HD
BRANCH  31  33
HETATM   33  C10 UNL     1      29.649  43.416   2.962  1.00  0.00     0.234 C
BRANCH  33  34
HETATM   34  C11 UNL     1      29.835  43.207   1.486  1.00  0.00     0.191 C
HETATM   35  O2  UNL     1      30.362  44.111   0.791  1.00  0.00    -0.647 OA
HETATM   36  O3  UNL     1      29.444  42.047   0.845  1.00  0.00    -0.647 OA
ENDBRANCH  33  34
ENDBRANCH  31  33
ENDBRANCH  12  31
BRANCH   1  37
HETATM   37  N1  UNL     1      27.736  39.157   2.935  1.00  0.00    -0.233 N
ATOM     38  H12 UNL     1      28.018  39.189   1.956  1.00  0.00     0.174 HD
ATOM     39  H11 UNL     1      26.825  38.898   3.315  1.00  0.00     0.174 HD
ENDBRANCH   1  37
TORSDOF 10
ENDMDL