MODEL 5
REMARK VINA RESULT: -6.122910929      2.016      2.501
REMARK  7 active torsions:
REMARK  status: ('A' for Active; 'I' for Inactive)
REMARK    1  A    between atoms: C3_4  and  C4_5
REMARK    2  A    between atoms: N5_12  and  C5_13
REMARK    3  A    between atoms: C6_14  and  C7_15
REMARK       I    between atoms: C7_15  and  N6_17
REMARK    4  A    between atoms: N6_17  and  N7_19
REMARK    5  A    between atoms: C8_22  and  C9_23
REMARK    6  A    between atoms: C9_23  and  N8_24
REMARK    7  A    between atoms: C9_23  and  O3_28
ROOT
HETATM    1  N1  UNL     1      28.525  43.103   7.739  1.00  0.00    -0.190 NA
HETATM    2  C1  UNL     1      29.241  42.417   7.134  1.00  0.00     0.122 C
HETATM    3  C2  UNL     1      30.130  41.571   6.374  1.00  0.00     0.171 A
HETATM    4  C3  UNL     1      30.151  41.568   4.985  1.00  0.00     0.154 A
HETATM    5  N3  UNL     1      31.094  40.665   4.659  1.00  0.00    -0.278 N
ATOM      6  H3  UNL     1      31.368  40.415   3.709  1.00  0.00     0.189 HD
HETATM    7  N4  UNL     1      31.602  40.162   5.750  1.00  0.00    -0.234 N
ATOM      8  H4  UNL     1      32.337  39.454   5.770  1.00  0.00     0.209 HD
HETATM    9  N5  UNL     1      31.038  40.691   6.838  1.00  0.00    -0.223 N
ENDROOT
BRANCH   4  10
HETATM   10  C4  UNL     1      29.326  42.375   4.093  1.00  0.00     0.285 C
HETATM   11  N2  UNL     1      29.821  43.631   3.659  1.00  0.00    -0.056 NA
HETATM   12  O1  UNL     1      28.198  42.019   3.683  1.00  0.00    -0.269 OA
ENDBRANCH   4  10
BRANCH   9  13
HETATM   13  C5  UNL     1      31.302  40.400   8.213  1.00  0.00     0.143 A
HETATM   14  C6  UNL     1      32.105  41.258   8.981  1.00  0.00     0.080 A
HETATM   15  C8  UNL     1      32.306  40.923  10.293  1.00  0.00     0.031 A
HETATM   16  C10 UNL     1      31.688  39.751  10.758  1.00  0.00     0.104 A
HETATM   17  N9  UNL     1      30.930  38.961   9.995  1.00  0.00    -0.331 N
HETATM   18  C11 UNL     1      30.716  39.259   8.707  1.00  0.00     0.275 A
ATOM     19  H9  UNL     1      30.510  38.123  10.396  1.00  0.00     0.168 HD
HETATM   20  O4  UNL     1      29.994  38.514   7.964  1.00  0.00    -0.266 OA
BRANCH  14  21
HETATM   21  C7  UNL     1      32.704  42.419   8.341  1.00  0.00     0.272 C
HETATM   22  O2  UNL     1      32.151  43.577   8.532  1.00  0.00    -0.266 OA
HETATM   23  N6  UNL     1      33.839  42.463   7.524  1.00  0.00    -0.272 N
ATOM     24  H6  UNL     1      34.343  41.598   7.331  1.00  0.00     0.189 HD
BRANCH  23  25
HETATM   25  N7  UNL     1      34.311  43.678   6.954  1.00  0.00    -0.342 N
ATOM     26  H72 UNL     1      34.429  44.481   7.570  1.00  0.00     0.176 HD
ATOM     27  H71 UNL     1      34.531  43.760   5.961  1.00  0.00     0.176 HD
ENDBRANCH  23  25
ENDBRANCH  14  21
BRANCH  15  28
HETATM   28  C9  UNL     1      33.182  41.665  11.243  1.00  0.00     0.353 C
BRANCH  28  29
HETATM   29  N8  UNL     1      33.546  40.632  12.266  1.00  0.00    -0.049 N
ATOM     30  H83 UNL     1      34.290  39.998  11.979  1.00  0.00     0.277 HD
ATOM     31  H82 UNL     1      34.030  41.001  13.085  1.00  0.00     0.277 HD
ATOM     32  H81 UNL     1      32.657  40.175  12.471  1.00  0.00     0.277 HD
ENDBRANCH  28  29
BRANCH  28  33
HETATM   33  O3  UNL     1      32.525  42.657  11.948  1.00  0.00    -0.366 OA
ATOM     34  H3  UNL     1      32.586  43.515  11.546  1.00  0.00     0.212 HD
ENDBRANCH  28  33
ENDBRANCH  15  28
ENDBRANCH   9  13
TORSDOF 7
ENDMDL