MODEL 1
REMARK VINA RESULT: -6.574223428      0.000      0.000
REMARK  7 active torsions:
REMARK  status: ('A' for Active; 'I' for Inactive)
REMARK    1  A    between atoms: C3_6  and  N3_7
REMARK    2  A    between atoms: C4_12  and  C5_13
REMARK       I    between atoms: C5_13  and  N5_15
REMARK    3  A    between atoms: N5_15  and  C6_17
REMARK    4  A    between atoms: C6_17  and  C7_18
REMARK    5  A    between atoms: C7_18  and  O2_19
REMARK    6  A    between atoms: N6_24  and  N7_25
REMARK    7  A    between atoms: N7_25  and  C10_27
ROOT
HETATM    1  C1  UNL     1      29.784  39.935   9.298  1.00  0.00     0.182 C
HETATM    2  N1  UNL     1      30.954  39.166   9.652  1.00  0.00    -0.255 N
HETATM    3  C2  UNL     1      31.501  39.206  10.895  1.00  0.00     0.157 A
HETATM    4  N2  UNL     1      31.169  39.883  11.999  1.00  0.00    -0.174 N
ATOM      5  H2  UNL     1      30.360  40.505  11.992  1.00  0.00     0.186 HD
HETATM    6  C3  UNL     1      31.893  39.747  13.106  1.00  0.00     0.678 A
HETATM    7  N4  UNL     1      32.967  38.947  13.182  1.00  0.00    -0.185 N
ATOM      8  H4  UNL     1      33.495  38.871  14.052  1.00  0.00     0.184 HD
HETATM    9  C4  UNL     1      33.342  38.239  12.086  1.00  0.00     0.136 A
HETATM   10  C8  UNL     1      32.589  38.373  10.912  1.00  0.00     0.114 A
HETATM   11  C9  UNL     1      32.664  37.847   9.649  1.00  0.00     0.298 A
HETATM   12  O3  UNL     1      33.509  37.039   9.220  1.00  0.00    -0.264 OA
HETATM   13  N6  UNL     1      31.634  38.356   8.885  1.00  0.00    -0.150 N
ENDROOT
BRANCH  13  14
HETATM   14  N7  UNL     1      31.454  38.000   7.546  1.00  0.00    -0.246 N
ATOM     15  H7  UNL     1      31.730  37.053   7.287  1.00  0.00     0.192 HD
BRANCH  14  16
HETATM   16  C10 UNL     1      30.937  38.800   6.521  1.00  0.00     0.192 C
HETATM   17  N8  UNL     1      29.846  38.496   5.883  1.00  0.00    -0.360 N
HETATM   18  C11 UNL     1      29.529  39.471   4.886  1.00  0.00     0.142 C
ATOM     19  H8  UNL     1      29.286  37.664   6.070  1.00  0.00     0.162 HD
HETATM   20  C12 UNL     1      30.778  40.306   4.796  1.00  0.00     0.142 C
HETATM   21  N9  UNL     1      31.454  40.020   6.035  1.00  0.00    -0.360 N
ATOM     22  H9  UNL     1      32.172  40.593   6.479  1.00  0.00     0.162 HD
ENDBRANCH  14  16
ENDBRANCH  13  14
BRANCH   9  23
HETATM   23  C5  UNL     1      34.502  37.397  12.146  1.00  0.00     0.270 C
HETATM   24  O1  UNL     1      35.669  37.798  12.193  1.00  0.00    -0.266 OA
HETATM   25  N5  UNL     1      34.329  35.977  12.153  1.00  0.00    -0.354 N
ATOM     26  H5  UNL     1      33.397  35.564  12.119  1.00  0.00     0.162 HD
BRANCH  25  27
HETATM   27  C6  UNL     1      35.522  35.133  12.210  1.00  0.00     0.149 C
BRANCH  27  28
HETATM   28  C7  UNL     1      35.520  34.116  11.104  1.00  0.00     0.183 C
BRANCH  28  29
HETATM   29  O2  UNL     1      34.808  34.525   9.998  1.00  0.00    -0.399 OA
ATOM     30  H2  UNL     1      33.872  34.388  10.088  1.00  0.00     0.209 HD
ENDBRANCH  28  29
ENDBRANCH  27  28
ENDBRANCH  25  27
ENDBRANCH   9  23
BRANCH   6  31
HETATM   31  N3  UNL     1      31.586  40.397  14.191  1.00  0.00    -0.234 N
ATOM     32  H32 UNL     1      30.930  39.936  14.820  1.00  0.00     0.174 HD
ATOM     33  H31 UNL     1      31.987  41.315  14.382  1.00  0.00     0.174 HD
ENDBRANCH   6  31
TORSDOF 7
ENDMDL