MODEL 2
REMARK VINA RESULT: -7.420885233      1.322      1.512
REMARK  8 active torsions:
REMARK  status: ('A' for Active; 'I' for Inactive)
REMARK    1  A    between atoms: N1_1  and  N2_4
REMARK    2  A    between atoms: N2_4  and  N3_6
REMARK    3  A    between atoms: N3_6  and  C1_8
REMARK    4  A    between atoms: C2_11  and  C3_12
REMARK       I    between atoms: N5_13  and  C4_15
REMARK    5  A    between atoms: C4_15  and  C5_17
REMARK    6  A    between atoms: C7_19  and  C8_20
REMARK    7  A    between atoms: C9_33  and  N12_34
REMARK    8  A    between atoms: N12_34  and  N13_36
ROOT
HETATM    1  C3  UNL     1      31.392  38.892  10.734  1.00  0.00     0.097 C
HETATM    2  N5  UNL     1      31.607  39.463   9.598  1.00  0.00    -0.333 N
ATOM      3  H5  UNL     1      32.557  39.652   9.280  1.00  0.00     0.168 HD
HETATM    4  C4  UNL     1      30.492  39.821   8.801  1.00  0.00     0.273 C
HETATM    5  O1  UNL     1      29.393  40.032   9.333  1.00  0.00    -0.266 OA
ENDROOT
BRANCH   1   6
HETATM    6  C2  UNL     1      32.580  38.524  11.555  1.00  0.00     0.208 A
HETATM    7  N4  UNL     1      33.501  37.872  10.679  1.00  0.00    -0.208 N
HETATM    8  C1  UNL     1      33.625  36.661  11.022  1.00  0.00     0.696 A
ATOM      9  H4  UNL     1      33.984  38.315   9.897  1.00  0.00     0.179 HD
HETATM   10  N14 UNL     1      32.806  36.415  12.139  1.00  0.00    -0.176 N
HETATM   11  C9  UNL     1      32.169  37.472  12.496  1.00  0.00     0.140 A
ATOM     12  H14 UNL     1      32.728  35.512  12.607  1.00  0.00     0.185 HD
BRANCH   8  13
HETATM   13  N3  UNL     1      34.490  35.745  10.325  1.00  0.00    -0.118 N
ATOM     14  H3  UNL     1      34.607  35.784   9.312  1.00  0.00     0.207 HD
BRANCH  13  15
HETATM   15  N2  UNL     1      35.159  34.804  11.102  1.00  0.00    -0.235 N
ATOM     16  H2  UNL     1      35.491  35.061  12.031  1.00  0.00     0.208 HD
BRANCH  15  17
HETATM   17  N1  UNL     1      35.362  33.612  10.660  1.00  0.00    -0.330 N
ATOM     18  H12 UNL     1      35.400  33.465   9.651  1.00  0.00     0.178 HD
ATOM     19  H11 UNL     1      35.483  32.831  11.305  1.00  0.00     0.178 HD
ENDBRANCH  15  17
ENDBRANCH  13  15
ENDBRANCH   8  13
BRANCH  11  20
HETATM   20  N12 UNL     1      31.249  37.645  13.569  1.00  0.00    -0.293 N
ATOM     21  H12 UNL     1      31.268  38.509  14.111  1.00  0.00     0.187 HD
BRANCH  20  22
HETATM   22  N13 UNL     1      30.309  36.643  13.899  1.00  0.00    -0.344 N
ATOM     23 2H13 UNL     1      30.439  35.710  13.507  1.00  0.00     0.176 HD
ATOM     24 1H13 UNL     1      29.518  36.840  14.513  1.00  0.00     0.176 HD
ENDBRANCH  20  22
ENDBRANCH  11  20
ENDBRANCH   1   6
BRANCH   4  25
HETATM   25  C5  UNL     1      30.641  39.939   7.374  1.00  0.00     0.118 A
HETATM   26  C6  UNL     1      29.657  39.779   6.405  1.00  0.00     0.071 A
HETATM   27  C7  UNL     1      30.219  39.978   5.168  1.00  0.00     0.097 A
HETATM   28  N10 UNL     1      31.514  40.252   5.398  1.00  0.00    -0.296 N
HETATM   29  N11 UNL     1      31.762  40.229   6.698  1.00  0.00    -0.295 N
ATOM     30  H10 UNL     1      32.206  40.448   4.675  1.00  0.00     0.187 HD
ATOM     31  H11 UNL     1      32.672  40.406   7.123  1.00  0.00     0.187 HD
BRANCH  27  32
HETATM   32  C8  UNL     1      29.537  39.904   3.881  1.00  0.00     0.165 A
HETATM   33  N6  UNL     1      29.929  40.416   2.702  1.00  0.00    -0.267 N
HETATM   34  N7  UNL     1      29.039  40.130   1.792  1.00  0.00    -0.227 N
ATOM     35  H6  UNL     1      30.787  40.945   2.544  1.00  0.00     0.190 HD
HETATM   36  N8  UNL     1      28.091  39.445   2.374  1.00  0.00    -0.227 N
ATOM     37  H7  UNL     1      29.077  40.393   0.808  1.00  0.00     0.210 HD
HETATM   38  N9  UNL     1      28.372  39.292   3.653  1.00  0.00    -0.267 N
ATOM     39  H8  UNL     1      27.258  39.083   1.909  1.00  0.00     0.210 HD
ATOM     40  H9  UNL     1      27.804  38.799   4.342  1.00  0.00     0.190 HD
ENDBRANCH  27  32
ENDBRANCH   4  25
TORSDOF 8
ENDMDL