MODEL 1
REMARK VINA RESULT: -8.317042764      0.000      0.000
REMARK  7 active torsions:
REMARK  status: ('A' for Active; 'I' for Inactive)
REMARK    1  A    between atoms: N2_4  and  C3_6
REMARK    2  A    between atoms: C3_6  and  C4_7
REMARK    3  A    between atoms: C4_7  and  C5_11
REMARK    4  A    between atoms: C5_11  and  O1_12
REMARK    5  A    between atoms: C5_11  and  C6_14
REMARK    6  A    between atoms: C6_14  and  N4_15
REMARK    7  A    between atoms: C10_30  and  N10_31
ROOT
HETATM    1  C1  UNL     1      29.893  37.823   6.071  1.00  0.00     0.177 C
HETATM    2  N1  UNL     1      30.257  39.196   5.833  1.00  0.00    -0.169 N
HETATM    3  C2  UNL     1      30.908  40.043   6.646  1.00  0.00     0.686 A
HETATM    4  N2  UNL     1      31.363  39.853   7.822  1.00  0.00    -0.200 N
ATOM      5  H2  UNL     1      31.831  40.646   8.261  1.00  0.00     0.183 HD
HETATM    6  N8  UNL     1      31.008  41.234   5.954  1.00  0.00    -0.182 N
ATOM      7  H8  UNL     1      31.457  42.075   6.314  1.00  0.00     0.184 HD
HETATM    8  C8  UNL     1      30.445  41.137   4.761  1.00  0.00     0.162 A
HETATM    9  C9  UNL     1      30.249  41.972   3.676  1.00  0.00     0.290 A
HETATM   10  O2  UNL     1      30.687  43.140   3.767  1.00  0.00    -0.265 OA
HETATM   11  N9  UNL     1      29.606  41.487   2.606  1.00  0.00    -0.154 N
ATOM     12  H9  UNL     1      29.465  42.109   1.811  1.00  0.00     0.187 HD
HETATM   13  C10 UNL     1      29.137  40.236   2.514  1.00  0.00     0.680 A
HETATM   14  N11 UNL     1      29.319  39.412   3.558  1.00  0.00    -0.174 N
ATOM     15  H11 UNL     1      28.972  38.453   3.515  1.00  0.00     0.186 HD
HETATM   16  C11 UNL     1      29.963  39.849   4.667  1.00  0.00     0.171 A
ENDROOT
BRANCH   4  17
HETATM   17  C3  UNL     1      31.292  38.670   8.582  1.00  0.00     0.133 C
BRANCH  17  18
HETATM   18  C4  UNL     1      32.020  38.822   9.913  1.00  0.00     0.049 C
HETATM   19  N3  UNL     1      31.588  39.675  10.716  1.00  0.00    -0.399 N
ATOM     20  H32 UNL     1      30.790  40.282  10.528  1.00  0.00     0.156 HD
ATOM     21  H31 UNL     1      32.074  39.776  11.606  1.00  0.00     0.156 HD
BRANCH  18  22
HETATM   22  C5  UNL     1      33.158  37.955  10.182  1.00  0.00     0.188 C
BRANCH  22  23
HETATM   23  O1  UNL     1      33.515  37.222   9.019  1.00  0.00    -0.388 OA
ATOM     24  H1  UNL     1      33.537  36.290   9.204  1.00  0.00     0.210 HD
ENDBRANCH  22  23
BRANCH  22  25
HETATM   25  C6  UNL     1      33.113  37.027  11.318  1.00  0.00     0.189 C
BRANCH  25  26
HETATM   26  N4  UNL     1      34.304  36.275  11.603  1.00  0.00    -0.268 N
HETATM   27  C7  UNL     1      35.283  36.441  12.491  1.00  0.00     0.220 A
HETATM   28  N5  UNL     1      36.232  35.466  12.354  1.00  0.00    -0.279 N
HETATM   29  N6  UNL     1      35.801  34.713  11.366  1.00  0.00    -0.227 N
ATOM     30  H5  UNL     1      37.086  35.349  12.899  1.00  0.00     0.189 HD
HETATM   31  N7  UNL     1      34.664  35.170  10.905  1.00  0.00    -0.225 N
ATOM     32  H6  UNL     1      36.284  33.889  11.009  1.00  0.00     0.210 HD
ATOM     33  H7  UNL     1      34.131  34.758  10.138  1.00  0.00     0.210 HD
ENDBRANCH  25  26
ENDBRANCH  22  25
ENDBRANCH  18  22
ENDBRANCH  17  18
ENDBRANCH   4  17
BRANCH  13  34
HETATM   34  N10 UNL     1      28.516  39.819   1.437  1.00  0.00    -0.234 N
ATOM     35 2H10 UNL     1      27.502  39.908   1.357  1.00  0.00     0.174 HD
ATOM     36 1H10 UNL     1      29.025  39.398   0.660  1.00  0.00     0.174 HD
ENDBRANCH  13  34
TORSDOF 7
ENDMDL