MODEL 2
REMARK VINA RESULT: -6.429465564      1.987      2.266
REMARK  6 active torsions:
REMARK  status: ('A' for Active; 'I' for Inactive)
REMARK    1  A    between atoms: C1_4  and  N2_5
REMARK    2  A    between atoms: C1_4  and  C11_29
REMARK    3  A    between atoms: N2_5  and  C2_7
REMARK    4  A    between atoms: C3_10  and  N4_11
REMARK    5  A    between atoms: C8_19  and  C9_20
REMARK       I    between atoms: C9_20  and  N6_22
REMARK    6  A    between atoms: N6_22  and  N7_24
ROOT
HETATM    1  C2  UNL     1      30.952  40.206   5.965  1.00  0.00     0.149 A
HETATM    2  N3  UNL     1      31.395  41.208   6.741  1.00  0.00    -0.174 N
ATOM      3  H3  UNL     1      31.910  40.977   7.591  1.00  0.00     0.186 HD
HETATM    4  C3  UNL     1      31.186  42.508   6.441  1.00  0.00     0.682 A
HETATM    5  N5  UNL     1      30.502  42.769   5.314  1.00  0.00    -0.184 N
ATOM      6  H5  UNL     1      30.335  43.747   5.072  1.00  0.00     0.184 HD
HETATM    7  C8  UNL     1      30.025  41.830   4.485  1.00  0.00     0.146 A
HETATM    8  C10 UNL     1      30.252  40.511   4.816  1.00  0.00     0.123 A
HETATM    9  N8  UNL     1      29.747  39.510   3.938  1.00  0.00    -0.096 NA
ENDROOT
BRANCH   1  10
HETATM   10  N2  UNL     1      31.171  38.848   6.282  1.00  0.00    -0.323 N
ATOM     11  H2  UNL     1      31.733  38.280   5.647  1.00  0.00     0.169 HD
BRANCH  10  12
HETATM   12  C1  UNL     1      30.636  38.240   7.455  1.00  0.00     0.167 C
HETATM   13  N1  UNL     1      29.545  37.559   7.436  1.00  0.00    -0.381 N
ATOM     14  H12 UNL     1      29.057  37.459   6.546  1.00  0.00     0.157 HD
ATOM     15  H11 UNL     1      29.162  37.124   8.275  1.00  0.00     0.157 HD
BRANCH  12  16
HETATM   16  C11 UNL     1      31.333  38.384   8.728  1.00  0.00     0.298 C
HETATM   17  N9  UNL     1      32.101  37.319   9.291  1.00  0.00    -0.054 NA
HETATM   18  O3  UNL     1      31.246  39.484   9.331  1.00  0.00    -0.268 OA
ENDBRANCH  12  16
ENDBRANCH  10  12
ENDBRANCH   1  10
BRANCH   4  19
HETATM   19  N4  UNL     1      31.673  43.565   7.288  1.00  0.00    -0.213 N
HETATM   20  C4  UNL     1      32.325  43.162   8.519  1.00  0.00     0.167 C
HETATM   21  C5  UNL     1      33.421  44.103   8.930  1.00  0.00     0.188 C
HETATM   22  O1  UNL     1      33.584  45.182   8.098  1.00  0.00    -0.388 OA
HETATM   23  C6  UNL     1      32.418  45.809   7.733  1.00  0.00     0.188 C
HETATM   24  C7  UNL     1      31.507  44.941   6.909  1.00  0.00     0.167 C
ENDBRANCH   4  19
BRANCH   7  25
HETATM   25  C9  UNL     1      29.303  42.181   3.300  1.00  0.00     0.288 C
HETATM   26  O2  UNL     1      28.158  42.683   3.403  1.00  0.00    -0.264 OA
HETATM   27  N6  UNL     1      29.830  41.985   1.983  1.00  0.00    -0.271 N
ATOM     28  H6  UNL     1      30.759  41.578   1.886  1.00  0.00     0.189 HD
BRANCH  27  29
HETATM   29  N7  UNL     1      29.136  42.322   0.842  1.00  0.00    -0.342 N
ATOM     30  H72 UNL     1      28.329  42.937   0.947  1.00  0.00     0.176 HD
ATOM     31  H71 UNL     1      29.396  41.985  -0.085  1.00  0.00     0.176 HD
ENDBRANCH  27  29
ENDBRANCH   7  25
TORSDOF 6
ENDMDL