MODEL 2
REMARK VINA RESULT: -7.937394571      0.818      1.270
REMARK  7 active torsions:
REMARK  status: ('A' for Active; 'I' for Inactive)
REMARK    1  A    between atoms: N1_1  and  C1_4
REMARK    2  A    between atoms: C2_7  and  N3_8
REMARK    3  A    between atoms: N3_8  and  C3_10
REMARK    4  A    between atoms: C3_10  and  O1_11
REMARK    5  A    between atoms: C3_10  and  C4_13
REMARK    6  A    between atoms: C4_13  and  N4_14
REMARK    7  A    between atoms: C5_19  and  C6_20
ROOT
HETATM    1  C1  UNL     1      31.084  39.293  11.279  1.00  0.00     0.145 A
HETATM    2  N2  UNL     1      30.939  39.959  10.108  1.00  0.00    -0.175 N
ATOM      3  H2  UNL     1      30.292  40.745  10.064  1.00  0.00     0.186 HD
HETATM    4  C2  UNL     1      31.613  39.621   9.016  1.00  0.00     0.682 A
HETATM    5  N9  UNL     1      32.475  38.565   9.106  1.00  0.00    -0.184 N
ATOM      6  H9  UNL     1      33.003  38.289   8.278  1.00  0.00     0.184 HD
HETATM    7  C7  UNL     1      32.650  37.879  10.241  1.00  0.00     0.150 A
HETATM    8  C8  UNL     1      33.510  36.814  10.359  1.00  0.00     0.290 A
HETATM    9  O3  UNL     1      34.165  36.466   9.347  1.00  0.00    -0.264 OA
HETATM   10  N10 UNL     1      33.621  36.187  11.533  1.00  0.00    -0.250 N
ATOM     11  H10 UNL     1      34.263  35.398  11.598  1.00  0.00     0.192 HD
HETATM   12  N11 UNL     1      32.947  36.528  12.613  1.00  0.00    -0.239 N
ATOM     13  H11 UNL     1      33.067  36.018  13.489  1.00  0.00     0.208 HD
HETATM   14  N12 UNL     1      32.115  37.546  12.531  1.00  0.00    -0.280 N
ATOM     15  H12 UNL     1      31.585  37.822  13.358  1.00  0.00     0.188 HD
HETATM   16  C9  UNL     1      31.944  38.231  11.386  1.00  0.00     0.126 A
ENDROOT
BRANCH   4  17
HETATM   17  N3  UNL     1      31.533  40.193   7.886  1.00  0.00    -0.198 N
ATOM     18  H3  UNL     1      32.034  41.077   7.797  1.00  0.00     0.180 HD
BRANCH  17  19
HETATM   19  C3  UNL     1      30.834  39.756   6.729  1.00  0.00     0.256 C
BRANCH  19  20
HETATM   20  O1  UNL     1      31.708  39.898   5.630  1.00  0.00    -0.374 OA
ATOM     21  H1  UNL     1      31.241  40.377   4.955  1.00  0.00     0.212 HD
ENDBRANCH  19  20
BRANCH  19  22
HETATM   22  C4  UNL     1      29.684  40.709   6.464  1.00  0.00     0.225 C
BRANCH  22  23
HETATM   23  N4  UNL     1      29.987  41.574   5.329  1.00  0.00    -0.214 N
HETATM   24  N5  UNL     1      30.743  42.657   5.337  1.00  0.00    -0.224 N
HETATM   25  N6  UNL     1      30.767  43.155   4.121  1.00  0.00    -0.264 N
ATOM     26  H5  UNL     1      31.227  43.041   6.149  1.00  0.00     0.210 HD
HETATM   27  C5  UNL     1      30.016  42.371   3.351  1.00  0.00     0.203 A
ATOM     28  H6  UNL     1      31.270  43.991   3.821  1.00  0.00     0.190 HD
HETATM   29  N8  UNL     1      29.535  41.388   4.116  1.00  0.00    -0.262 N
ATOM     30  H8  UNL     1      28.925  40.630   3.809  1.00  0.00     0.190 HD
BRANCH  27  31
HETATM   31  C6  UNL     1      29.763  42.558   1.907  1.00  0.00     0.301 C
HETATM   32  N7  UNL     1      28.996  41.588   1.211  1.00  0.00    -0.054 NA
HETATM   33  O2  UNL     1      30.231  43.570   1.324  1.00  0.00    -0.268 OA
ENDBRANCH  27  31
ENDBRANCH  22  23
ENDBRANCH  19  22
ENDBRANCH  17  19
ENDBRANCH   4  17
BRANCH   1  34
HETATM   34  N1  UNL     1      30.422  39.625  12.344  1.00  0.00    -0.383 N
ATOM     35  H12 UNL     1      29.561  40.154  12.209  1.00  0.00     0.157 HD
ATOM     36  H11 UNL     1      30.742  39.372  13.279  1.00  0.00     0.157 HD
ENDBRANCH   1  34
TORSDOF 7
ENDMDL