MODEL 1
REMARK VINA RESULT: -9.551033076      0.000      0.000
REMARK  14 active torsions:
REMARK  status: ('A' for Active; 'I' for Inactive)
REMARK    1  A    between atoms: C2_2  and  C3_3
REMARK    2  A    between atoms: C3_3  and  C4_4
REMARK    3  A    between atoms: C4_4  and  C5_5
REMARK    4  A    between atoms: C5_5  and  N1_6
REMARK    5  A    between atoms: N2_9  and  C7_10
REMARK    6  A    between atoms: C7_10  and  O2_11
REMARK    7  A    between atoms: C7_10  and  C8_13
REMARK    8  A    between atoms: C9_18  and  C10_19
REMARK    9  A    between atoms: C21_30  and  C22_31
REMARK       I    between atoms: C22_31  and  N5_33
REMARK   10  A    between atoms: N5_33  and  C23_35
REMARK   11  A    between atoms: C23_35  and  C25_38
REMARK   12  A    between atoms: C25_38  and  C26_39
REMARK   13  A    between atoms: N7_41  and  C28_42
REMARK   14  A    between atoms: C28_42  and  C29_43
ROOT
HETATM    1  C23 UNL     1      23.157  26.963  18.902  1.00  0.00     0.197 C
HETATM    2  C24 UNL     1      24.427  27.569  18.507  1.00  0.00     0.085 C
HETATM    3  N6  UNL     1      25.439  28.049  18.212  1.00  0.00    -0.195 NA
ENDROOT
BRANCH   1   4
HETATM    4  N5  UNL     1      22.569  26.204  17.829  1.00  0.00    -0.342 N
HETATM    5  C22 UNL     1      21.298  26.524  17.315  1.00  0.00     0.243 C
HETATM    6  O3  UNL     1      20.711  27.519  17.872  1.00  0.00    -0.271 OA
ATOM      7  H5  UNL     1      23.084  25.417  17.433  1.00  0.00     0.163 HD
BRANCH   5   8
HETATM    8  C21 UNL     1      20.570  25.872  16.237  1.00  0.00     0.199 C
HETATM    9  N1  UNL     1      19.608  26.725  15.543  1.00  0.00    -0.319 N
HETATM   10  C6  UNL     1      18.355  26.068  15.715  1.00  0.00     0.327 C
HETATM   11  O1  UNL     1      17.318  26.125  14.999  1.00  0.00    -0.247 OA
HETATM   12  N2  UNL     1      18.438  25.270  16.892  1.00  0.00    -0.276 N
HETATM   13  C20 UNL     1      19.806  24.689  16.716  1.00  0.00     0.171 C
BRANCH   9  14
HETATM   14  C5  UNL     1      19.855  27.940  14.831  1.00  0.00     0.129 C
BRANCH  14  15
HETATM   15  C4  UNL     1      20.850  27.903  13.740  1.00  0.00     0.020 C
BRANCH  15  16
HETATM   16  C3  UNL     1      22.034  28.781  13.799  1.00  0.00     0.001 C
BRANCH  16  17
HETATM   17  C2  UNL     1      22.582  29.009  15.194  1.00  0.00    -0.004 C
HETATM   18  C1  UNL     1      24.098  29.121  15.166  1.00  0.00     0.005 C
ENDBRANCH  16  17
ENDBRANCH  15  16
ENDBRANCH  14  15
ENDBRANCH   9  14
BRANCH  12  19
HETATM   19  C7  UNL     1      17.577  24.979  17.941  1.00  0.00     0.175 C
BRANCH  19  20
HETATM   20  O2  UNL     1      18.067  25.282  19.117  1.00  0.00    -0.344 OA
ATOM     21  H2  UNL     1      17.400  25.469  19.767  1.00  0.00     0.219 HD
ENDBRANCH  19  20
BRANCH  19  22
HETATM   22  C8  UNL     1      16.255  24.407  17.953  1.00  0.00     0.107 A
HETATM   23  N3  UNL     1      15.094  24.886  18.396  1.00  0.00    -0.296 N
HETATM   24  N4  UNL     1      14.082  24.024  18.168  1.00  0.00    -0.299 N
ATOM     25  H3  UNL     1      14.983  25.792  18.851  1.00  0.00     0.187 HD
HETATM   26  C9  UNL     1      14.568  22.934  17.559  1.00  0.00     0.066 A
ATOM     27  H4  UNL     1      13.105  24.177  18.419  1.00  0.00     0.187 HD
HETATM   28  C18 UNL     1      15.899  23.150  17.418  1.00  0.00    -0.001 A
HETATM   29  C19 UNL     1      16.840  22.216  16.784  1.00  0.00     0.053 C
BRANCH  26  30
HETATM   30  C10 UNL     1      13.761  21.800  17.154  1.00  0.00    -0.006 A
HETATM   31  C11 UNL     1      13.424  21.579  15.820  1.00  0.00     0.020 A
HETATM   32  C12 UNL     1      12.651  20.519  15.421  1.00  0.00    -0.061 A
HETATM   33  C13 UNL     1      12.356  20.382  13.965  1.00  0.00     0.048 C
HETATM   34  C14 UNL     1      12.197  19.648  16.371  1.00  0.00     0.013 A
HETATM   35  C15 UNL     1      12.519  19.850  17.684  1.00  0.00    -0.061 A
HETATM   36  C16 UNL     1      12.013  18.887  18.721  1.00  0.00     0.048 C
HETATM   37  C17 UNL     1      13.283  20.897  18.086  1.00  0.00     0.020 A
ENDBRANCH  26  30
ENDBRANCH  19  22
ENDBRANCH  12  19
ENDBRANCH   5   8
ENDBRANCH   1   4
BRANCH   1  38
HETATM   38  C25 UNL     1      23.395  26.142  20.136  1.00  0.00     0.100 C
BRANCH  38  39
HETATM   39  C26 UNL     1      22.095  25.515  20.537  1.00  0.00     0.047 A
HETATM   40  C27 UNL     1      21.802  24.181  20.695  1.00  0.00     0.138 A
HETATM   41  N7  UNL     1      20.512  24.120  21.048  1.00  0.00    -0.287 N
HETATM   42  N8  UNL     1      20.038  25.351  21.103  1.00  0.00    -0.241 N
HETATM   43  N9  UNL     1      20.977  26.193  20.798  1.00  0.00    -0.289 N
ATOM     44  H8  UNL     1      19.080  25.603  21.347  1.00  0.00     0.208 HD
ATOM     45  H9  UNL     1      20.876  27.207  20.763  1.00  0.00     0.188 HD
BRANCH  41  46
HETATM   46  C28 UNL     1      19.718  22.923  21.339  1.00  0.00     0.149 C
BRANCH  46  47
HETATM   47  C29 UNL     1      19.412  22.275  19.999  1.00  0.00     0.017 C
HETATM   48  C30 UNL     1      18.046  21.627  20.001  1.00  0.00     0.007 C
ENDBRANCH  46  47
ENDBRANCH  41  46
ENDBRANCH  38  39
ENDBRANCH   1  38
TORSDOF 14
ENDMDL