MODEL 5
REMARK VINA RESULT: -8.033058756      2.721      3.092
REMARK  14 active torsions:
REMARK  status: ('A' for Active; 'I' for Inactive)
REMARK    1  A    between atoms: C2_2  and  N1_3
REMARK    2  A    between atoms: N1_3  and  C3_4
REMARK    3  A    between atoms: N1_3  and  C5_6
REMARK    4  A    between atoms: C5_6  and  C6_7
REMARK    5  A    between atoms: C6_7  and  C7_8
REMARK    6  A    between atoms: C7_8  and  C8_9
REMARK    7  A    between atoms: C8_9  and  C9_10
REMARK    8  A    between atoms: C8_9  and  N4_24
REMARK       I    between atoms: C9_10  and  N2_12
REMARK    9  A    between atoms: N2_12  and  C10_14
REMARK   10  A    between atoms: N5_27  and  C19_28
REMARK   11  A    between atoms: C19_28  and  C20_29
REMARK   12  A    between atoms: C22_31  and  O2_32
REMARK   13  A    between atoms: C24_34  and  O3_35
REMARK   14  A    between atoms: C26_37  and  O4_38
ROOT
HETATM    1  C8  UNL     1      17.385  23.528  16.170  1.00  0.00     0.314 C
ENDROOT
BRANCH   1   2
HETATM    2  C7  UNL     1      16.352  24.569  16.575  1.00  0.00     0.047 C
BRANCH   2   3
HETATM    3  C6  UNL     1      15.778  24.325  17.923  1.00  0.00     0.033 C
BRANCH   3   4
HETATM    4  C5  UNL     1      16.899  23.768  18.802  1.00  0.00     0.272 C
BRANCH   4   5
HETATM    5  N1  UNL     1      16.525  22.527  19.405  1.00  0.00     0.087 N
BRANCH   5   6
HETATM    6  C2  UNL     1      15.209  22.075  18.954  1.00  0.00     0.268 C
HETATM    7  C1  UNL     1      15.210  20.570  18.804  1.00  0.00     0.037 C
ENDBRANCH   5   6
BRANCH   5   8
HETATM    8  C3  UNL     1      17.498  21.482  19.310  1.00  0.00     0.268 C
HETATM    9  C4  UNL     1      18.761  21.798  20.085  1.00  0.00     0.037 C
ENDBRANCH   5   8
ENDBRANCH   4   5
ENDBRANCH   3   4
ENDBRANCH   2   3
ENDBRANCH   1   2
BRANCH   1  10
HETATM   10  C9  UNL     1      16.661  22.402  15.545  1.00  0.00     0.257 C
HETATM   11  O1  UNL     1      16.960  21.235  15.865  1.00  0.00    -0.271 OA
HETATM   12  N2  UNL     1      15.656  22.652  14.614  1.00  0.00    -0.305 N
ATOM     13  H2  UNL     1      15.784  23.474  14.024  1.00  0.00     0.171 HD
BRANCH  12  14
HETATM   14  C10 UNL     1      14.577  21.961  14.408  1.00  0.00     0.151 A
HETATM   15  N3  UNL     1      14.363  20.861  13.687  1.00  0.00    -0.339 N
HETATM   16  C11 UNL     1      13.166  20.354  13.644  1.00  0.00     0.024 A
ATOM     17  H3  UNL     1      15.129  20.422  13.176  1.00  0.00     0.168 HD
HETATM   18  C12 UNL     1      12.175  20.983  14.350  1.00  0.00     0.009 A
HETATM   19  C16 UNL     1      12.658  19.119  12.901  1.00  0.00     0.058 C
HETATM   20  S1  UNL     1      13.008  22.288  15.053  1.00  0.00    -0.057 SA
HETATM   21  C13 UNL     1      10.767  20.437  14.338  1.00  0.00     0.048 C
HETATM   22  C14 UNL     1      10.394  20.215  12.910  1.00  0.00     0.006 C
HETATM   23  C15 UNL     1      11.446  19.525  12.101  1.00  0.00     0.006 C
ENDBRANCH  12  14
ENDBRANCH   1  10
BRANCH   1  24
HETATM   24  N4  UNL     1      18.330  24.178  15.258  1.00  0.00     0.105 N
HETATM   25  C17 UNL     1      19.708  23.996  15.665  1.00  0.00     0.303 C
HETATM   26  C18 UNL     1      19.987  24.955  16.789  1.00  0.00     0.303 C
HETATM   27  N5  UNL     1      20.141  26.280  16.203  1.00  0.00     0.096 N
HETATM   28  C29 UNL     1      19.151  26.516  15.178  1.00  0.00     0.303 C
HETATM   29  C30 UNL     1      17.966  25.586  15.290  1.00  0.00     0.303 C
BRANCH  27  30
HETATM   30  C19 UNL     1      20.146  27.302  17.230  1.00  0.00     0.311 C
BRANCH  30  31
HETATM   31  C20 UNL     1      21.448  27.273  17.934  1.00  0.00    -0.025 A
HETATM   32  C21 UNL     1      22.645  27.184  17.254  1.00  0.00     0.048 A
HETATM   33  C22 UNL     1      23.873  27.155  17.880  1.00  0.00     0.104 A
HETATM   34  C24 UNL     1      23.947  27.216  19.262  1.00  0.00     0.135 A
HETATM   35  C26 UNL     1      22.756  27.304  19.951  1.00  0.00     0.104 A
HETATM   36  C28 UNL     1      21.538  27.332  19.315  1.00  0.00     0.048 A
BRANCH  33  37
HETATM   37  O2  UNL     1      25.064  27.066  17.173  1.00  0.00    -0.353 OA
HETATM   38  C23 UNL     1      25.552  28.160  16.409  1.00  0.00     0.210 C
ENDBRANCH  33  37
BRANCH  34  39
HETATM   39  O3  UNL     1      25.166  27.189  19.933  1.00  0.00    -0.351 OA
HETATM   40  C25 UNL     1      25.657  25.880  20.256  1.00  0.00     0.210 C
ENDBRANCH  34  39
BRANCH  35  41
HETATM   41  O4  UNL     1      22.806  27.367  21.343  1.00  0.00    -0.353 OA
HETATM   42  C27 UNL     1      21.643  27.167  22.120  1.00  0.00     0.210 C
ENDBRANCH  35  41
ENDBRANCH  30  31
ENDBRANCH  27  30
ENDBRANCH   1  24
TORSDOF 14
ENDMDL