MODEL 5
REMARK VINA RESULT: -8.828056801      1.716      3.176
REMARK  14 active torsions:
REMARK  status: ('A' for Active; 'I' for Inactive)
REMARK    1  A    between atoms: C2_2  and  C4_4
REMARK    2  A    between atoms: C6_6  and  C7_7
REMARK    3  A    between atoms: C7_7  and  N1_8
REMARK       I    between atoms: N1_8  and  C8_10
REMARK    4  A    between atoms: C8_10  and  C9_12
REMARK    5  A    between atoms: C9_12  and  C10_13
REMARK    6  A    between atoms: C10_13  and  N2_14
REMARK    7  A    between atoms: N3_17  and  C13_18
REMARK    8  A    between atoms: C13_18  and  C14_19
REMARK    9  A    between atoms: N4_21  and  C16_22
REMARK   10  A    between atoms: C16_22  and  C17_23
REMARK   11  A    between atoms: C17_23  and  C18_24
REMARK   12  A    between atoms: C18_24  and  N5_25
REMARK   13  A    between atoms: C26_38  and  C27_39
REMARK   14  A    between atoms: C32_44  and  O2_45
ROOT
HETATM    1  N2  UNL     1      19.457  24.336  20.581  1.00  0.00    -0.386 N
HETATM    2  C11 UNL     1      20.170  24.793  21.626  1.00  0.00     0.152 C
HETATM    3  C12 UNL     1      21.667  24.962  21.210  1.00  0.00     0.292 C
HETATM    4  N3  UNL     1      21.795  25.325  19.811  1.00  0.00     0.097 N
HETATM    5  C24 UNL     1      21.241  24.320  18.955  1.00  0.00     0.292 C
HETATM    6  C25 UNL     1      20.310  23.412  19.756  1.00  0.00     0.152 C
ENDROOT
BRANCH   1   7
HETATM    7  C10 UNL     1      18.140  24.197  20.231  1.00  0.00     0.091 C
BRANCH   7   8
HETATM    8  C9  UNL     1      17.520  22.878  20.120  1.00  0.00     0.091 C
BRANCH   8   9
HETATM    9  C8  UNL     1      16.829  22.376  18.966  1.00  0.00     0.246 C
HETATM   10  N1  UNL     1      16.885  21.026  18.566  1.00  0.00    -0.333 N
ATOM     11  H1  UNL     1      17.304  20.321  19.171  1.00  0.00     0.168 HD
HETATM   12  O1  UNL     1      16.155  23.203  18.255  1.00  0.00    -0.268 OA
BRANCH  10  13
HETATM   13  C7  UNL     1      16.334  20.662  17.280  1.00  0.00     0.103 C
BRANCH  13  14
HETATM   14  C6  UNL     1      14.922  20.358  17.199  1.00  0.00    -0.013 A
HETATM   15  C5  UNL     1      14.345  19.575  18.239  1.00  0.00     0.023 A
HETATM   16  C4  UNL     1      13.001  19.431  18.420  1.00  0.00    -0.021 A
HETATM   17  C32 UNL     1      12.144  20.072  17.541  1.00  0.00     0.072 A
HETATM   18  C31 UNL     1      12.676  20.827  16.532  1.00  0.00     0.046 A
HETATM   19  C26 UNL     1      14.058  20.976  16.352  1.00  0.00    -0.036 A
BRANCH  16  20
HETATM   20  C2  UNL     1      12.425  18.745  19.559  1.00  0.00     0.013 C
HETATM   21  C1  UNL     1      13.100  19.021  20.854  1.00  0.00     0.015 C
HETATM   22  C3  UNL     1      12.192  17.269  19.427  1.00  0.00     0.015 C
ENDBRANCH  16  20
BRANCH  17  23
HETATM   23  O2  UNL     1      10.767  19.988  17.625  1.00  0.00    -0.360 OA
ATOM     24  H2  UNL     1      10.189  20.105  16.879  1.00  0.00     0.217 HD
ENDBRANCH  17  23
BRANCH  19  25
HETATM   25  C27 UNL     1      14.544  21.694  15.172  1.00  0.00    -0.023 C
HETATM   26  C28 UNL     1      15.927  22.215  15.111  1.00  0.00     0.019 C
HETATM   27  C29 UNL     1      14.299  20.773  13.917  1.00  0.00     0.019 C
HETATM   28  C30 UNL     1      13.600  22.865  14.888  1.00  0.00     0.019 C
ENDBRANCH  19  25
ENDBRANCH  13  14
ENDBRANCH  10  13
ENDBRANCH   8   9
ENDBRANCH   7   8
ENDBRANCH   1   7
BRANCH   4  29
HETATM   29  C13 UNL     1      21.371  26.657  19.541  1.00  0.00     0.332 C
BRANCH  29  30
HETATM   30  C14 UNL     1      22.030  27.297  18.404  1.00  0.00     0.072 A
HETATM   31  C15 UNL     1      21.530  27.852  17.276  1.00  0.00     0.140 A
HETATM   32  N4  UNL     1      22.549  28.357  16.506  1.00  0.00    -0.287 N
HETATM   33  N7  UNL     1      23.647  28.112  17.142  1.00  0.00    -0.241 N
HETATM   34  N8  UNL     1      23.395  27.474  18.298  1.00  0.00    -0.287 N
ATOM     35  H7  UNL     1      24.578  28.368  16.812  1.00  0.00     0.208 HD
ATOM     36  H8  UNL     1      24.091  27.172  18.979  1.00  0.00     0.188 HD
BRANCH  32  37
HETATM   37  C16 UNL     1      22.297  29.072  15.259  1.00  0.00     0.151 C
BRANCH  37  38
HETATM   38  C17 UNL     1      21.603  28.168  14.275  1.00  0.00     0.052 C
BRANCH  38  39
HETATM   39  C18 UNL     1      20.128  28.027  14.528  1.00  0.00     0.274 C
BRANCH  39  40
HETATM   40  N5  UNL     1      19.679  26.766  13.923  1.00  0.00     0.091 N
HETATM   41  C19 UNL     1      20.536  25.669  14.372  1.00  0.00     0.302 C
HETATM   42  C20 UNL     1      20.206  25.276  15.774  1.00  0.00     0.302 C
HETATM   43  N6  UNL     1      18.823  24.927  15.968  1.00  0.00     0.087 N
HETATM   44  C21 UNL     1      18.256  25.787  16.978  1.00  0.00     0.310 C
HETATM   45  C22 UNL     1      18.100  25.095  14.705  1.00  0.00     0.302 C
HETATM   46  C23 UNL     1      18.291  26.557  14.331  1.00  0.00     0.302 C
ENDBRANCH  39  40
ENDBRANCH  38  39
ENDBRANCH  37  38
ENDBRANCH  32  37
ENDBRANCH  29  30
ENDBRANCH   4  29
TORSDOF 14
ENDMDL