MODEL 3
REMARK VINA RESULT: -10.155463852      2.114      9.556
REMARK  12 active torsions:
REMARK  status: ('A' for Active; 'I' for Inactive)
REMARK    1  A    between atoms: C6_8  and  C7_9
REMARK    2  A    between atoms: C7_9  and  O2_10
REMARK    3  A    between atoms: O2_10  and  C8_11
REMARK    4  A    between atoms: C9_12  and  N2_13
REMARK    5  A    between atoms: N4_23  and  C17_25
REMARK    6  A    between atoms: C17_25  and  C18_26
REMARK    7  A    between atoms: C17_25  and  C25_33
REMARK    8  A    between atoms: C18_26  and  C19_27
REMARK       I    between atoms: C25_33  and  N5_35
REMARK    9  A    between atoms: N5_35  and  C26_37
REMARK   10  A    between atoms: C26_37  and  C27_38
REMARK   11  A    between atoms: C27_38  and  C28_39
REMARK   12  A    between atoms: C28_39  and  N6_40
ROOT
HETATM    1  N1  UNL     1      14.111  22.903  18.853  1.00  0.00    -0.197 NA
HETATM    2  C1  UNL     1      14.294  21.775  18.959  1.00  0.00     0.066 C
HETATM    3  C2  UNL     1      14.524  20.330  19.117  1.00  0.00     0.122 C
HETATM    4  C3  UNL     1      13.302  19.655  19.708  1.00  0.00     0.187 C
HETATM    5  O1  UNL     1      13.603  18.311  19.896  1.00  0.00    -0.390 OA
HETATM    6  C4  UNL     1      13.790  17.678  18.666  1.00  0.00     0.168 C
HETATM    7  C5  UNL     1      15.000  18.242  17.946  1.00  0.00     0.034 C
HETATM    8  C6  UNL     1      14.802  19.713  17.765  1.00  0.00     0.032 C
ENDROOT
BRANCH   8   9
HETATM    9  C7  UNL     1      15.992  20.369  17.102  1.00  0.00     0.182 C
BRANCH   9  10
HETATM   10  O2  UNL     1      15.581  20.727  15.788  1.00  0.00    -0.345 OA
BRANCH  10  11
HETATM   11  C8  UNL     1      14.777  21.839  15.557  1.00  0.00     0.139 A
HETATM   12  C9  UNL     1      13.525  21.654  15.043  1.00  0.00     0.069 A
HETATM   13  C14 UNL     1      12.764  22.813  14.841  1.00  0.00     0.049 A
HETATM   14  C15 UNL     1      13.249  24.039  15.141  1.00  0.00     0.092 A
HETATM   15  N3  UNL     1      14.484  24.178  15.643  1.00  0.00    -0.350 N
HETATM   16  C16 UNL     1      15.256  23.122  15.858  1.00  0.00     0.138 A
ATOM     17  H3  UNL     1      14.835  25.110  15.862  1.00  0.00     0.166 HD
HETATM   18  N4  UNL     1      16.417  23.184  16.321  1.00  0.00    -0.361 N
ATOM     19  H4  UNL     1      16.845  22.263  16.409  1.00  0.00     0.162 HD
BRANCH  12  20
HETATM   20  N2  UNL     1      12.954  20.429  14.648  1.00  0.00    -0.379 N
HETATM   21  C10 UNL     1      13.295  19.725  13.396  1.00  0.00     0.123 C
HETATM   22  C11 UNL     1      11.921  19.278  12.929  1.00  0.00     0.021 C
HETATM   23  C12 UNL     1      11.007  19.345  14.146  1.00  0.00     0.021 C
HETATM   24  C13 UNL     1      12.006  19.539  15.274  1.00  0.00     0.123 C
ENDBRANCH  12  20
BRANCH  18  25
HETATM   25  C17 UNL     1      17.270  24.204  16.745  1.00  0.00     0.175 C
BRANCH  25  26
HETATM   26  C18 UNL     1      17.226  25.467  15.881  1.00  0.00     0.039 C
BRANCH  26  27
HETATM   27  C19 UNL     1      18.268  25.319  14.795  1.00  0.00    -0.012 C
HETATM   28  C20 UNL     1      19.540  24.842  15.422  1.00  0.00     0.005 C
HETATM   29  C21 UNL     1      20.767  25.273  14.646  1.00  0.00     0.000 C
HETATM   30  C22 UNL     1      20.864  26.755  14.453  1.00  0.00     0.000 C
HETATM   31  C23 UNL     1      19.544  27.395  14.834  1.00  0.00     0.000 C
HETATM   32  C24 UNL     1      18.456  26.644  14.076  1.00  0.00     0.005 C
ENDBRANCH  26  27
ENDBRANCH  25  26
BRANCH  25  33
HETATM   33  C25 UNL     1      17.269  24.532  18.190  1.00  0.00     0.240 C
HETATM   34  O3  UNL     1      16.331  25.267  18.658  1.00  0.00    -0.271 OA
HETATM   35  N5  UNL     1      18.232  24.095  19.125  1.00  0.00    -0.359 N
ATOM     36  H5  UNL     1      19.001  23.508  18.802  1.00  0.00     0.162 HD
BRANCH  35  37
HETATM   37  C26 UNL     1      18.165  24.449  20.520  1.00  0.00     0.124 C
BRANCH  37  38
HETATM   38  C27 UNL     1      19.548  24.558  21.138  1.00  0.00     0.050 C
BRANCH  38  39
HETATM   39  C28 UNL     1      20.621  24.206  20.134  1.00  0.00     0.274 C
BRANCH  39  40
HETATM   40  N6  UNL     1      21.577  25.299  20.000  1.00  0.00     0.092 N
HETATM   41  C29 UNL     1      21.638  25.775  18.647  1.00  0.00     0.298 C
HETATM   42  C30 UNL     1      20.595  26.834  18.344  1.00  0.00     0.198 C
HETATM   43  O4  UNL     1      20.849  27.990  19.089  1.00  0.00    -0.388 OA
HETATM   44  C31 UNL     1      21.616  27.687  20.224  1.00  0.00     0.198 C
HETATM   45  C32 UNL     1      21.144  26.396  20.850  1.00  0.00     0.298 C
ENDBRANCH  39  40
ENDBRANCH  38  39
ENDBRANCH  37  38
ENDBRANCH  35  37
ENDBRANCH  25  33
ENDBRANCH  18  25
ENDBRANCH  10  11
ENDBRANCH   9  10
ENDBRANCH   8   9
TORSDOF 12
ENDMDL