MODEL 2
REMARK VINA RESULT: -7.672810444      3.204      9.355
REMARK  14 active torsions:
REMARK  status: ('A' for Active; 'I' for Inactive)
REMARK    1  A    between atoms: C2_2  and  C3_3
REMARK    2  A    between atoms: C3_3  and  C5_5
REMARK    3  A    between atoms: C7_10  and  C8_11
REMARK    4  A    between atoms: C8_11  and  C9_12
REMARK    5  A    between atoms: C10_13  and  C11_14
REMARK    6  A    between atoms: C11_14  and  C12_15
REMARK    7  A    between atoms: C12_15  and  O2_17
REMARK    8  A    between atoms: O2_17  and  C14_18
REMARK    9  A    between atoms: C14_18  and  C15_20
REMARK   10  A    between atoms: C15_20  and  C16_21
REMARK   11  A    between atoms: C16_21  and  S1_22
REMARK   12  A    between atoms: C19_28  and  C20_29
REMARK   13  A    between atoms: C23_32  and  C24_33
REMARK   14  A    between atoms: C28_38  and  O7_39
ROOT
HETATM    1  C24 UNL     1      27.986  28.040  20.866  1.00  0.00     0.094 C
HETATM    2  C25 UNL     1      27.912  29.397  21.423  1.00  0.00     0.087 C
HETATM    3  N2  UNL     1      27.847  30.466  21.860  1.00  0.00    -0.192 NA
ENDROOT
BRANCH   1   4
HETATM    4  C23 UNL     1      27.025  27.207  20.989  1.00  0.00     0.015 C
HETATM    5  C22 UNL     1      26.412  26.403  19.963  1.00  0.00    -0.059 C
HETATM    6  C19 UNL     1      25.988  25.020  20.432  1.00  0.00     0.114 C
HETATM    7  C26 UNL     1      26.886  26.443  18.568  1.00  0.00     0.040 C
HETATM    8  C18 UNL     1      25.040  24.454  19.403  1.00  0.00     0.268 C
HETATM    9  O5  UNL     1      24.141  25.252  18.812  1.00  0.00    -0.306 OA
HETATM   10  O6  UNL     1      25.213  23.199  19.198  1.00  0.00    -0.264 OA
HETATM   11  C7  UNL     1      22.883  25.743  19.192  1.00  0.00     0.227 C
HETATM   12  C6  UNL     1      22.577  27.057  18.582  1.00  0.00     0.247 C
HETATM   13  N1  UNL     1      23.447  27.728  17.665  1.00  0.00    -0.353 N
HETATM   14  O1  UNL     1      21.491  27.630  18.881  1.00  0.00    -0.271 OA
HETATM   15  C5  UNL     1      24.057  27.172  16.490  1.00  0.00     0.098 C
ATOM     16  H1  UNL     1      23.656  28.706  17.868  1.00  0.00     0.163 HD
HETATM   17  C29 UNL     1      25.529  27.016  16.513  1.00  0.00     0.034 C
HETATM   18  C28 UNL     1      26.237  27.557  17.725  1.00  0.00     0.131 C
HETATM   19  C30 UNL     1      26.229  27.432  15.214  1.00  0.00     0.015 C
HETATM   20  C27 UNL     1      28.339  26.340  18.294  1.00  0.00     0.017 C
BRANCH   6  21
HETATM   21  C20 UNL     1      27.093  24.086  20.748  1.00  0.00     0.014 C
HETATM   22  C21 UNL     1      27.148  23.548  22.135  1.00  0.00     0.006 C
ENDBRANCH   6  21
BRANCH  11  23
HETATM   23  C8  UNL     1      22.597  25.599  20.641  1.00  0.00     0.069 C
BRANCH  23  24
HETATM   24  C9  UNL     1      21.537  24.601  20.890  1.00  0.00    -0.028 C
HETATM   25  C10 UNL     1      21.006  23.883  19.864  1.00  0.00    -0.028 C
BRANCH  25  26
HETATM   26  C11 UNL     1      19.949  22.877  20.045  1.00  0.00     0.059 C
BRANCH  26  27
HETATM   27  C12 UNL     1      18.765  23.127  19.126  1.00  0.00     0.131 C
HETATM   28  C13 UNL     1      17.456  22.843  19.836  1.00  0.00     0.040 C
BRANCH  27  29
HETATM   29  O2  UNL     1      18.802  24.411  18.562  1.00  0.00    -0.316 OA
BRANCH  29  30
HETATM   30  C14 UNL     1      18.239  24.744  17.336  1.00  0.00     0.260 C
HETATM   31  O3  UNL     1      17.401  25.682  17.333  1.00  0.00    -0.265 OA
BRANCH  30  32
HETATM   32  C15 UNL     1      18.621  24.011  16.082  1.00  0.00     0.123 C
BRANCH  32  33
HETATM   33  C16 UNL     1      17.355  23.575  15.383  1.00  0.00     0.118 C
BRANCH  33  34
HETATM   34  S1  UNL     1      16.640  22.163  16.151  1.00  0.00     0.011 S
HETATM   35  C17 UNL     1      15.374  21.490  15.113  1.00  0.00     0.127 C
HETATM   36  O4  UNL     1      17.812  20.993  16.425  1.00  0.00    -0.258 OA
ENDBRANCH  33  34
ENDBRANCH  32  33
ENDBRANCH  30  32
ENDBRANCH  29  30
ENDBRANCH  27  29
ENDBRANCH  26  27
ENDBRANCH  25  26
ENDBRANCH  23  24
ENDBRANCH  11  23
BRANCH  15  37
HETATM   37  C3  UNL     1      23.557  28.036  15.338  1.00  0.00     0.026 C
HETATM   38  C4  UNL     1      23.421  29.480  15.773  1.00  0.00     0.016 C
BRANCH  37  39
HETATM   39  C2  UNL     1      22.191  27.616  14.919  1.00  0.00    -0.031 C
HETATM   40  C1  UNL     1      21.444  28.339  14.111  1.00  0.00     0.007 C
ENDBRANCH  37  39
ENDBRANCH  15  37
BRANCH  18  41
HETATM   41  O7  UNL     1      27.142  28.566  17.412  1.00  0.00    -0.394 OA
ATOM     42  H7  UNL     1      27.436  29.032  18.186  1.00  0.00     0.210 HD
ENDBRANCH  18  41
ENDBRANCH   1   4
TORSDOF 14
ENDMDL