MODEL 1
REMARK VINA RESULT: -9.352743953      0.000      0.000
REMARK  13 active torsions:
REMARK  status: ('A' for Active; 'I' for Inactive)
REMARK    1  A    between atoms: C2_2  and  C3_3
REMARK    2  A    between atoms: C3_3  and  C4_4
REMARK    3  A    between atoms: C4_4  and  C5_5
REMARK    4  A    between atoms: C5_5  and  C6_6
REMARK    5  A    between atoms: C6_6  and  O1_7
REMARK    6  A    between atoms: O1_7  and  C7_8
REMARK       I    between atoms: C7_8  and  N1_10
REMARK    7  A    between atoms: N2_13  and  C10_14
REMARK    8  A    between atoms: C10_14  and  C11_15
REMARK    9  A    between atoms: C11_15  and  C12_16
REMARK   10  A    between atoms: C12_16  and  N3_17
REMARK       I    between atoms: N3_17  and  C13_19
REMARK   11  A    between atoms: C13_19  and  C14_21
REMARK   12  A    between atoms: C14_21  and  N4_22
REMARK   13  A    between atoms: C19_27  and  C20_28
ROOT
HETATM    1  N3  UNL     1      14.851  19.964  18.775  1.00  0.00    -0.359 N
ATOM      2  H3  UNL     1      14.215  20.161  19.548  1.00  0.00     0.162 HD
HETATM    3  C13 UNL     1      15.707  21.002  18.346  1.00  0.00     0.235 C
HETATM    4  O3  UNL     1      16.512  20.818  17.406  1.00  0.00    -0.272 OA
ENDROOT
BRANCH   1   5
HETATM    5  C12 UNL     1      14.812  18.643  18.194  1.00  0.00     0.128 C
BRANCH   5   6
HETATM    6  C11 UNL     1      13.751  17.750  18.751  1.00  0.00     0.064 C
BRANCH   6   7
HETATM    7  C10 UNL     1      12.617  17.459  17.819  1.00  0.00     0.060 C
BRANCH   7   8
HETATM    8  N2  UNL     1      11.387  18.015  18.216  1.00  0.00    -0.391 N
HETATM    9  C9  UNL     1      11.188  19.406  18.067  1.00  0.00     0.143 C
HETATM   10  C8  UNL     1      10.193  19.740  16.963  1.00  0.00     0.168 C
HETATM   11  N1  UNL     1      10.578  19.041  15.739  1.00  0.00    -0.255 N
HETATM   12  C7  UNL     1      10.883  19.882  14.672  1.00  0.00     0.377 C
HETATM   13  N6  UNL     1      10.658  17.677  15.559  1.00  0.00    -0.227 NA
HETATM   14  O2  UNL     1      10.757  21.144  14.817  1.00  0.00    -0.237 OA
HETATM   15  C30 UNL     1       9.879  16.954  16.560  1.00  0.00     0.133 C
HETATM   16  C31 UNL     1      10.099  17.279  14.284  1.00  0.00     0.136 C
HETATM   17  C29 UNL     1      10.244  17.206  17.966  1.00  0.00     0.138 C
BRANCH  12  18
HETATM   18  O1  UNL     1      11.318  19.403  13.472  1.00  0.00    -0.303 OA
BRANCH  18  19
HETATM   19  C6  UNL     1      12.471  19.784  12.818  1.00  0.00     0.180 C
BRANCH  19  20
HETATM   20  C5  UNL     1      13.610  19.958  13.759  1.00  0.00     0.027 C
BRANCH  20  21
HETATM   21  C4  UNL     1      14.621  20.943  13.175  1.00  0.00     0.002 C
BRANCH  21  22
HETATM   22  C3  UNL     1      14.997  22.004  14.157  1.00  0.00    -0.000 C
BRANCH  22  23
HETATM   23  C2  UNL     1      14.002  22.219  15.251  1.00  0.00    -0.005 C
HETATM   24  C1  UNL     1      13.242  23.509  14.928  1.00  0.00     0.005 C
ENDBRANCH  22  23
ENDBRANCH  21  22
ENDBRANCH  20  21
ENDBRANCH  19  20
ENDBRANCH  18  19
ENDBRANCH  12  18
ENDBRANCH   7   8
ENDBRANCH   6   7
ENDBRANCH   5   6
ENDBRANCH   1   5
BRANCH   3  25
HETATM   25  C14 UNL     1      15.671  22.332  18.999  1.00  0.00     0.235 C
BRANCH  25  26
HETATM   26  N4  UNL     1      16.849  23.114  18.686  1.00  0.00    -0.307 N
HETATM   27  C15 UNL     1      18.002  22.892  19.364  1.00  0.00     0.022 A
HETATM   28  C16 UNL     1      19.165  23.569  19.127  1.00  0.00    -0.022 A
HETATM   29  C28 UNL     1      18.271  21.917  20.482  1.00  0.00     0.058 C
HETATM   30  C17 UNL     1      19.190  24.542  18.146  1.00  0.00     0.007 A
HETATM   31  C26 UNL     1      20.264  23.110  20.019  1.00  0.00     0.042 C
HETATM   32  C18 UNL     1      20.157  25.397  17.646  1.00  0.00     0.046 A
HETATM   33  C24 UNL     1      18.036  24.793  17.439  1.00  0.00     0.112 A
HETATM   34  C19 UNL     1      19.588  26.155  16.651  1.00  0.00     0.068 A
HETATM   35  N5  UNL     1      18.308  25.771  16.545  1.00  0.00    -0.349 N
ATOM     36  H5  UNL     1      17.635  26.161  15.885  1.00  0.00     0.166 HD
HETATM   37  C25 UNL     1      16.896  24.061  17.738  1.00  0.00     0.276 A
HETATM   38  O5  UNL     1      15.846  24.291  17.091  1.00  0.00    -0.265 OA
HETATM   39  C27 UNL     1      19.470  22.531  21.179  1.00  0.00     0.011 C
BRANCH  34  40
HETATM   40  C20 UNL     1      20.269  27.190  15.853  1.00  0.00     0.101 A
HETATM   41  C21 UNL     1      20.114  27.356  14.481  1.00  0.00     0.041 A
HETATM   42  C22 UNL     1      20.904  28.418  14.097  1.00  0.00     0.027 A
HETATM   43  C23 UNL     1      21.505  28.851  15.256  1.00  0.00     0.142 A
HETATM   44  O4  UNL     1      21.105  28.106  16.252  1.00  0.00    -0.321 OA
ENDBRANCH  34  40
ENDBRANCH  25  26
ENDBRANCH   3  25
TORSDOF 13
ENDMDL