MODEL 4
REMARK VINA RESULT: -9.018213622      2.056      3.851
REMARK  13 active torsions:
REMARK  status: ('A' for Active; 'I' for Inactive)
REMARK    1  A    between atoms: C2_2  and  O1_3
REMARK    2  A    between atoms: O1_3  and  C3_4
REMARK       I    between atoms: C3_4  and  N1_6
REMARK    3  A    between atoms: C6_9  and  N2_10
REMARK       I    between atoms: N2_10  and  C7_11
REMARK    4  A    between atoms: C7_11  and  C8_13
REMARK    5  A    between atoms: C8_13  and  C9_15
REMARK    6  A    between atoms: C9_15  and  C10_16
REMARK    7  A    between atoms: C9_15  and  N3_18
REMARK       I    between atoms: N3_18  and  C12_20
REMARK    8  A    between atoms: C12_20  and  C13_22
REMARK    9  A    between atoms: C13_22  and  C14_23
REMARK   10  A    between atoms: C14_23  and  C15_24
REMARK   11  A    between atoms: C15_24  and  C16_25
REMARK   12  A    between atoms: C16_25  and  N4_26
REMARK   13  A    between atoms: C17_31  and  C18_32
ROOT
HETATM    1  N3  UNL     1      12.200  18.642  16.584  1.00  0.00    -0.349 N
ATOM      2  H3  UNL     1      12.621  17.926  15.993  1.00  0.00     0.163 HD
HETATM    3  C12 UNL     1      12.942  19.291  17.555  1.00  0.00     0.218 C
HETATM    4  O5  UNL     1      12.334  20.147  18.311  1.00  0.00    -0.274 OA
ENDROOT
BRANCH   3   5
HETATM    5  C13 UNL     1      14.350  19.113  17.801  1.00  0.00     0.103 C
BRANCH   5   6
HETATM    6  C14 UNL     1      14.932  19.824  18.979  1.00  0.00     0.014 C
BRANCH   6   7
HETATM    7  C15 UNL     1      15.898  20.889  18.476  1.00  0.00     0.047 C
BRANCH   7   8
HETATM    8  C16 UNL     1      16.016  22.031  19.357  1.00  0.00     0.090 C
BRANCH   8   9
HETATM    9  N4  UNL     1      17.037  23.007  19.315  1.00  0.00    -0.260 N
HETATM   10  N5  UNL     1      16.735  24.311  18.932  1.00  0.00    -0.236 N
HETATM   11  N6  UNL     1      17.787  25.041  19.083  1.00  0.00    -0.287 N
ATOM     12  H5  UNL     1      15.830  24.635  18.588  1.00  0.00     0.209 HD
HETATM   13  C17 UNL     1      18.851  24.299  19.573  1.00  0.00     0.060 A
ATOM     14  H6  UNL     1      17.831  26.038  18.870  1.00  0.00     0.188 HD
HETATM   15  C28 UNL     1      18.293  23.051  19.682  1.00  0.00     0.055 A
HETATM   16  C29 UNL     1      19.116  21.883  20.141  1.00  0.00     0.072 C
BRANCH  13  17
HETATM   17  C18 UNL     1      20.146  24.921  19.895  1.00  0.00     0.007 C
HETATM   18  C19 UNL     1      20.243  26.111  18.908  1.00  0.00     0.020 C
HETATM   19  C20 UNL     1      21.426  26.965  19.084  1.00  0.00    -0.013 C
HETATM   20  C21 UNL     1      22.664  26.107  18.869  1.00  0.00     0.009 C
HETATM   21  C25 UNL     1      21.367  27.526  20.494  1.00  0.00     0.009 C
HETATM   22  C22 UNL     1      22.587  24.909  19.797  1.00  0.00    -0.013 C
HETATM   23  C23 UNL     1      22.680  25.489  21.199  1.00  0.00     0.009 C
HETATM   24  C27 UNL     1      21.353  24.074  19.589  1.00  0.00     0.020 C
HETATM   25  C24 UNL     1      21.459  26.371  21.421  1.00  0.00    -0.013 C
HETATM   26  C26 UNL     1      20.264  25.415  21.310  1.00  0.00     0.020 C
ENDBRANCH  13  17
ENDBRANCH   8   9
ENDBRANCH   7   8
ENDBRANCH   6   7
ENDBRANCH   5   6
ENDBRANCH   3   5
BRANCH   1  27
HETATM   27  C9  UNL     1      10.740  19.027  16.423  1.00  0.00     0.165 C
BRANCH  27  28
HETATM   28  C8  UNL     1      10.633  19.697  15.150  1.00  0.00     0.253 C
HETATM   29  O4  UNL     1       9.535  20.248  14.767  1.00  0.00    -0.284 OA
BRANCH  28  30
HETATM   30  C7  UNL     1      11.759  19.817  14.138  1.00  0.00     0.359 C
HETATM   31  N2  UNL     1      12.662  20.806  14.348  1.00  0.00    -0.403 NA
HETATM   32  O3  UNL     1      11.696  18.973  13.228  1.00  0.00    -0.248 OA
BRANCH  31  33
HETATM   33  C6  UNL     1      13.587  21.816  14.559  1.00  0.00     0.170 C
HETATM   34  C5  UNL     1      14.971  21.280  14.904  1.00  0.00     0.059 C
HETATM   35  C4  UNL     1      15.927  22.396  14.577  1.00  0.00     0.131 C
HETATM   36  N1  UNL     1      15.593  23.477  15.523  1.00  0.00    -0.328 N
HETATM   37  C3  UNL     1      16.478  24.528  15.663  1.00  0.00     0.362 C
HETATM   38  C31 UNL     1      14.360  23.445  16.289  1.00  0.00     0.131 C
HETATM   39  O2  UNL     1      16.536  25.519  16.351  1.00  0.00    -0.238 OA
HETATM   40  C30 UNL     1      13.180  22.907  15.496  1.00  0.00     0.059 C
BRANCH  37  41
HETATM   41  O1  UNL     1      17.659  24.447  14.753  1.00  0.00    -0.304 OA
BRANCH  41  42
HETATM   42  C2  UNL     1      18.844  25.032  15.283  1.00  0.00     0.176 C
HETATM   43  C1  UNL     1      19.554  23.897  16.016  1.00  0.00     0.034 C
ENDBRANCH  41  42
ENDBRANCH  37  41
ENDBRANCH  31  33
ENDBRANCH  28  30
ENDBRANCH  27  28
BRANCH  27  44
HETATM   44  C10 UNL     1      10.060  17.635  16.441  1.00  0.00     0.029 C
HETATM   45  C11 UNL     1      10.001  17.132  17.841  1.00  0.00     0.007 C
ENDBRANCH  27  44
ENDBRANCH   1  27
TORSDOF 13
ENDMDL