MODEL 4
REMARK VINA RESULT: -8.657067154      2.999      9.700
REMARK  17 active torsions:
REMARK  status: ('A' for Active; 'I' for Inactive)
REMARK    1  A    between atoms: C2_2  and  C4_4
REMARK    2  A    between atoms: C4_4  and  N1_7
REMARK    3  A    between atoms: N1_7  and  C8_9
REMARK    4  A    between atoms: C8_9  and  O1_10
REMARK    5  A    between atoms: C9_12  and  C10_13
REMARK    6  A    between atoms: C10_13  and  C11_14
REMARK    7  A    between atoms: C11_14  and  O2_15
REMARK    8  A    between atoms: C11_14  and  N2_17
REMARK    9  A    between atoms: N2_17  and  C12_19
REMARK   10  A    between atoms: C15_22  and  C16_23
REMARK   11  A    between atoms: C16_23  and  C17_24
REMARK   12  A    between atoms: C17_24  and  C18_25
REMARK   13  A    between atoms: C18_25  and  C19_26
REMARK   14  A    between atoms: C19_26  and  C20_27
REMARK       I    between atoms: N5_33  and  C22_35
REMARK   15  A    between atoms: C22_35  and  C23_37
REMARK   16  A    between atoms: C23_37  and  C24_38
REMARK   17  A    between atoms: C24_38  and  C25_39
ROOT
HETATM    1  C12 UNL     1      18.306  23.116  20.100  1.00  0.00     0.121 A
HETATM    2  C13 UNL     1      18.295  21.859  19.513  1.00  0.00     0.052 A
HETATM    3  C14 UNL     1      17.321  21.529  18.622  1.00  0.00     0.030 A
HETATM    4  C15 UNL     1      16.346  22.445  18.305  1.00  0.00     0.026 A
HETATM    5  N7  UNL     1      16.430  23.643  18.916  1.00  0.00    -0.303 N
ATOM      6  H7  UNL     1      15.718  24.338  18.692  1.00  0.00     0.186 HD
HETATM    7  N8  UNL     1      17.362  23.981  19.779  1.00  0.00    -0.285 N
ATOM      8  H8  UNL     1      17.357  24.910  20.201  1.00  0.00     0.188 HD
ENDROOT
BRANCH   4   9
HETATM    9  C16 UNL     1      15.236  22.107  17.354  1.00  0.00     0.058 C
BRANCH   9  10
HETATM   10  C17 UNL     1      15.795  21.657  16.032  1.00  0.00     0.006 C
BRANCH  10  11
HETATM   11  C18 UNL     1      15.369  22.429  14.839  1.00  0.00     0.007 C
BRANCH  11  12
HETATM   12  C19 UNL     1      15.043  21.677  13.609  1.00  0.00     0.066 C
BRANCH  12  13
HETATM   13  C20 UNL     1      13.861  20.762  13.779  1.00  0.00     0.069 A
HETATM   14  N3  UNL     1      13.622  19.592  13.223  1.00  0.00    -0.296 N
HETATM   15  N4  UNL     1      12.563  18.951  13.539  1.00  0.00    -0.279 N
ATOM     16  H3  UNL     1      14.277  19.201  12.546  1.00  0.00     0.187 HD
HETATM   17  C21 UNL     1      11.725  19.480  14.422  1.00  0.00     0.167 A
ATOM     18  H4  UNL     1      12.364  18.043  13.118  1.00  0.00     0.189 HD
HETATM   19  N5  UNL     1      10.601  18.998  14.877  1.00  0.00    -0.306 N
HETATM   20  S2  UNL     1      12.510  20.957  14.802  1.00  0.00    -0.038 SA
HETATM   21  C22 UNL     1       9.882  19.762  15.826  1.00  0.00     0.224 C
ATOM     22  H5  UNL     1      10.250  18.095  14.558  1.00  0.00     0.171 HD
HETATM   23  O3  UNL     1       9.052  20.599  15.464  1.00  0.00    -0.273 OA
BRANCH  21  24
HETATM   24  C23 UNL     1      10.173  19.518  17.251  1.00  0.00     0.109 C
BRANCH  24  25
HETATM   25  C24 UNL     1      10.424  18.012  17.419  1.00  0.00     0.067 C
BRANCH  25  26
HETATM   26  C25 UNL     1      11.750  17.961  18.179  1.00  0.00     0.016 A
HETATM   27  C26 UNL     1      11.828  18.606  19.398  1.00  0.00     0.076 A
HETATM   28  S1  UNL     1      13.465  18.287  19.824  1.00  0.00    -0.095 SA
HETATM   29  C27 UNL     1      13.920  17.366  18.427  1.00  0.00     0.138 A
HETATM   30  N6  UNL     1      12.797  17.367  17.738  1.00  0.00    -0.363 N
ATOM     31  H6  UNL     1      12.760  16.888  16.839  1.00  0.00     0.165 HD
ENDBRANCH  25  26
ENDBRANCH  24  25
ENDBRANCH  21  24
ENDBRANCH  12  13
ENDBRANCH  11  12
ENDBRANCH  10  11
ENDBRANCH   9  10
ENDBRANCH   4   9
BRANCH   1  32
HETATM   32  N2  UNL     1      19.202  23.424  20.929  1.00  0.00    -0.326 N
ATOM     33  H2  UNL     1      19.005  23.302  21.923  1.00  0.00     0.169 HD
BRANCH  32  34
HETATM   34  C11 UNL     1      20.451  23.922  20.559  1.00  0.00     0.120 C
BRANCH  34  35
HETATM   35  C10 UNL     1      21.010  24.596  19.427  1.00  0.00     0.115 C
BRANCH  35  36
HETATM   36  C9  UNL     1      20.717  26.036  19.253  1.00  0.00     0.037 C
HETATM   37  C8  UNL     1      20.705  26.732  18.004  1.00  0.00     0.134 C
BRANCH  37  38
HETATM   38  N1  UNL     1      20.927  26.443  16.655  1.00  0.00    -0.358 N
HETATM   39  C7  UNL     1      22.178  26.748  16.010  1.00  0.00     0.152 C
BRANCH  38  40
HETATM   40  C4  UNL     1      19.884  25.917  15.767  1.00  0.00     0.029 C
HETATM   41  C5  UNL     1      20.602  24.942  14.812  1.00  0.00     0.038 C
HETATM   42  C6  UNL     1      19.338  27.005  14.847  1.00  0.00     0.038 C
BRANCH  40  43
HETATM   43  C2  UNL     1      18.804  25.166  16.438  1.00  0.00     0.005 C
HETATM   44  C1  UNL     1      17.407  25.498  15.945  1.00  0.00     0.012 C
HETATM   45  C3  UNL     1      18.984  23.679  16.065  1.00  0.00     0.012 C
ENDBRANCH  40  43
ENDBRANCH  38  40
ENDBRANCH  37  38
BRANCH  37  46
HETATM   46  O1  UNL     1      20.377  28.014  18.177  1.00  0.00    -0.346 OA
ATOM     47  H1  UNL     1      19.560  28.100  18.655  1.00  0.00     0.219 HD
ENDBRANCH  37  46
ENDBRANCH  35  36
ENDBRANCH  34  35
BRANCH  34  48
HETATM   48  O2  UNL     1      21.332  23.690  21.550  1.00  0.00    -0.349 OA
ATOM     49  H2  UNL     1      21.601  22.783  21.625  1.00  0.00     0.219 HD
ENDBRANCH  34  48
ENDBRANCH  32  34
ENDBRANCH   1  32
TORSDOF 17
ENDMDL