MODEL 3
REMARK VINA RESULT: -9.687330775      0.801      1.004
REMARK  12 active torsions:
REMARK  status: ('A' for Active; 'I' for Inactive)
REMARK       I    between atoms: N2_7  and  C5_8
REMARK    1  A    between atoms: C5_8  and  C6_10
REMARK    2  A    between atoms: C10_16  and  N4_17
REMARK    3  A    between atoms: N5_21  and  C14_22
REMARK    4  A    between atoms: C14_22  and  C15_23
REMARK    5  A    between atoms: C15_23  and  C16_24
REMARK    6  A    between atoms: C16_24  and  C17_25
REMARK    7  A    between atoms: C17_25  and  C18_26
REMARK    8  A    between atoms: C18_26  and  C19_27
REMARK    9  A    between atoms: C19_27  and  C20_28
REMARK   10  A    between atoms: C20_28  and  C21_29
REMARK   11  A    between atoms: C21_29  and  N6_30
REMARK   12  A    between atoms: N6_30  and  C23_32
ROOT
HETATM    1  N4  UNL     1      18.728  24.332  17.792  1.00  0.00    -0.368 N
HETATM    2  C11 UNL     1      17.581  25.212  17.508  1.00  0.00     0.205 C
HETATM    3  C12 UNL     1      17.734  25.776  16.200  1.00  0.00    -0.134 C
HETATM    4  C13 UNL     1      18.200  26.109  14.916  1.00  0.00     0.353 C
HETATM    5  N5  UNL     1      19.500  25.431  14.642  1.00  0.00     0.100 N
HETATM    6  C26 UNL     1      19.751  24.290  15.483  1.00  0.00     0.293 C
HETATM    7  C27 UNL     1      19.937  24.377  16.923  1.00  0.00     0.154 C
ENDROOT
BRANCH   1   8
HETATM    8  C10 UNL     1      18.762  23.449  18.851  1.00  0.00     0.049 A
HETATM    9  C6  UNL     1      18.219  22.207  18.858  1.00  0.00     0.074 A
HETATM   10  C7  UNL     1      18.327  21.362  19.989  1.00  0.00     0.106 A
HETATM   11  N3  UNL     1      18.978  21.813  21.066  1.00  0.00    -0.374 N
HETATM   12  C8  UNL     1      19.539  23.030  21.131  1.00  0.00     0.090 A
ATOM     13  H3  UNL     1      19.053  21.202  21.879  1.00  0.00     0.164 HD
HETATM   14  C9  UNL     1      19.430  23.838  20.033  1.00  0.00     0.047 A
BRANCH   9  15
HETATM   15  C5  UNL     1      17.485  21.704  17.704  1.00  0.00     0.257 C
HETATM   16  N2  UNL     1      16.080  21.786  17.558  1.00  0.00    -0.348 N
HETATM   17  C4  UNL     1      15.483  21.261  16.350  1.00  0.00     0.131 C
HETATM   18  C28 UNL     1      15.221  22.338  18.566  1.00  0.00     0.131 C
HETATM   19  C3  UNL     1      14.035  20.929  16.525  1.00  0.00     0.083 C
HETATM   20  C2  UNL     1      13.724  20.409  17.915  1.00  0.00     0.168 C
HETATM   21  O1  UNL     1      12.362  20.189  17.970  1.00  0.00    -0.241 OA
HETATM   22  C29 UNL     1      14.062  21.472  18.921  1.00  0.00     0.083 C
HETATM   23  N9  UNL     1      14.364  19.156  18.184  1.00  0.00    -0.307 N
HETATM   24  N1  UNL     1      12.133  18.899  18.249  1.00  0.00    -0.209 N
HETATM   25  C1  UNL     1      10.861  18.284  18.577  1.00  0.00     0.191 C
HETATM   26  C30 UNL     1      13.354  18.159  18.179  1.00  0.00     0.344 C
HETATM   27  O3  UNL     1      13.521  16.918  18.125  1.00  0.00    -0.245 OA
ATOM     28  H9  UNL     1      15.361  19.008  18.348  1.00  0.00     0.167 HD
HETATM   29  O2  UNL     1      18.186  21.164  16.802  1.00  0.00    -0.267 OA
ENDBRANCH   9  15
ENDBRANCH   1   8
BRANCH   5  30
HETATM   30  C14 UNL     1      20.584  26.358  14.652  1.00  0.00     0.273 C
BRANCH  30  31
HETATM   31  C15 UNL     1      20.222  27.741  14.193  1.00  0.00     0.030 C
BRANCH  31  32
HETATM   32  C16 UNL     1      21.457  28.551  13.844  1.00  0.00     0.002 C
BRANCH  32  33
HETATM   33  C17 UNL     1      22.193  28.982  15.061  1.00  0.00     0.000 C
BRANCH  33  34
HETATM   34  C18 UNL     1      23.663  28.755  15.063  1.00  0.00     0.000 C
BRANCH  34  35
HETATM   35  C19 UNL     1      24.060  27.553  15.864  1.00  0.00     0.002 C
BRANCH  35  36
HETATM   36  C20 UNL     1      23.842  27.758  17.343  1.00  0.00     0.020 C
BRANCH  36  37
HETATM   37  C21 UNL     1      23.158  26.622  18.032  1.00  0.00     0.124 C
BRANCH  37  38
HETATM   38  N6  UNL     1      22.068  27.101  18.838  1.00  0.00    -0.371 N
HETATM   39  C22 UNL     1      20.875  27.610  18.220  1.00  0.00     0.151 C
BRANCH  38  40
HETATM   40  C23 UNL     1      22.175  27.070  20.248  1.00  0.00     0.118 A
HETATM   41  C24 UNL     1      21.228  27.451  21.179  1.00  0.00     0.068 A
HETATM   42  C25 UNL     1      21.764  27.248  22.419  1.00  0.00     0.111 A
HETATM   43  N7  UNL     1      23.012  26.752  22.247  1.00  0.00    -0.310 N
HETATM   44  N8  UNL     1      23.244  26.651  20.964  1.00  0.00    -0.286 N
ATOM     45  H7  UNL     1      23.661  26.499  22.992  1.00  0.00     0.186 HD
ATOM     46  H8  UNL     1      24.113  26.304  20.558  1.00  0.00     0.188 HD
ENDBRANCH  38  40
ENDBRANCH  37  38
ENDBRANCH  36  37
ENDBRANCH  35  36
ENDBRANCH  34  35
ENDBRANCH  33  34
ENDBRANCH  32  33
ENDBRANCH  31  32
ENDBRANCH  30  31
ENDBRANCH   5  30
TORSDOF 12
ENDMDL