MODEL 2
REMARK VINA RESULT: -9.587455215      2.591      6.240
REMARK  13 active torsions:
REMARK  status: ('A' for Active; 'I' for Inactive)
REMARK    1  A    between atoms: C2_2  and  C3_3
REMARK    2  A    between atoms: C3_3  and  O1_4
REMARK    3  A    between atoms: O1_4  and  C4_5
REMARK       I    between atoms: C4_5  and  N1_7
REMARK    4  A    between atoms: N2_10  and  C7_11
REMARK    5  A    between atoms: C7_11  and  C8_12
REMARK    6  A    between atoms: C8_12  and  C9_13
REMARK    7  A    between atoms: C9_13  and  N3_14
REMARK    8  A    between atoms: N3_14  and  C10_15
REMARK    9  A    between atoms: N3_14  and  C26_36
REMARK   10  A    between atoms: C10_15  and  C11_16
REMARK   11  A    between atoms: C11_16  and  N4_17
REMARK   12  A    between atoms: C17_26  and  N6_27
REMARK   13  A    between atoms: C26_36  and  C27_37
ROOT
HETATM    1  N3  UNL     1      15.108  21.133  18.857  1.00  0.00    -0.372 N
ENDROOT
BRANCH   1   2
HETATM    2  C9  UNL     1      16.269  20.626  18.246  1.00  0.00     0.065 C
BRANCH   2   3
HETATM    3  C8  UNL     1      17.512  21.466  18.472  1.00  0.00     0.075 C
BRANCH   3   4
HETATM    4  C7  UNL     1      18.082  22.018  17.228  1.00  0.00     0.277 C
BRANCH   4   5
HETATM    5  N2  UNL     1      18.485  23.414  17.271  1.00  0.00     0.091 N
HETATM    6  C6  UNL     1      18.891  23.817  18.567  1.00  0.00     0.292 C
HETATM    7  C5  UNL     1      20.090  24.708  18.576  1.00  0.00     0.158 C
HETATM    8  N1  UNL     1      20.069  25.662  17.496  1.00  0.00    -0.325 N
HETATM    9  C4  UNL     1      20.557  26.976  17.680  1.00  0.00     0.363 C
HETATM   10  C33 UNL     1      19.545  25.283  16.187  1.00  0.00     0.158 C
HETATM   11  O2  UNL     1      21.023  27.373  18.799  1.00  0.00    -0.238 OA
HETATM   12  C32 UNL     1      19.356  23.756  16.182  1.00  0.00     0.292 C
BRANCH   9  13
HETATM   13  O1  UNL     1      20.567  27.937  16.654  1.00  0.00    -0.300 OA
BRANCH  13  14
HETATM   14  C3  UNL     1      21.802  28.404  16.122  1.00  0.00     0.207 C
BRANCH  14  15
HETATM   15  C2  UNL     1      21.729  28.342  14.642  1.00  0.00    -0.011 C
HETATM   16  C1  UNL     1      20.552  28.316  14.048  1.00  0.00     0.009 C
ENDBRANCH  14  15
ENDBRANCH  13  14
ENDBRANCH   9  13
ENDBRANCH   4   5
ENDBRANCH   3   4
ENDBRANCH   2   3
ENDBRANCH   1   2
BRANCH   1  17
HETATM   17  C10 UNL     1      14.761  22.458  18.583  1.00  0.00     0.083 C
BRANCH  17  18
HETATM   18  C11 UNL     1      13.628  22.648  17.548  1.00  0.00     0.175 C
BRANCH  18  19
HETATM   19  N4  UNL     1      14.047  22.327  16.223  1.00  0.00    -0.332 N
HETATM   20  C12 UNL     1      15.099  23.036  15.567  1.00  0.00     0.077 C
HETATM   21  N5  UNL     1      15.398  24.222  15.864  1.00  0.00    -0.389 N
HETATM   22  C13 UNL     1      15.848  22.277  14.491  1.00  0.00     0.081 C
ATOM     23  H52 UNL     1      14.895  24.732  16.588  1.00  0.00     0.157 HD
ATOM     24  H51 UNL     1      16.149  24.728  15.395  1.00  0.00     0.157 HD
HETATM   25  C14 UNL     1      14.819  21.879  13.471  1.00  0.00     0.048 C
HETATM   26  C15 UNL     1      13.774  21.055  14.125  1.00  0.00    -0.029 A
HETATM   27  C16 UNL     1      13.150  20.053  13.372  1.00  0.00     0.038 A
HETATM   28  C25 UNL     1      13.411  21.329  15.439  1.00  0.00     0.042 A
HETATM   29  C17 UNL     1      12.149  19.287  13.889  1.00  0.00     0.030 A
HETATM   30  C23 UNL     1      11.783  19.559  15.208  1.00  0.00     0.031 A
HETATM   31  C24 UNL     1      12.393  20.547  15.958  1.00  0.00     0.032 A
BRANCH  29  32
HETATM   32  N6  UNL     1      11.465  18.297  13.136  1.00  0.00    -0.381 N
HETATM   33  C18 UNL     1      12.105  17.685  12.003  1.00  0.00     0.123 C
HETATM   34  C19 UNL     1      11.920  16.192  11.929  1.00  0.00     0.020 C
HETATM   35  C20 UNL     1      11.031  15.689  13.031  1.00  0.00     0.003 C
HETATM   36  C21 UNL     1       9.781  16.506  13.062  1.00  0.00     0.020 C
HETATM   37  C22 UNL     1      10.129  17.916  13.517  1.00  0.00     0.123 C
ENDBRANCH  29  32
ENDBRANCH  18  19
ENDBRANCH  17  18
ENDBRANCH   1  17
BRANCH   1  38
HETATM   38  C26 UNL     1      13.994  20.237  18.914  1.00  0.00     0.131 C
BRANCH  38  39
HETATM   39  C27 UNL     1      14.155  18.927  19.549  1.00  0.00     0.007 C
HETATM   40  C28 UNL     1      13.137  18.834  20.700  1.00  0.00     0.034 C
HETATM   41  C29 UNL     1      11.770  18.627  20.130  1.00  0.00     0.232 C
HETATM   42  N7  UNL     1      11.689  17.359  19.403  1.00  0.00    -0.075 N
HETATM   43  C30 UNL     1      12.597  17.387  18.261  1.00  0.00     0.232 C
ATOM     44  H72 UNL     1      11.861  16.558  20.010  1.00  0.00     0.277 HD
ATOM     45  H71 UNL     1      10.733  17.135  19.128  1.00  0.00     0.277 HD
HETATM   46  C31 UNL     1      13.971  17.673  18.781  1.00  0.00     0.034 C
ENDBRANCH  38  39
ENDBRANCH   1  38
TORSDOF 13
ENDMDL