MODEL 2
REMARK VINA RESULT: -8.446554477      3.809      5.952
REMARK  10 active torsions:
REMARK  status: ('A' for Active; 'I' for Inactive)
REMARK    1  A    between atoms: C1_4  and  N2_6
REMARK    2  A    between atoms: N2_6  and  C2_8
REMARK    3  A    between atoms: C2_8  and  C3_9
REMARK    4  A    between atoms: C4_10  and  C5_11
REMARK    5  A    between atoms: C6_14  and  C7_15
REMARK       I    between atoms: C7_15  and  N4_17
REMARK    6  A    between atoms: N4_17  and  C8_19
REMARK    7  A    between atoms: C8_19  and  C9_20
REMARK    8  A    between atoms: C10_24  and  C11_25
REMARK    9  A    between atoms: C11_25  and  C12_26
REMARK   10  A    between atoms: C20_36  and  O2_37
ROOT
HETATM    1  C5  UNL     1      -2.018 -33.323  25.811  1.00  0.00     0.086 A
HETATM    2  N3  UNL     1      -0.896 -33.183  26.478  1.00  0.00    -0.345 N
ATOM      3  H3  UNL     1      -0.047 -33.621  26.122  1.00  0.00     0.167 HD
HETATM    4  C6  UNL     1      -0.843 -32.499  27.582  1.00  0.00     0.115 A
HETATM    5  C10 UNL     1      -1.986 -31.925  28.027  1.00  0.00     0.017 A
HETATM    6  S2  UNL     1      -3.089 -32.443  26.777  1.00  0.00    -0.074 SA
ENDROOT
BRANCH   1   7
HETATM    7  C4  UNL     1      -2.169 -34.087  24.550  1.00  0.00     0.009 A
HETATM    8  C3  UNL     1      -2.929 -33.683  23.498  1.00  0.00    -0.003 A
HETATM    9  C21 UNL     1      -2.956 -34.497  22.380  1.00  0.00     0.077 A
HETATM   10  C20 UNL     1      -2.238 -35.703  22.310  1.00  0.00     0.109 A
HETATM   11 CL2  UNL     1      -3.820 -34.094  20.926  1.00  0.00    -0.081 Cl
HETATM   12  C19 UNL     1      -1.477 -36.096  23.381  1.00  0.00     0.069 A
HETATM   13  C18 UNL     1      -1.466 -35.270  24.473  1.00  0.00     0.041 A
HETATM   14 CL1  UNL     1      -0.561 -37.587  23.351  1.00  0.00    -0.081 Cl
BRANCH   8  15
HETATM   15  C2  UNL     1      -3.643 -32.421  23.565  1.00  0.00     0.163 C
BRANCH  15  16
HETATM   16  N2  UNL     1      -4.958 -32.355  24.081  1.00  0.00    -0.366 N
ATOM     17  H2  UNL     1      -5.148 -31.744  24.875  1.00  0.00     0.162 HD
BRANCH  16  18
HETATM   18  C1  UNL     1      -6.039 -33.128  23.515  1.00  0.00     0.145 C
HETATM   19  N1  UNL     1      -6.467 -32.965  22.310  1.00  0.00    -0.379 N
ATOM     20  H12 UNL     1      -7.230 -33.511  21.911  1.00  0.00     0.158 HD
ATOM     21  H11 UNL     1      -6.006 -32.255  21.741  1.00  0.00     0.158 HD
HETATM   22  S1  UNL     1      -6.847 -34.371  24.513  1.00  0.00    -0.014 SA
ENDBRANCH  16  18
ENDBRANCH  15  16
ENDBRANCH   8  15
BRANCH  10  23
HETATM   23  O2  UNL     1      -2.287 -36.503  21.169  1.00  0.00    -0.357 OA
ATOM     24  H2  UNL     1      -2.010 -36.147  20.332  1.00  0.00     0.217 HD
ENDBRANCH  10  23
ENDBRANCH   1   7
BRANCH   4  25
HETATM   25  C7  UNL     1       0.453 -32.441  28.329  1.00  0.00     0.269 C
HETATM   26  O1  UNL     1       0.458 -32.110  29.514  1.00  0.00    -0.266 OA
HETATM   27  N4  UNL     1       1.686 -32.762  27.703  1.00  0.00    -0.347 N
ATOM     28  H4  UNL     1       1.718 -33.039  26.722  1.00  0.00     0.163 HD
BRANCH  27  29
HETATM   29  C8  UNL     1       2.894 -32.685  28.489  1.00  0.00     0.240 C
BRANCH  29  30
HETATM   30  C9  UNL     1       3.924 -33.668  28.028  1.00  0.00     0.403 C
HETATM   31  F1  UNL     1       3.703 -34.865  28.674  1.00  0.00    -0.169 F
HETATM   32  F2  UNL     1       5.156 -33.210  28.467  1.00  0.00    -0.169 F
HETATM   33  F3  UNL     1       3.911 -33.769  26.665  1.00  0.00    -0.169 F
ENDBRANCH  29  30
ENDBRANCH  27  29
ENDBRANCH   4  25
BRANCH   5  34
HETATM   34  C11 UNL     1      -2.342 -30.998  29.134  1.00  0.00     0.053 C
BRANCH  34  35
HETATM   35  C12 UNL     1      -2.523 -31.633  30.458  1.00  0.00    -0.010 C
HETATM   36  C13 UNL     1      -3.411 -32.805  30.520  1.00  0.00     0.005 C
HETATM   37  C14 UNL     1      -3.931 -33.047  31.947  1.00  0.00     0.000 C
HETATM   38  C15 UNL     1      -2.979 -32.553  32.990  1.00  0.00     0.000 C
HETATM   39  C16 UNL     1      -2.797 -31.062  32.862  1.00  0.00     0.000 C
HETATM   40  C17 UNL     1      -3.093 -30.600  31.450  1.00  0.00     0.005 C
ENDBRANCH  34  35
ENDBRANCH   5  34
TORSDOF 10
ENDMDL