MODEL 3
REMARK VINA RESULT: -10.050304273      1.566      2.034
REMARK  8 active torsions:
REMARK  status: ('A' for Active; 'I' for Inactive)
REMARK    1  A    between atoms: C2_2  and  O1_4
REMARK    2  A    between atoms: C2_2  and  C4_6
REMARK    3  A    between atoms: C7_9  and  N1_10
REMARK    4  A    between atoms: N1_10  and  C8_12
REMARK    5  A    between atoms: C8_12  and  C9_13
REMARK    6  A    between atoms: C9_13  and  N2_14
REMARK    7  A    between atoms: N2_14  and  C10_16
REMARK    8  A    between atoms: C22_37  and  C24_39
ROOT
HETATM    1  C10 UNL     1     -11.735 -39.179  25.937  1.00  0.00     0.037 A
HETATM    2  C11 UNL     1     -11.173 -38.451  26.946  1.00  0.00     0.061 A
HETATM    3  C12 UNL     1     -10.769 -39.119  28.075  1.00  0.00     0.063 A
HETATM    4  N3  UNL     1     -10.198 -38.634  29.207  1.00  0.00    -0.299 N
ATOM      5  H3  UNL     1      -9.978 -37.652  29.374  1.00  0.00     0.187 HD
HETATM    6  N4  UNL     1      -9.971 -39.592  30.042  1.00  0.00    -0.297 N
ATOM      7  H4  UNL     1      -9.549 -39.476  30.963  1.00  0.00     0.187 HD
HETATM    8  C13 UNL     1     -10.392 -40.818  29.497  1.00  0.00     0.096 A
HETATM    9  C14 UNL     1     -10.227 -42.051  30.217  1.00  0.00     0.121 A
HETATM   10  C15 UNL     1     -10.381 -42.053  31.635  1.00  0.00     0.129 A
HETATM   11  N5  UNL     1     -10.172 -43.271  32.093  1.00  0.00    -0.354 N
ATOM     12  H5  UNL     1     -10.216 -43.571  33.067  1.00  0.00     0.166 HD
HETATM   13  C16 UNL     1      -9.891 -44.043  31.028  1.00  0.00     0.233 A
HETATM   14  O2  UNL     1      -9.941 -43.280  29.996  1.00  0.00    -0.302 OA
HETATM   15  C17 UNL     1     -10.891 -40.499  28.283  1.00  0.00     0.031 A
HETATM   16  C18 UNL     1     -11.481 -41.260  27.251  1.00  0.00    -0.011 A
HETATM   17  C19 UNL     1     -11.876 -40.532  26.095  1.00  0.00    -0.017 A
HETATM   18  C20 UNL     1     -12.332 -41.516  25.035  1.00  0.00     0.122 C
HETATM   19  C21 UNL     1     -11.628 -42.748  25.549  1.00  0.00     0.267 C
HETATM   20  F1  UNL     1     -12.144 -43.821  24.971  1.00  0.00    -0.204 F
HETATM   21  F2  UNL     1     -10.259 -42.646  25.428  1.00  0.00    -0.204 F
HETATM   22  C22 UNL     1     -12.006 -42.548  27.067  1.00  0.00     0.148 C
HETATM   23  C23 UNL     1     -13.551 -42.219  26.938  1.00  0.00     0.036 C
ENDROOT
BRANCH   1  24
HETATM   24  N2  UNL     1     -12.146 -38.517  24.758  1.00  0.00    -0.388 N
ATOM     25  H2  UNL     1     -13.091 -38.139  24.678  1.00  0.00     0.159 HD
BRANCH  24  26
HETATM   26  C9  UNL     1     -11.208 -38.383  23.670  1.00  0.00     0.139 C
BRANCH  26  27
HETATM   27  C8  UNL     1     -10.777 -36.922  23.503  1.00  0.00     0.133 C
BRANCH  27  28
HETATM   28  N1  UNL     1      -9.519 -36.922  22.811  1.00  0.00    -0.416 N
ATOM     29  H1  UNL     1      -9.231 -37.692  22.207  1.00  0.00     0.153 HD
BRANCH  28  30
HETATM   30  C7  UNL     1      -8.700 -35.774  23.023  1.00  0.00     0.076 C
HETATM   31  C6  UNL     1      -7.546 -35.772  22.084  1.00  0.00     0.025 C
HETATM   32  C5  UNL     1      -6.529 -34.679  22.340  1.00  0.00     0.009 C
HETATM   33  C4  UNL     1      -6.274 -34.414  23.786  1.00  0.00     0.019 C
HETATM   34  C26 UNL     1      -7.566 -34.266  24.576  1.00  0.00     0.009 C
HETATM   35  C25 UNL     1      -8.268 -35.625  24.464  1.00  0.00     0.025 C
BRANCH  33  36
HETATM   36  C2  UNL     1      -5.494 -33.125  23.914  1.00  0.00     0.054 C
HETATM   37  C1  UNL     1      -4.636 -33.111  25.162  1.00  0.00     0.045 C
HETATM   38  C3  UNL     1      -4.617 -33.008  22.668  1.00  0.00     0.045 C
BRANCH  36  39
HETATM   39  O1  UNL     1      -6.400 -32.072  23.872  1.00  0.00    -0.390 OA
ATOM     40  H1  UNL     1      -7.034 -32.104  24.579  1.00  0.00     0.210 HD
ENDBRANCH  36  39
ENDBRANCH  33  36
ENDBRANCH  28  30
ENDBRANCH  27  28
ENDBRANCH  26  27
ENDBRANCH  24  26
ENDBRANCH   1  24
BRANCH  22  41
HETATM   41  C24 UNL     1     -12.059 -43.838  27.604  1.00  0.00     0.404 C
HETATM   42  F3  UNL     1     -12.504 -43.689  28.999  1.00  0.00    -0.170 F
HETATM   43  F4  UNL     1     -10.889 -44.523  27.940  1.00  0.00    -0.170 F
HETATM   44  F5  UNL     1     -13.127 -44.695  27.289  1.00  0.00    -0.170 F
ENDBRANCH  22  41
TORSDOF 8
ENDMDL