MODEL 4
REMARK VINA RESULT: -7.132660689      1.468      1.848
REMARK  11 active torsions:
REMARK  status: ('A' for Active; 'I' for Inactive)
REMARK    1  A    between atoms: C6_6  and  C7_7
REMARK    2  A    between atoms: C7_7  and  C8_9
REMARK    3  A    between atoms: C11_13  and  O2_14
REMARK    4  A    between atoms: C14_19  and  C15_20
REMARK    5  A    between atoms: C15_20  and  O3_21
REMARK    6  A    between atoms: N1_23  and  O4_25
REMARK    7  A    between atoms: C19_31  and  C20_32
REMARK    8  A    between atoms: C20_32  and  C21_33
REMARK    9  A    between atoms: C21_33  and  C22_34
REMARK   10  A    between atoms: C22_34  and  C23_35
REMARK   11  A    between atoms: C23_35  and  C24_36
ROOT
HETATM    1  C1  UNL     1     -13.279 -36.460  24.015  1.00  0.00     0.010 C
HETATM    2  C2  UNL     1     -11.931 -36.696  24.554  1.00  0.00    -0.012 C
HETATM    3  C3  UNL     1     -11.262 -35.294  24.612  1.00  0.00     0.029 C
HETATM    4  C4  UNL     1      -9.843 -35.516  25.095  1.00  0.00     0.085 C
HETATM    5  C5  UNL     1      -9.018 -34.310  24.617  1.00  0.00     0.040 C
HETATM    6  C6  UNL     1      -7.641 -35.033  24.553  1.00  0.00     0.093 C
HETATM    7  C14 UNL     1      -8.030 -36.307  23.833  1.00  0.00     0.172 C
HETATM    8  N2  UNL     1      -9.323 -36.616  24.378  1.00  0.00    -0.375 N
HETATM    9  C16 UNL     1      -9.471 -37.910  24.871  1.00  0.00     0.064 C
HETATM   10  C17 UNL     1     -10.476 -38.209  25.898  1.00  0.00     0.024 C
HETATM   11  C18 UNL     1      -9.865 -38.162  27.295  1.00  0.00     0.016 C
HETATM   12  C19 UNL     1     -11.763 -37.391  25.840  1.00  0.00    -0.002 C
ENDROOT
BRANCH   6  13
HETATM   13  C7  UNL     1      -6.730 -34.158  23.847  1.00  0.00     0.166 C
HETATM   14  O1  UNL     1      -7.120 -33.443  22.866  1.00  0.00    -0.292 OA
BRANCH  13  15
HETATM   15  C8  UNL     1      -5.331 -34.057  24.220  1.00  0.00     0.014 A
HETATM   16  C9  UNL     1      -4.934 -33.715  25.494  1.00  0.00     0.042 A
HETATM   17  C10 UNL     1      -3.574 -33.636  25.819  1.00  0.00     0.069 A
HETATM   18 CL1  UNL     1      -3.058 -33.202  27.436  1.00  0.00    -0.081 Cl
HETATM   19  C11 UNL     1      -2.632 -33.900  24.868  1.00  0.00     0.109 A
HETATM   20  C12 UNL     1      -2.986 -34.246  23.584  1.00  0.00     0.069 A
HETATM   21 CL2  UNL     1      -1.806 -34.590  22.343  1.00  0.00    -0.081 Cl
HETATM   22  C13 UNL     1      -4.320 -34.315  23.296  1.00  0.00     0.042 A
BRANCH  19  23
HETATM   23  O2  UNL     1      -1.253 -33.840  25.128  1.00  0.00    -0.357 OA
ATOM     24  H2  UNL     1      -0.814 -34.448  25.711  1.00  0.00     0.217 HD
ENDBRANCH  19  23
ENDBRANCH  13  15
ENDBRANCH   6  13
BRANCH   7  25
HETATM   25  C15 UNL     1      -8.118 -36.153  22.362  1.00  0.00     0.159 C
HETATM   26  N1  UNL     1      -9.268 -36.317  21.774  1.00  0.00    -0.249 N
ATOM     27  H1  UNL     1     -10.084 -36.548  22.340  1.00  0.00     0.196 HD
BRANCH  25  28
HETATM   28  O3  UNL     1      -7.056 -35.842  21.537  1.00  0.00    -0.347 OA
ATOM     29  H3  UNL     1      -6.894 -34.984  21.162  1.00  0.00     0.219 HD
ENDBRANCH  25  28
BRANCH  26  30
HETATM   30  O4  UNL     1      -9.414 -36.189  20.419  1.00  0.00    -0.288 OA
ATOM     31  H4  UNL     1     -10.268 -36.116  20.010  1.00  0.00     0.244 HD
ENDBRANCH  26  30
ENDBRANCH   7  25
BRANCH  12  32
HETATM   32  C20 UNL     1     -12.872 -38.182  26.357  1.00  0.00     0.005 C
BRANCH  32  33
HETATM   33  C21 UNL     1     -12.912 -39.654  26.256  1.00  0.00     0.001 C
BRANCH  33  34
HETATM   34  C22 UNL     1     -14.032 -40.212  25.463  1.00  0.00     0.009 C
BRANCH  34  35
HETATM   35  C23 UNL     1     -13.891 -39.942  24.006  1.00  0.00     0.117 C
BRANCH  35  36
HETATM   36  C24 UNL     1     -12.733 -40.565  23.304  1.00  0.00     0.387 C
HETATM   37  F1  UNL     1     -11.625 -39.730  23.222  1.00  0.00    -0.171 F
HETATM   38  F2  UNL     1     -13.114 -40.672  21.920  1.00  0.00    -0.171 F
HETATM   39  F3  UNL     1     -12.428 -41.854  23.631  1.00  0.00    -0.171 F
ENDBRANCH  35  36
ENDBRANCH  34  35
ENDBRANCH  33  34
ENDBRANCH  32  33
ENDBRANCH  12  32
TORSDOF 11
ENDMDL