MODEL 2
REMARK VINA RESULT: -6.929562776      1.867      2.360
REMARK  10 active torsions:
REMARK  status: ('A' for Active; 'I' for Inactive)
REMARK    1  A    between atoms: C8_11  and  N2_12
REMARK    2  A    between atoms: N2_12  and  C9_14
REMARK    3  A    between atoms: C9_14  and  C10_15
REMARK    4  A    between atoms: C10_15  and  C11_16
REMARK    5  A    between atoms: N3_30  and  C20_31
REMARK    6  A    between atoms: C20_31  and  C21_32
REMARK    7  A    between atoms: C21_32  and  C22_33
REMARK    8  A    between atoms: C22_33  and  O2_36
REMARK    9  A    between atoms: C26_39  and  C27_40
REMARK   10  A    between atoms: C27_40  and  O3_41
ROOT
HETATM    1  C1  UNL     1     -14.577 -43.722  27.138  1.00  0.00     0.032 C
HETATM    2  C2  UNL     1     -13.840 -43.193  25.930  1.00  0.00     0.075 C
HETATM    3  C3  UNL     1     -12.766 -44.092  25.451  1.00  0.00     0.024 C
HETATM    4  C4  UNL     1     -11.365 -43.661  25.702  1.00  0.00     0.007 C
HETATM    5  C5  UNL     1     -11.186 -42.639  26.758  1.00  0.00     0.062 C
HETATM    6  C6  UNL     1     -12.230 -41.554  26.770  1.00  0.00     0.145 C
HETATM    7  N1  UNL     1     -13.393 -41.857  26.014  1.00  0.00    -0.387 N
ATOM      8  H1  UNL     1     -13.903 -41.114  25.536  1.00  0.00     0.156 HD
HETATM    9  O1  UNL     1     -12.727 -41.503  28.131  1.00  0.00    -0.317 OA
HETATM   10  C7  UNL     1     -11.855 -41.215  29.134  1.00  0.00     0.108 A
HETATM   11  C8  UNL     1     -12.025 -41.672  30.420  1.00  0.00     0.065 A
HETATM   12  C12 UNL     1     -11.100 -41.336  31.368  1.00  0.00     0.077 A
HETATM   13  C13 UNL     1      -9.990 -40.542  31.072  1.00  0.00     0.157 A
HETATM   14  F4  UNL     1      -9.097 -40.233  32.053  1.00  0.00    -0.203 F
HETATM   15  C14 UNL     1      -9.838 -40.098  29.797  1.00  0.00     0.164 A
HETATM   16  F5  UNL     1      -8.756 -39.321  29.497  1.00  0.00    -0.202 F
HETATM   17  C15 UNL     1     -10.778 -40.437  28.821  1.00  0.00     0.020 A
HETATM   18  C16 UNL     1     -10.531 -39.905  27.490  1.00  0.00     0.060 C
HETATM   19  C17 UNL     1     -11.649 -40.220  26.461  1.00  0.00     0.026 C
HETATM   20  C18 UNL     1     -12.683 -39.133  26.685  1.00  0.00     0.060 C
HETATM   21  C19 UNL     1     -12.138 -37.771  26.438  1.00  0.00     0.064 C
HETATM   22  N3  UNL     1     -11.099 -37.631  25.509  1.00  0.00    -0.373 N
HETATM   23  C25 UNL     1     -10.186 -38.660  25.308  1.00  0.00     0.134 C
HETATM   24  C26 UNL     1     -11.004 -39.981  25.162  1.00  0.00     0.041 C
ENDROOT
BRANCH  24  25
HETATM   25  C27 UNL     1     -11.768 -39.779  23.924  1.00  0.00     0.171 C
BRANCH  25  26
HETATM   26  O3  UNL     1     -12.126 -40.937  23.290  1.00  0.00    -0.400 OA
ATOM     27  H3  UNL     1     -12.977 -40.903  22.870  1.00  0.00     0.209 HD
ENDBRANCH  25  26
ENDBRANCH  24  25
BRANCH  22  28
HETATM   28  C20 UNL     1     -10.929 -36.399  24.862  1.00  0.00     0.066 C
BRANCH  28  29
HETATM   29  C21 UNL     1      -9.773 -36.460  23.894  1.00  0.00     0.081 C
BRANCH  29  30
HETATM   30  C22 UNL     1      -8.614 -35.616  24.325  1.00  0.00     0.055 C
HETATM   31  C23 UNL     1      -9.082 -34.248  24.765  1.00  0.00     0.045 C
HETATM   32  C24 UNL     1      -7.634 -35.425  23.197  1.00  0.00     0.045 C
BRANCH  30  33
HETATM   33  O2  UNL     1      -7.965 -36.222  25.406  1.00  0.00    -0.390 OA
ATOM     34  H2  UNL     1      -7.157 -35.759  25.596  1.00  0.00     0.210 HD
ENDBRANCH  30  33
ENDBRANCH  29  30
ENDBRANCH  28  29
ENDBRANCH  22  28
BRANCH  11  35
HETATM   35  N2  UNL     1     -13.139 -42.484  30.727  1.00  0.00    -0.387 N
ATOM     36  H2  UNL     1     -13.102 -43.461  30.434  1.00  0.00     0.159 HD
BRANCH  35  37
HETATM   37  C9  UNL     1     -14.330 -42.042  31.424  1.00  0.00     0.128 C
BRANCH  37  38
HETATM   38  C10 UNL     1     -15.294 -41.360  30.504  1.00  0.00     0.137 C
BRANCH  38  39
HETATM   39  C11 UNL     1     -15.249 -39.843  30.689  1.00  0.00     0.389 C
HETATM   40  F1  UNL     1     -16.533 -39.389  30.648  1.00  0.00    -0.171 F
HETATM   41  F2  UNL     1     -14.458 -39.257  29.727  1.00  0.00    -0.171 F
HETATM   42  F3  UNL     1     -14.731 -39.560  31.931  1.00  0.00    -0.171 F
ENDBRANCH  38  39
ENDBRANCH  37  38
ENDBRANCH  35  37
ENDBRANCH  11  35
TORSDOF 10
ENDMDL