MODEL 2
REMARK VINA RESULT: -9.272307615      0.824      1.060
REMARK  10 active torsions:
REMARK  status: ('A' for Active; 'I' for Inactive)
REMARK    1  A    between atoms: C2_2  and  C4_4
REMARK    2  A    between atoms: C4_4  and  C6_6
REMARK    3  A    between atoms: C4_4  and  C25_43
REMARK    4  A    between atoms: C6_6  and  N1_7
REMARK    5  A    between atoms: C6_6  and  C20_31
REMARK    6  A    between atoms: N1_7  and  C7_10
REMARK    7  A    between atoms: C10_13  and  C11_14
REMARK    8  A    between atoms: C12_17  and  C13_18
REMARK    9  A    between atoms: C22_35  and  O3_36
REMARK   10  A    between atoms: C23_38  and  C24_39
ROOT
HETATM    1  N1  UNL     1      -9.845 -38.172  24.040  1.00  0.00    -0.061 N
ATOM      2  H11 UNL     1     -10.372 -38.295  23.176  1.00  0.00     0.278 HD
ATOM      3  H12 UNL     1      -9.383 -39.081  24.071  1.00  0.00     0.278 HD
ENDROOT
BRANCH   1   4
HETATM    4  C6  UNL     1     -10.760 -37.973  25.225  1.00  0.00     0.238 C
BRANCH   4   5
HETATM    5  C4  UNL     1     -12.183 -37.733  24.763  1.00  0.00     0.089 C
HETATM    6  C5  UNL     1     -12.957 -38.735  25.699  1.00  0.00     0.027 C
BRANCH   5   7
HETATM    7  C2  UNL     1     -12.643 -38.026  23.426  1.00  0.00    -0.004 C
HETATM    8  C1  UNL     1     -14.081 -38.637  23.468  1.00  0.00     0.011 C
HETATM    9  C3  UNL     1     -12.863 -36.868  22.474  1.00  0.00     0.011 C
ENDBRANCH   5   7
BRANCH   5  10
HETATM   10  C25 UNL     1     -12.684 -36.390  25.301  1.00  0.00     0.397 C
HETATM   11  F4  UNL     1     -12.826 -36.434  26.675  1.00  0.00    -0.170 F
HETATM   12  F5  UNL     1     -11.745 -35.446  25.006  1.00  0.00    -0.170 F
HETATM   13  F6  UNL     1     -13.941 -36.104  24.784  1.00  0.00    -0.170 F
ENDBRANCH   5  10
ENDBRANCH   4   5
BRANCH   4  14
HETATM   14  C20 UNL     1     -10.585 -39.293  25.912  1.00  0.00     0.008 A
HETATM   15  C21 UNL     1     -10.404 -40.500  25.276  1.00  0.00     0.100 A
HETATM   16  N5  UNL     1     -10.134 -41.417  26.252  1.00  0.00    -0.346 N
HETATM   17  C22 UNL     1     -10.144 -40.818  27.431  1.00  0.00     0.155 A
ATOM     18  H5  UNL     1      -9.952 -42.409  26.096  1.00  0.00     0.167 HD
HETATM   19  C23 UNL     1     -10.421 -39.463  27.289  1.00  0.00     0.108 A
BRANCH  17  20
HETATM   20  O3  UNL     1      -9.897 -41.507  28.652  1.00  0.00    -0.345 OA
ATOM     21  H3  UNL     1     -10.083 -41.131  29.504  1.00  0.00     0.219 HD
ENDBRANCH  17  20
BRANCH  19  22
HETATM   22  C24 UNL     1     -10.463 -38.556  28.416  1.00  0.00     0.422 C
HETATM   23  F1  UNL     1      -9.904 -38.928  29.602  1.00  0.00    -0.166 F
HETATM   24  F2  UNL     1     -11.608 -37.849  28.637  1.00  0.00    -0.166 F
HETATM   25  F3  UNL     1      -9.538 -37.475  28.065  1.00  0.00    -0.166 F
ENDBRANCH  19  22
ENDBRANCH   4  14
ENDBRANCH   1   4
BRANCH   1  26
HETATM   26  C7  UNL     1      -8.890 -37.094  23.932  1.00  0.00     0.186 C
HETATM   27  C8  UNL     1      -8.748 -36.179  25.090  1.00  0.00     0.034 C
HETATM   28  C9  UNL     1      -8.835 -34.706  24.755  1.00  0.00     0.015 C
HETATM   29  C10 UNL     1      -8.010 -34.308  23.542  1.00  0.00     0.063 C
HETATM   30  C18 UNL     1      -7.850 -35.403  22.555  1.00  0.00     0.015 C
HETATM   31  C19 UNL     1      -9.152 -36.234  22.687  1.00  0.00     0.034 C
BRANCH  29  32
HETATM   32  C11 UNL     1      -6.740 -33.668  23.939  1.00  0.00     0.152 A
HETATM   33  N2  UNL     1      -5.593 -34.290  24.242  1.00  0.00    -0.322 N
HETATM   34  C12 UNL     1      -4.619 -33.377  24.569  1.00  0.00     0.143 A
ATOM     35  H2  UNL     1      -5.461 -35.301  24.232  1.00  0.00     0.169 HD
HETATM   36  N4  UNL     1      -5.237 -32.197  24.446  1.00  0.00    -0.242 N
HETATM   37  O2  UNL     1      -6.495 -32.395  24.068  1.00  0.00    -0.222 OA
ATOM     38  H4  UNL     1      -4.809 -31.287  24.617  1.00  0.00     0.196 HD
BRANCH  34  39
HETATM   39  C13 UNL     1      -3.248 -33.727  24.907  1.00  0.00     0.078 A
HETATM   40  C14 UNL     1      -2.777 -33.393  26.172  1.00  0.00     0.022 A
HETATM   41  C15 UNL     1      -1.484 -33.688  26.598  1.00  0.00     0.018 A
HETATM   42  C16 UNL     1      -0.699 -34.337  25.674  1.00  0.00     0.091 A
HETATM   43  N3  UNL     1      -1.139 -34.661  24.458  1.00  0.00    -0.333 N
HETATM   44  C17 UNL     1      -2.414 -34.364  24.056  1.00  0.00     0.259 A
ATOM     45  H3  UNL     1      -0.512 -35.142  23.813  1.00  0.00     0.168 HD
HETATM   46  O1  UNL     1      -2.804 -34.682  22.891  1.00  0.00    -0.267 OA
ENDBRANCH  34  39
ENDBRANCH  29  32
ENDBRANCH   1  26
TORSDOF 10
ENDMDL