MODEL 3
REMARK VINA RESULT: -9.669597993      2.126      2.379
REMARK  8 active torsions:
REMARK  status: ('A' for Active; 'I' for Inactive)
REMARK    1  A    between atoms: C2_2  and  C3_5
REMARK    2  A    between atoms: C5_9  and  N2_10
REMARK    3  A    between atoms: N2_10  and  C6_12
REMARK    4  A    between atoms: C9_15  and  N3_16
REMARK    5  A    between atoms: N3_16  and  C10_18
REMARK    6  A    between atoms: C18_27  and  C19_28
REMARK    7  A    between atoms: C22_33  and  O2_34
REMARK    8  A    between atoms: O2_34  and  C23_35
ROOT
HETATM    1  C3  UNL     1     -14.150 -37.435  22.388  1.00  0.00     0.029 A
HETATM    2  C4  UNL     1     -13.245 -36.943  21.475  1.00  0.00     0.103 A
HETATM    3  N1  UNL     1     -11.966 -36.935  21.743  1.00  0.00    -0.351 N
ATOM      4  H1  UNL     1     -11.338 -36.557  21.033  1.00  0.00     0.166 HD
HETATM    5  C5  UNL     1     -11.401 -37.397  22.907  1.00  0.00     0.115 A
HETATM    6  C18 UNL     1     -12.256 -37.887  23.842  1.00  0.00     0.052 A
HETATM    7  C25 UNL     1     -13.641 -37.905  23.570  1.00  0.00     0.033 A
ENDROOT
BRANCH   5   8
HETATM    8  N2  UNL     1      -9.967 -37.443  22.998  1.00  0.00    -0.371 N
ATOM      9  H2  UNL     1      -9.467 -38.332  22.983  1.00  0.00     0.161 HD
BRANCH   8  10
HETATM   10  C6  UNL     1      -9.267 -36.208  23.108  1.00  0.00     0.083 C
HETATM   11  C7  UNL     1      -9.030 -35.734  24.523  1.00  0.00     0.027 C
HETATM   12  C8  UNL     1      -7.678 -34.996  24.626  1.00  0.00     0.027 C
HETATM   13  C9  UNL     1      -7.461 -34.138  23.469  1.00  0.00     0.079 C
HETATM   14  C16 UNL     1      -7.309 -35.122  22.248  1.00  0.00     0.027 C
HETATM   15  C17 UNL     1      -7.871 -36.459  22.546  1.00  0.00     0.027 C
BRANCH  13  16
HETATM   16  N3  UNL     1      -6.391 -33.289  23.308  1.00  0.00    -0.393 N
ATOM     17  H3  UNL     1      -6.603 -32.393  22.870  1.00  0.00     0.156 HD
BRANCH  16  18
HETATM   18  C10 UNL     1      -5.072 -33.480  23.655  1.00  0.00     0.216 C
HETATM   19  C11 UNL     1      -4.139 -33.182  22.504  1.00  0.00     0.053 C
HETATM   20  C12 UNL     1      -2.809 -33.848  22.585  1.00  0.00     0.004 C
HETATM   21  C13 UNL     1      -2.442 -34.435  23.899  1.00  0.00     0.002 C
HETATM   22  C14 UNL     1      -2.496 -33.443  25.032  1.00  0.00     0.026 C
HETATM   23  C15 UNL     1      -3.867 -33.227  25.593  1.00  0.00     0.170 C
HETATM   24  O1  UNL     1      -4.726 -32.597  24.694  1.00  0.00    -0.367 OA
ENDBRANCH  16  18
ENDBRANCH  13  16
ENDBRANCH   8  10
ENDBRANCH   5   8
BRANCH   6  25
HETATM   25  C19 UNL     1     -11.830 -38.276  25.176  1.00  0.00     0.121 A
HETATM   26  N4  UNL     1     -11.398 -39.558  25.464  1.00  0.00    -0.339 N
HETATM   27  C20 UNL     1     -10.979 -39.643  26.730  1.00  0.00     0.082 A
ATOM     28  H4  UNL     1     -11.398 -40.332  24.801  1.00  0.00     0.167 HD
HETATM   29  C21 UNL     1     -10.444 -40.410  27.760  1.00  0.00     0.089 A
HETATM   30  C24 UNL     1     -11.141 -38.397  27.279  1.00  0.00     0.136 A
HETATM   31  C22 UNL     1     -10.290 -39.643  28.897  1.00  0.00     0.154 A
HETATM   32  N5  UNL     1     -10.724 -38.417  28.573  1.00  0.00    -0.321 N
ATOM     33  H5  UNL     1     -10.739 -37.617  29.206  1.00  0.00     0.169 HD
HETATM   34  N6  UNL     1     -11.657 -37.606  26.314  1.00  0.00    -0.326 N
ATOM     35  H6  UNL     1     -11.884 -36.620  26.440  1.00  0.00     0.169 HD
BRANCH  31  36
HETATM   36  O2  UNL     1      -9.792 -39.991  30.151  1.00  0.00    -0.239 OA
BRANCH  36  37
HETATM   37  C23 UNL     1     -10.411 -40.976  30.957  1.00  0.00     0.531 C
HETATM   38  F3  UNL     1      -9.837 -40.924  32.210  1.00  0.00    -0.144 F
HETATM   39  F4  UNL     1     -11.771 -40.883  30.955  1.00  0.00    -0.144 F
HETATM   40  F5  UNL     1     -10.042 -42.233  30.452  1.00  0.00    -0.144 F
ENDBRANCH  36  37
ENDBRANCH  31  36
ENDBRANCH   6  25
BRANCH   1  41
HETATM   41  C2  UNL     1     -15.570 -37.438  21.993  1.00  0.00     0.268 C
HETATM   42  C1  UNL     1     -16.060 -36.115  21.488  1.00  0.00     0.096 C
HETATM   43  F1  UNL     1     -16.274 -37.894  23.105  1.00  0.00    -0.201 F
HETATM   44  F2  UNL     1     -15.776 -38.384  21.003  1.00  0.00    -0.201 F
ENDBRANCH   1  41
TORSDOF 8
ENDMDL