MODEL 5
REMARK VINA RESULT: -7.956927870      8.810     12.188
REMARK  12 active torsions:
REMARK  status: ('A' for Active; 'I' for Inactive)
REMARK    1  A    between atoms: C2_2  and  C3_4
REMARK    2  A    between atoms: C4_6  and  C5_7
REMARK    3  A    between atoms: C5_7  and  O1_8
REMARK    4  A    between atoms: O1_8  and  C6_9
REMARK    5  A    between atoms: C7_10  and  N1_11
REMARK       I    between atoms: N1_11  and  C8_13
REMARK    6  A    between atoms: C8_13  and  C9_15
REMARK    7  A    between atoms: C9_15  and  C12_18
REMARK    8  A    between atoms: C12_18  and  C13_19
REMARK    9  A    between atoms: C13_19  and  N2_20
REMARK   10  A    between atoms: C18_25  and  O3_26
REMARK   11  A    between atoms: C19_28  and  O4_29
REMARK   12  A    between atoms: C21_34  and  C22_35
ROOT
HETATM    1  C6  UNL     1     -11.052 -40.331  28.941  1.00  0.00     0.128 A
HETATM    2  C7  UNL     1     -10.305 -39.333  28.503  1.00  0.00     0.107 A
HETATM    3  C18 UNL     1      -9.260 -38.759  29.364  1.00  0.00     0.131 A
HETATM    4  C19 UNL     1      -9.045 -39.240  30.621  1.00  0.00     0.130 A
HETATM    5  C20 UNL     1      -9.832 -40.283  31.081  1.00  0.00     0.100 A
HETATM    6  N3  UNL     1      -9.846 -40.917  32.271  1.00  0.00    -0.334 N
ATOM      7  H3  UNL     1      -9.232 -40.725  33.064  1.00  0.00     0.167 HD
HETATM    8  C21 UNL     1     -10.813 -41.846  32.225  1.00  0.00     0.191 A
HETATM    9  N4  UNL     1     -11.372 -41.754  30.997  1.00  0.00    -0.334 N
ATOM     10  H4  UNL     1     -12.139 -42.337  30.663  1.00  0.00     0.167 HD
HETATM   11  C23 UNL     1     -10.779 -40.792  30.280  1.00  0.00     0.100 A
ENDROOT
BRANCH   2  12
HETATM   12  N1  UNL     1     -10.439 -38.521  27.379  1.00  0.00    -0.321 N
HETATM   13  C8  UNL     1     -10.196 -38.604  26.034  1.00  0.00     0.234 C
HETATM   14  O2  UNL     1      -9.850 -39.694  25.502  1.00  0.00    -0.272 OA
ATOM     15  H1  UNL     1     -10.827 -37.610  27.627  1.00  0.00     0.169 HD
BRANCH  13  16
HETATM   16  C9  UNL     1     -10.293 -37.397  25.129  1.00  0.00     0.053 C
HETATM   17  C10 UNL     1     -11.678 -36.777  25.474  1.00  0.00     0.029 C
HETATM   18  C11 UNL     1     -10.286 -37.957  23.716  1.00  0.00     0.029 C
BRANCH  16  19
HETATM   19  C12 UNL     1      -9.354 -36.331  25.201  1.00  0.00     0.008 C
BRANCH  19  20
HETATM   20  C13 UNL     1      -8.562 -35.976  24.208  1.00  0.00     0.082 C
BRANCH  20  21
HETATM   21  N2  UNL     1      -7.903 -34.811  23.852  1.00  0.00    -0.390 N
HETATM   22  C14 UNL     1      -7.066 -34.413  22.778  1.00  0.00     0.122 C
HETATM   23  C15 UNL     1      -5.837 -33.826  23.498  1.00  0.00     0.021 C
HETATM   24  C16 UNL     1      -6.482 -33.124  24.673  1.00  0.00     0.021 C
HETATM   25  C17 UNL     1      -7.951 -33.550  24.681  1.00  0.00     0.122 C
ENDBRANCH  20  21
ENDBRANCH  19  20
ENDBRANCH  16  19
ENDBRANCH  13  16
ENDBRANCH   2  12
BRANCH   1  26
HETATM   26  O1  UNL     1     -12.031 -41.010  28.333  1.00  0.00    -0.343 OA
BRANCH  26  27
HETATM   27  C5  UNL     1     -12.328 -41.358  27.041  1.00  0.00     0.204 C
BRANCH  27  28
HETATM   28  C4  UNL     1     -12.916 -42.707  26.969  1.00  0.00     0.020 C
HETATM   29  C3  UNL     1     -12.384 -43.856  27.143  1.00  0.00     0.028 C
HETATM   30 CL2  UNL     1     -10.661 -44.026  27.554  1.00  0.00    -0.088 Cl
BRANCH  29  31
HETATM   31  C2  UNL     1     -13.209 -45.085  26.986  1.00  0.00     0.122 C
HETATM   32  C1  UNL     1     -14.024 -45.161  25.763  1.00  0.00     0.032 C
HETATM   33 CL1  UNL     1     -14.336 -45.089  28.390  1.00  0.00    -0.119 Cl
ENDBRANCH  29  31
ENDBRANCH  27  28
ENDBRANCH  26  27
ENDBRANCH   1  26
BRANCH   3  34
HETATM   34  O3  UNL     1      -8.529 -37.735  28.832  1.00  0.00    -0.356 OA
ATOM     35  H3  UNL     1      -7.859 -37.358  29.391  1.00  0.00     0.218 HD
ENDBRANCH   3  34
BRANCH   4  36
HETATM   36  O4  UNL     1      -8.065 -38.682  31.433  1.00  0.00    -0.356 OA
ATOM     37  H4  UNL     1      -7.440 -39.236  31.885  1.00  0.00     0.218 HD
ENDBRANCH   4  36
BRANCH   8  38
HETATM   38  C22 UNL     1     -11.257 -42.762  33.324  1.00  0.00     0.449 C
HETATM   39  F1  UNL     1     -11.854 -41.936  34.280  1.00  0.00    -0.163 F
HETATM   40  F2  UNL     1     -10.163 -43.370  33.917  1.00  0.00    -0.163 F
HETATM   41  F3  UNL     1     -12.202 -43.631  32.849  1.00  0.00    -0.163 F
ENDBRANCH   8  38
TORSDOF 12
ENDMDL