MODEL 4
REMARK VINA RESULT: -9.367955622      3.404      4.111
REMARK  9 active torsions:
REMARK  status: ('A' for Active; 'I' for Inactive)
REMARK    1  A    between atoms: C2_2  and  C3_3
REMARK    2  A    between atoms: C3_3  and  N1_4
REMARK    3  A    between atoms: N1_4  and  C4_7
REMARK    4  A    between atoms: C7_10  and  C8_11
REMARK    5  A    between atoms: C8_11  and  N2_12
REMARK    6  A    between atoms: C10_14  and  C11_15
REMARK    7  A    between atoms: C17_24  and  N4_25
REMARK    8  A    between atoms: C18_28  and  N5_29
REMARK    9  A    between atoms: C19_34  and  C20_35
ROOT
HETATM    1  C11 UNL     1      -9.398 -35.564  24.284  1.00  0.00     0.016 A
HETATM    2  C12 UNL     1     -10.548 -35.656  25.005  1.00  0.00     0.030 A
HETATM    3  C13 UNL     1     -11.467 -36.731  24.889  1.00  0.00     0.007 A
HETATM    4  C14 UNL     1     -12.650 -36.570  25.664  1.00  0.00     0.048 C
HETATM    5  C15 UNL     1     -13.205 -37.607  26.345  1.00  0.00     0.072 C
HETATM    6  C16 UNL     1     -14.556 -37.788  26.696  1.00  0.00     0.107 C
HETATM    7 CL1  UNL     1     -15.143 -39.409  26.927  1.00  0.00    -0.064 Cl
HETATM    8  N3  UNL     1     -15.485 -36.824  26.886  1.00  0.00    -0.330 N
ATOM      9  H3  UNL     1     -16.451 -37.131  26.994  1.00  0.00     0.168 HD
HETATM   10  C17 UNL     1     -15.255 -35.477  26.949  1.00  0.00     0.144 C
HETATM   11  C18 UNL     1     -14.139 -34.818  26.480  1.00  0.00     0.144 C
HETATM   12  N6  UNL     1     -13.108 -35.282  25.769  1.00  0.00    -0.339 N
ATOM     13  H6  UNL     1     -12.592 -34.584  25.233  1.00  0.00     0.167 HD
HETATM   14  C19 UNL     1     -11.182 -37.726  24.004  1.00  0.00     0.062 A
HETATM   15  C21 UNL     1      -9.996 -37.645  23.252  1.00  0.00     0.041 A
HETATM   16  C22 UNL     1      -9.129 -36.580  23.397  1.00  0.00     0.047 A
HETATM   17 CL2  UNL     1      -7.684 -36.581  22.411  1.00  0.00    -0.083 Cl
ENDROOT
BRANCH   1  18
HETATM   18  C10 UNL     1      -8.468 -34.451  24.418  1.00  0.00     0.078 A
HETATM   19  C9  UNL     1      -7.181 -34.415  23.926  1.00  0.00     0.143 A
HETATM   20  N2  UNL     1      -6.619 -33.214  24.244  1.00  0.00    -0.286 N
HETATM   21  N8  UNL     1      -7.562 -32.565  24.908  1.00  0.00    -0.240 N
HETATM   22  N7  UNL     1      -8.661 -33.285  25.019  1.00  0.00    -0.284 N
ATOM     23  H8  UNL     1      -7.453 -31.625  25.288  1.00  0.00     0.208 HD
ATOM     24  H7  UNL     1      -9.518 -32.993  25.489  1.00  0.00     0.188 HD
BRANCH  20  25
HETATM   25  C8  UNL     1      -5.288 -32.753  23.937  1.00  0.00     0.154 C
BRANCH  25  26
HETATM   26  C7  UNL     1      -4.294 -33.661  24.616  1.00  0.00     0.006 C
HETATM   27  C6  UNL     1      -2.986 -33.789  23.876  1.00  0.00     0.008 C
HETATM   28  C5  UNL     1      -2.180 -34.880  24.594  1.00  0.00     0.033 C
HETATM   29  C4  UNL     1      -1.833 -34.468  25.995  1.00  0.00     0.185 C
HETATM   30  C24 UNL     1      -3.169 -34.252  26.720  1.00  0.00     0.033 C
HETATM   31  C23 UNL     1      -3.985 -33.192  26.024  1.00  0.00     0.008 C
BRANCH  29  32
HETATM   32  N1  UNL     1      -1.133 -33.215  26.061  1.00  0.00    -0.071 N
ATOM     33  H12 UNL     1      -1.695 -32.516  26.548  1.00  0.00     0.277 HD
ATOM     34  H11 UNL     1      -1.083 -32.782  25.138  1.00  0.00     0.277 HD
BRANCH  32  35
HETATM   35  C3  UNL     1       0.172 -33.307  26.645  1.00  0.00     0.232 C
BRANCH  35  36
HETATM   36  C2  UNL     1       0.294 -32.499  27.937  1.00  0.00     0.023 C
HETATM   37  C1  UNL     1      -1.004 -31.774  28.221  1.00  0.00     0.007 C
ENDBRANCH  35  36
ENDBRANCH  32  35
ENDBRANCH  29  32
ENDBRANCH  25  26
ENDBRANCH  20  25
ENDBRANCH   1  18
BRANCH  14  38
HETATM   38  C20 UNL     1     -12.059 -38.864  23.751  1.00  0.00     0.418 C
HETATM   39  F1  UNL     1     -13.330 -38.518  23.296  1.00  0.00    -0.166 F
HETATM   40  F2  UNL     1     -12.110 -39.849  24.664  1.00  0.00    -0.166 F
HETATM   41  F3  UNL     1     -11.545 -39.516  22.559  1.00  0.00    -0.166 F
ENDBRANCH  14  38
BRANCH  11  42
HETATM   42  N5  UNL     1     -14.079 -33.565  26.762  1.00  0.00    -0.382 N
ATOM     43  H52 UNL     1     -13.842 -33.356  27.732  1.00  0.00     0.157 HD
ATOM     44  H51 UNL     1     -14.269 -32.932  25.986  1.00  0.00     0.157 HD
ENDBRANCH  11  42
BRANCH  10  45
HETATM   45  N4  UNL     1     -16.151 -34.737  27.492  1.00  0.00    -0.382 N
ATOM     46  H42 UNL     1     -17.045 -34.693  27.004  1.00  0.00     0.157 HD
ATOM     47  H41 UNL     1     -15.913 -34.252  28.357  1.00  0.00     0.157 HD
ENDBRANCH  10  45
TORSDOF 9
ENDMDL