MODEL 5
REMARK VINA RESULT: -7.175224014      1.175      1.368
REMARK  12 active torsions:
REMARK  status: ('A' for Active; 'I' for Inactive)
REMARK    1  A    between atoms: C2_2  and  C3_3
REMARK    2  A    between atoms: C3_3  and  C4_4
REMARK    3  A    between atoms: C4_4  and  C5_5
REMARK    4  A    between atoms: C5_5  and  N1_7
REMARK    5  A    between atoms: C5_5  and  C19_36
REMARK       I    between atoms: N1_7  and  C7_9
REMARK    6  A    between atoms: C7_9  and  C8_11
REMARK    7  A    between atoms: C14_20  and  C15_21
REMARK    8  A    between atoms: C15_21  and  O2_22
REMARK    9  A    between atoms: C15_21  and  C16_24
REMARK   10  A    between atoms: C17_28  and  O3_29
REMARK   11  A    between atoms: C18_32  and  N4_33
REMARK   12  A    between atoms: C21_39  and  C22_40
ROOT
HETATM    1  C19 UNL     1     -12.053 -37.397  24.455  1.00  0.00     0.047 C
HETATM    2  C20 UNL     1     -12.792 -38.379  23.670  1.00  0.00     0.097 C
HETATM    3  N5  UNL     1     -13.364 -39.177  23.042  1.00  0.00    -0.192 NA
HETATM    4  C21 UNL     1     -12.647 -36.355  24.960  1.00  0.00     0.002 C
ENDROOT
BRANCH   1   5
HETATM    5  C5  UNL     1     -10.618 -37.711  24.661  1.00  0.00     0.066 C
HETATM    6  C6  UNL     1     -10.104 -36.561  25.587  1.00  0.00     0.044 C
BRANCH   5   7
HETATM    7  C4  UNL     1      -9.773 -37.580  23.432  1.00  0.00     0.036 C
BRANCH   7   8
HETATM    8  C3  UNL     1      -8.910 -36.351  23.467  1.00  0.00     0.002 C
BRANCH   8   9
HETATM    9  C2  UNL     1      -8.003 -36.369  22.228  1.00  0.00    -0.004 C
HETATM   10  C1  UNL     1      -7.186 -35.101  22.212  1.00  0.00     0.005 C
ENDBRANCH   8   9
ENDBRANCH   7   8
ENDBRANCH   5   7
BRANCH   5  11
HETATM   11  N1  UNL     1     -10.465 -38.968  25.317  1.00  0.00    -0.342 N
HETATM   12  C7  UNL     1     -10.850 -39.253  26.635  1.00  0.00     0.273 C
HETATM   13  O1  UNL     1     -11.393 -38.372  27.380  1.00  0.00    -0.266 OA
ATOM     14  H1  UNL     1     -10.038 -39.724  24.781  1.00  0.00     0.164 HD
BRANCH  12  15
HETATM   15  C8  UNL     1     -10.665 -40.557  27.251  1.00  0.00     0.145 C
HETATM   16  N2  UNL     1     -11.108 -41.647  26.557  1.00  0.00    -0.352 N
HETATM   17  C9  UNL     1     -11.043 -42.973  26.876  1.00  0.00     0.008 C
ATOM     18  H2  UNL     1     -11.556 -41.439  25.664  1.00  0.00     0.166 HD
HETATM   19  C10 UNL     1     -11.346 -43.892  25.757  1.00  0.00     0.068 C
HETATM   20  C11 UNL     1     -10.732 -43.516  28.102  1.00  0.00     0.056 C
HETATM   21  C12 UNL     1     -10.581 -42.814  29.302  1.00  0.00     0.067 A
HETATM   22  C13 UNL     1     -10.738 -43.350  30.537  1.00  0.00     0.074 A
HETATM   23  N3  UNL     1     -10.282 -41.520  29.490  1.00  0.00    -0.274 N
HETATM   24 CL1  UNL     1     -11.136 -45.026  30.871  1.00  0.00    -0.081 Cl
HETATM   25  C14 UNL     1     -10.530 -42.351  31.522  1.00  0.00     0.054 A
HETATM   26  C17 UNL     1     -10.246 -41.213  30.810  1.00  0.00     0.159 A
HETATM   27  C18 UNL     1     -10.044 -40.608  28.512  1.00  0.00     0.141 C
BRANCH  25  28
HETATM   28  C15 UNL     1     -10.653 -42.652  32.939  1.00  0.00     0.264 C
BRANCH  28  29
HETATM   29  O2  UNL     1      -9.938 -43.864  33.168  1.00  0.00    -0.382 OA
ATOM     30  H2  UNL     1      -9.013 -43.648  33.140  1.00  0.00     0.210 HD
ENDBRANCH  28  29
BRANCH  28  31
HETATM   31  C16 UNL     1     -12.015 -42.878  33.488  1.00  0.00     0.417 C
HETATM   32  F1  UNL     1     -12.218 -42.003  34.595  1.00  0.00    -0.168 F
HETATM   33  F2  UNL     1     -12.242 -44.132  33.986  1.00  0.00    -0.168 F
HETATM   34  F3  UNL     1     -13.032 -42.495  32.601  1.00  0.00    -0.168 F
ENDBRANCH  28  31
ENDBRANCH  25  28
BRANCH  26  35
HETATM   35  O3  UNL     1      -9.970 -39.962  31.301  1.00  0.00    -0.345 OA
ATOM     36  H3  UNL     1      -9.397 -39.304  30.926  1.00  0.00     0.219 HD
ENDBRANCH  26  35
BRANCH  27  37
HETATM   37  N4  UNL     1      -9.200 -39.690  28.680  1.00  0.00    -0.383 N
ATOM     38  H42 UNL     1      -8.216 -39.835  28.449  1.00  0.00     0.157 HD
ATOM     39  H41 UNL     1      -9.612 -38.836  29.056  1.00  0.00     0.157 HD
ENDBRANCH  27  37
ENDBRANCH  12  15
ENDBRANCH   5  11
ENDBRANCH   1   5
BRANCH   4  40
HETATM   40  C22 UNL     1     -14.089 -36.052  24.741  1.00  0.00    -0.032 C
HETATM   41  C23 UNL     1     -14.903 -37.119  25.435  1.00  0.00     0.018 C
HETATM   42  C24 UNL     1     -14.417 -34.727  25.388  1.00  0.00     0.018 C
HETATM   43  C25 UNL     1     -14.428 -35.927  23.280  1.00  0.00     0.018 C
ENDBRANCH   4  40
TORSDOF 12
ENDMDL