MODEL 5
REMARK VINA RESULT: -10.281260322      1.371      1.947
REMARK  10 active torsions:
REMARK  status: ('A' for Active; 'I' for Inactive)
REMARK    1  A    between atoms: N1_1  and  C1_4
REMARK    2  A    between atoms: C2_7  and  C3_8
REMARK    3  A    between atoms: C4_9  and  O1_10
REMARK    4  A    between atoms: C5_12  and  C6_13
REMARK    5  A    between atoms: C16_26  and  C17_27
REMARK    6  A    between atoms: C17_27  and  C18_28
REMARK    7  A    between atoms: C18_28  and  C19_29
REMARK    8  A    between atoms: C19_29  and  C20_30
REMARK    9  A    between atoms: C20_30  and  C21_31
REMARK   10  A    between atoms: C21_31  and  C22_34
ROOT
HETATM    1  C1  UNL     1     -11.228 -37.266  21.932  1.00  0.00     0.676 A
HETATM    2  N2  UNL     1     -11.741 -37.740  23.093  1.00  0.00    -0.190 N
ATOM      3  H2  UNL     1     -12.591 -38.303  23.130  1.00  0.00     0.184 HD
HETATM    4  C2  UNL     1     -11.039 -37.410  24.194  1.00  0.00     0.082 A
HETATM    5  C13 UNL     1      -9.875 -36.634  24.102  1.00  0.00     0.063 A
HETATM    6  S1  UNL     1      -8.763 -36.037  25.244  1.00  0.00    -0.083 SA
HETATM    7  C14 UNL     1      -7.699 -35.212  24.186  1.00  0.00     0.035 A
HETATM    8  C15 UNL     1      -6.524 -34.462  24.383  1.00  0.00     0.029 A
HETATM    9  C16 UNL     1      -5.877 -33.907  23.299  1.00  0.00    -0.041 A
HETATM   10  C23 UNL     1      -6.460 -34.148  22.088  1.00  0.00     0.095 A
HETATM   11  N3  UNL     1      -7.565 -34.852  21.904  1.00  0.00    -0.362 N
ATOM     12  H3  UNL     1      -7.920 -34.972  20.956  1.00  0.00     0.165 HD
HETATM   13  C24 UNL     1      -8.254 -35.431  22.956  1.00  0.00     0.078 A
HETATM   14  C25 UNL     1      -9.393 -36.175  22.918  1.00  0.00     0.096 A
HETATM   15  N4  UNL     1     -10.137 -36.535  21.821  1.00  0.00    -0.188 N
ATOM     16  H4  UNL     1      -9.837 -36.229  20.895  1.00  0.00     0.184 HD
ENDROOT
BRANCH   4  17
HETATM   17  C3  UNL     1     -11.411 -37.814  25.541  1.00  0.00     0.034 A
HETATM   18  C4  UNL     1     -10.692 -38.822  26.145  1.00  0.00     0.095 A
HETATM   19  C5  UNL     1     -10.975 -39.266  27.418  1.00  0.00     0.075 A
HETATM   20  C7  UNL     1     -12.028 -38.654  28.087  1.00  0.00     0.029 A
HETATM   21  C8  UNL     1     -12.758 -37.644  27.499  1.00  0.00    -0.050 A
HETATM   22  C9  UNL     1     -12.451 -37.210  26.205  1.00  0.00    -0.036 A
HETATM   23  C12 UNL     1     -13.896 -36.843  27.972  1.00  0.00     0.039 C
HETATM   24  C10 UNL     1     -13.360 -36.134  25.801  1.00  0.00     0.040 C
HETATM   25  C11 UNL     1     -13.818 -35.591  27.156  1.00  0.00     0.009 C
BRANCH  18  26
HETATM   26  O1  UNL     1      -9.632 -39.417  25.433  1.00  0.00    -0.359 OA
ATOM     27  H1  UNL     1      -8.761 -39.048  25.520  1.00  0.00     0.217 HD
ENDBRANCH  18  26
BRANCH  19  28
HETATM   28  C6  UNL     1     -10.190 -40.324  27.998  1.00  0.00     0.212 C
HETATM   29  O2  UNL     1      -9.763 -40.221  29.173  1.00  0.00    -0.644 OA
HETATM   30  O3  UNL     1      -9.879 -41.475  27.293  1.00  0.00    -0.644 OA
ENDBRANCH  19  28
ENDBRANCH   4  17
BRANCH   1  31
HETATM   31  N1  UNL     1     -11.895 -37.578  20.860  1.00  0.00    -0.234 N
ATOM     32  H12 UNL     1     -12.513 -38.388  20.877  1.00  0.00     0.174 HD
ATOM     33  H11 UNL     1     -11.743 -36.966  20.058  1.00  0.00     0.174 HD
ENDBRANCH   1  31
BRANCH   9  34
HETATM   34  C17 UNL     1      -4.638 -33.119  23.522  1.00  0.00     0.040 C
BRANCH  34  35
HETATM   35  C18 UNL     1      -3.801 -33.167  22.280  1.00  0.00     0.005 C
BRANCH  35  36
HETATM   36  C19 UNL     1      -2.647 -34.151  22.354  1.00  0.00     0.007 C
BRANCH  36  37
HETATM   37  C20 UNL     1      -2.654 -34.796  23.699  1.00  0.00     0.089 C
BRANCH  37  38
HETATM   38  C21 UNL     1      -1.364 -35.180  24.310  1.00  0.00     0.339 C
HETATM   39  F1  UNL     1      -1.378 -36.564  24.489  1.00  0.00    -0.196 F
HETATM   40  F2  UNL     1      -0.366 -34.852  23.372  1.00  0.00    -0.196 F
BRANCH  38  41
HETATM   41  C22 UNL     1      -1.054 -34.467  25.564  1.00  0.00     0.454 C
HETATM   42  F3  UNL     1      -1.314 -33.128  25.479  1.00  0.00    -0.165 F
HETATM   43  F4  UNL     1       0.269 -34.637  25.959  1.00  0.00    -0.165 F
HETATM   44  F5  UNL     1      -1.869 -34.995  26.580  1.00  0.00    -0.165 F
ENDBRANCH  38  41
ENDBRANCH  37  38
ENDBRANCH  36  37
ENDBRANCH  35  36
ENDBRANCH  34  35
ENDBRANCH   9  34
TORSDOF 10
ENDMDL