MODEL 1
REMARK VINA RESULT: -5.333134542      0.000      0.000
REMARK  5 active torsions:
REMARK  status: ('A' for Active; 'I' for Inactive)
REMARK    1  A    between atoms: C2_2  and  C3_3
REMARK    2  A    between atoms: C3_3  and  S1_4
REMARK    3  A    between atoms: S1_4  and  C4_5
REMARK    4  A    between atoms: C4_5  and  N3_10
REMARK    5  A    between atoms: N3_10  and  C6_12
ROOT
HETATM    1  C4  UNL     1       7.385  10.172   2.355  1.00  0.00     0.149 C
HETATM    2  N1  UNL     1       7.865  10.541   1.230  1.00  0.00    -0.274 N
ATOM      3  H1  UNL     1       7.344  11.215   0.668  1.00  0.00     0.180 HD
HETATM    4  C5  UNL     1       9.078  10.051   0.743  1.00  0.00     0.183 C
HETATM    5  N2  UNL     1      10.093   9.648   0.337  1.00  0.00    -0.172 NA
ENDROOT
BRANCH   1   6
HETATM    6  S1  UNL     1       5.824  10.864   2.877  1.00  0.00    -0.093 SA
BRANCH   6   7
HETATM    7  C3  UNL     1       5.808  11.198   4.646  1.00  0.00     0.082 C
BRANCH   7   8
HETATM    8  C2  UNL     1       4.537  10.737   5.323  1.00  0.00     0.006 C
HETATM    9  C1  UNL     1       3.483  10.587   4.263  1.00  0.00     0.006 C
ENDBRANCH   7   8
ENDBRANCH   6   7
ENDBRANCH   1   6
BRANCH   1  10
HETATM   10  N3  UNL     1       8.005   9.245   3.234  1.00  0.00    -0.362 N
ATOM     11  H3  UNL     1       7.711   8.271   3.175  1.00  0.00     0.162 HD
BRANCH  10  12
HETATM   12  C6  UNL     1       9.005   9.574   4.191  1.00  0.00     0.021 C
HETATM   13  C7  UNL     1       8.571   9.165   5.574  1.00  0.00     0.037 C
HETATM   14  C8  UNL     1      10.279   8.800   3.839  1.00  0.00     0.037 C
HETATM   15  C9  UNL     1       9.345  11.042   4.237  1.00  0.00     0.037 C
ENDBRANCH  10  12
ENDBRANCH   1  10
TORSDOF 5
ENDMDL