MODEL 1
REMARK VINA RESULT: -5.870049823      0.000      0.000
REMARK  3 active torsions:
REMARK  status: ('A' for Active; 'I' for Inactive)
REMARK    1  A    between atoms: C6_6  and  C7_7
REMARK    2  A    between atoms: C7_7  and  O1_10
REMARK    3  A    between atoms: O1_10  and  C10_11
ROOT
HETATM    1  C7  UNL     1       9.652  10.046   2.572  1.00  0.00     0.069 C
HETATM    2  C8  UNL     1      10.293   8.734   2.262  1.00  0.00     0.047 C
HETATM    3  C9  UNL     1      10.675  10.948   3.160  1.00  0.00     0.047 C
ENDROOT
BRANCH   1   4
HETATM    4  C6  UNL     1       8.474   9.949   3.508  1.00  0.00     0.024 C
HETATM    5  C2  UNL     1       8.618  10.491   4.858  1.00  0.00    -0.012 C
HETATM    6  C1  UNL     1       8.788   9.379   5.871  1.00  0.00     0.010 C
HETATM    7  C3  UNL     1       7.257  11.110   5.200  1.00  0.00     0.005 C
HETATM    8  C4  UNL     1       6.314  10.575   4.146  1.00  0.00     0.001 C
HETATM    9  C5  UNL     1       7.251  10.623   2.930  1.00  0.00     0.008 C
ENDBRANCH   1   4
BRANCH   1  10
HETATM   10  O1  UNL     1       9.090  10.523   1.361  1.00  0.00    -0.295 OA
BRANCH  10  11
HETATM   11  C10 UNL     1       9.584  10.347   0.106  1.00  0.00     0.373 C
HETATM   12  N1  UNL     1      10.783  10.936  -0.384  1.00  0.00    -0.032 NA
HETATM   13  O2  UNL     1       8.914   9.610  -0.653  1.00  0.00    -0.242 OA
ENDBRANCH  10  11
ENDBRANCH   1  10
TORSDOF 3
ENDMDL