MODEL 5
REMARK VINA RESULT: -5.380254426      2.819      4.122
REMARK  3 active torsions:
REMARK  status: ('A' for Active; 'I' for Inactive)
REMARK    1  A    between atoms: C2_2  and  C4_4
REMARK    2  A    between atoms: C6_6  and  N1_7
REMARK    3  A    between atoms: N2_9  and  N3_11
ROOT
HETATM    1  N1  UNL     1       7.958   9.917   2.826  1.00  0.00    -0.297 N
ATOM      2  H1  UNL     1       7.828  10.073   1.827  1.00  0.00     0.187 HD
HETATM    3  N2  UNL     1       9.046   9.423   3.261  1.00  0.00    -0.245 N
ATOM      4  H2  UNL     1       9.161   9.272   4.263  1.00  0.00     0.208 HD
ENDROOT
BRANCH   1   5
HETATM    5  C6  UNL     1       6.937  10.246   3.733  1.00  0.00     0.115 C
HETATM    6  C4  UNL     1       5.774  10.681   3.333  1.00  0.00    -0.040 C
HETATM    7  C5  UNL     1       4.752  11.002   4.417  1.00  0.00     0.050 C
BRANCH   6   8
HETATM    8  C2  UNL     1       5.404  10.872   1.957  1.00  0.00    -0.064 C
HETATM    9  C1  UNL     1       4.342  10.188   1.497  1.00  0.00     0.019 C
HETATM   10  C3  UNL     1       6.122  11.765   1.044  1.00  0.00     0.048 C
ENDBRANCH   6   8
ENDBRANCH   1   5
BRANCH   3  11
HETATM   11  N3  UNL     1      10.077   9.086   2.400  1.00  0.00    -0.310 N
HETATM   12  C7  UNL     1      10.199   9.614   1.067  1.00  0.00     0.170 C
HETATM   13  C8  UNL     1      11.486  10.399   0.995  1.00  0.00     0.189 C
HETATM   14  O1  UNL     1      12.442   9.829   1.817  1.00  0.00    -0.388 OA
HETATM   15  C9  UNL     1      12.317   8.461   1.980  1.00  0.00     0.189 C
HETATM   16  C10 UNL     1      11.090   8.161   2.847  1.00  0.00     0.170 C
ENDBRANCH   3  11
TORSDOF 3
ENDMDL