MODEL 5
REMARK VINA RESULT: -5.426108127      2.046      3.408
REMARK  3 active torsions:
REMARK  status: ('A' for Active; 'I' for Inactive)
REMARK    1  A    between atoms: C2_2  and  C4_4
REMARK    2  A    between atoms: C7_7  and  O1_8
REMARK    3  A    between atoms: O1_8  and  C8_9
ROOT
HETATM    1  C4  UNL     1       6.789  10.163   2.696  1.00  0.00    -0.009 C
HETATM    2  C5  UNL     1       6.118  11.057   3.707  1.00  0.00     0.007 C
HETATM    3  C6  UNL     1       6.412  10.373   5.009  1.00  0.00     0.033 C
HETATM    4  C7  UNL     1       7.834   9.931   4.845  1.00  0.00     0.133 C
HETATM    5  C9  UNL     1       7.785   9.318   3.442  1.00  0.00     0.037 C
ENDROOT
BRANCH   4   6
HETATM    6  O1  UNL     1       8.765  10.954   4.826  1.00  0.00    -0.307 OA
BRANCH   6   7
HETATM    7  C8  UNL     1      10.109  10.659   4.772  1.00  0.00     0.333 C
HETATM    8  O2  UNL     1      10.584   9.998   5.719  1.00  0.00    -0.251 OA
HETATM    9  S1  UNL     1      11.210  11.146   3.460  1.00  0.00     0.022 SA
ENDBRANCH   6   7
ENDBRANCH   4   6
BRANCH   1  10
HETATM   10  C2  UNL     1       7.453  11.052   1.665  1.00  0.00    -0.019 C
HETATM   11  C1  UNL     1       8.550  10.323   0.921  1.00  0.00     0.010 C
HETATM   12  C3  UNL     1       6.393  11.453   0.655  1.00  0.00     0.010 C
ENDBRANCH   1  10
TORSDOF 3
ENDMDL