MODEL 1
REMARK VINA RESULT: -5.714273967      0.000      0.000
REMARK  2 active torsions:
REMARK  status: ('A' for Active; 'I' for Inactive)
REMARK    1  A    between atoms: O1_2  and  N1_3
REMARK    2  A    between atoms: N1_3  and  C2_4
ROOT
HETATM    1  C2  UNL     1       7.588   9.493   3.158  1.00  0.00     0.141 C
HETATM    2  C3  UNL     1       6.912  10.039   4.387  1.00  0.00     0.027 C
HETATM    3  C4  UNL     1       7.619  11.351   4.757  1.00  0.00     0.002 C
HETATM    4  C5  UNL     1       8.980  10.900   5.246  1.00  0.00     0.003 C
HETATM    5  C6  UNL     1       9.743  10.500   3.992  1.00  0.00     0.040 C
HETATM    6  C7  UNL     1       9.053   9.442   3.204  1.00  0.00     0.080 C
HETATM    7  C8  UNL     1       9.547   8.087   3.723  1.00  0.00     0.042 C
HETATM    8  C9  UNL     1      10.935   8.015   3.135  1.00  0.00     0.029 C
HETATM    9  C10 UNL     1      10.916   9.112   2.104  1.00  0.00     0.169 C
HETATM   10  O2  UNL     1       9.573   9.430   1.915  1.00  0.00    -0.378 OA
ENDROOT
BRANCH   1  11
HETATM   11  N1  UNL     1       7.053  10.241   2.038  1.00  0.00    -0.094 NA
BRANCH  11  12
HETATM   12  O1  UNL     1       5.809   9.914   1.696  1.00  0.00    -0.291 OA
HETATM   13  C1  UNL     1       5.162  11.107   1.303  1.00  0.00     0.231 C
ENDBRANCH  11  12
ENDBRANCH   1  11
TORSDOF 2
ENDMDL