MODEL 4
REMARK VINA RESULT: -5.600764462      1.547      2.297
REMARK  2 active torsions:
REMARK  status: ('A' for Active; 'I' for Inactive)
REMARK    1  A    between atoms: C2_2  and  C3_3
REMARK    2  A    between atoms: C3_3  and  S1_4
ROOT
HETATM    1  S1  UNL     1      11.912   9.448   3.226  1.00  0.00    -0.048 SA
HETATM    2  C4  UNL     1      12.181  11.190   3.131  1.00  0.00     0.133 C
HETATM    3  N1  UNL     1      12.369  12.324   3.076  1.00  0.00    -0.184 NA
ENDROOT
BRANCH   1   4
HETATM    4  C3  UNL     1      10.304   9.114   4.000  1.00  0.00     0.129 C
BRANCH   4   5
HETATM    5  C2  UNL     1       9.204   9.568   3.092  1.00  0.00     0.137 C
HETATM    6  C1  UNL     1       9.650   9.419   1.647  1.00  0.00     0.048 C
HETATM    7  N2  UNL     1       7.900   8.993   3.368  1.00  0.00    -0.061 N
HETATM    8  C5  UNL     1       7.331  10.241   2.950  1.00  0.00     0.193 C
ATOM      9  H22 UNL     1       7.611   8.112   2.941  1.00  0.00     0.278 HD
ATOM     10  H21 UNL     1       7.683   8.594   4.281  1.00  0.00     0.278 HD
HETATM   11  C6  UNL     1       6.115  10.708   3.662  1.00  0.00     0.033 C
HETATM   12  C10 UNL     1       8.604  10.909   3.343  1.00  0.00     0.053 C
HETATM   13  C7  UNL     1       6.262  10.943   5.113  1.00  0.00     0.002 C
HETATM   14  C8  UNL     1       7.644  10.769   5.655  1.00  0.00     0.001 C
HETATM   15  C9  UNL     1       8.622  11.434   4.735  1.00  0.00     0.009 C
ENDBRANCH   4   5
ENDBRANCH   1   4
TORSDOF 2
ENDMDL