MODEL 2
REMARK VINA RESULT: -4.535714029      1.811      2.381
REMARK  3 active torsions:
REMARK  status: ('A' for Active; 'I' for Inactive)
REMARK    1  A    between atoms: C2_2  and  C4_4
REMARK    2  A    between atoms: C4_4  and  O1_5
REMARK    3  A    between atoms: C4_4  and  C5_7
ROOT
HETATM    1  C4  UNL     1       7.267  10.593   3.020  1.00  0.00     0.127 C
ENDROOT
BRANCH   1   2
HETATM    2  C2  UNL     1       6.745  10.388   4.444  1.00  0.00     0.006 C
HETATM    3  C1  UNL     1       7.511  11.273   5.404  1.00  0.00     0.012 C
HETATM    4  C3  UNL     1       5.305  10.857   4.482  1.00  0.00     0.012 C
ENDBRANCH   1   2
BRANCH   1   5
HETATM    5  O1  UNL     1       6.486   9.939   2.097  1.00  0.00    -0.395 OA
ATOM      6  H1  UNL     1       6.925   9.865   1.258  1.00  0.00     0.210 HD
ENDBRANCH   1   5
BRANCH   1   7
HETATM    7  C5  UNL     1       8.703  10.139   2.900  1.00  0.00     0.035 C
HETATM    8  C6  UNL     1       9.009  10.059   1.412  1.00  0.00     0.094 C
HETATM    9  S1  UNL     1      10.796   9.603   1.390  1.00  0.00    -0.097 SA
HETATM   10  S2  UNL     1      10.690   8.466   3.233  1.00  0.00    -0.097 SA
HETATM   11  C7  UNL     1       8.884   8.747   3.465  1.00  0.00     0.094 C
ENDBRANCH   1   7
TORSDOF 3
ENDMDL