MODEL 5
REMARK VINA RESULT: -6.042713316      3.810      4.621
REMARK  3 active torsions:
REMARK  status: ('A' for Active; 'I' for Inactive)
REMARK    1  A    between atoms: N2_4  and  O1_5
REMARK    2  A    between atoms: N2_4  and  O2_7
REMARK    3  A    between atoms: O2_7  and  C1_8
ROOT
HETATM    1  C1  UNL     1       9.521   9.451   2.916  1.00  0.00     0.094 C
HETATM    2  C2  UNL     1       8.242  10.251   2.641  1.00  0.00     0.045 C
HETATM    3  C3  UNL     1       7.649  10.781   3.910  1.00  0.00    -0.011 C
HETATM    4  C4  UNL     1       7.286   9.568   4.772  1.00  0.00     0.009 C
HETATM    5  C5  UNL     1       8.526   8.802   5.085  1.00  0.00    -0.011 C
HETATM    6  C6  UNL     1       9.532   9.650   5.817  1.00  0.00     0.009 C
HETATM    7  C7  UNL     1       9.867  10.826   4.928  1.00  0.00    -0.011 C
HETATM    8  C8  UNL     1       8.612  11.611   4.708  1.00  0.00     0.009 C
HETATM    9  C9  UNL     1      10.494  10.338   3.647  1.00  0.00     0.045 C
HETATM   10  C10 UNL     1       9.209   8.275   3.833  1.00  0.00     0.045 C
ENDROOT
BRANCH   1  11
HETATM   11  O2  UNL     1       9.983   8.980   1.701  1.00  0.00    -0.228 OA
BRANCH  11  12
HETATM   12  N2  UNL     1       9.994   9.635   0.512  1.00  0.00    -0.061 N
HETATM   13  N1  UNL     1      10.994  10.351   0.250  1.00  0.00    -0.298 N
ATOM     14  H12 UNL     1      11.002  10.843  -0.644  1.00  0.00     0.181 HD
ATOM     15  H11 UNL     1      11.743  10.406   0.940  1.00  0.00     0.181 HD
BRANCH  12  16
HETATM   16  O1  UNL     1       8.988   9.561  -0.415  1.00  0.00    -0.248 OA
ATOM     17  H1  UNL     1       8.125   9.874  -0.168  1.00  0.00     0.249 HD
ENDBRANCH  12  16
ENDBRANCH  11  12
ENDBRANCH   1  11
TORSDOF 3
ENDMDL