MODEL 2
REMARK VINA RESULT: -6.211000575      1.635      2.754
REMARK  2 active torsions:
REMARK  status: ('A' for Active; 'I' for Inactive)
REMARK    1  A    between atoms: N1_2  and  C2_3
REMARK    2  A    between atoms: N1_2  and  C4_6
ROOT
HETATM    1  C2  UNL     1      11.545  10.714   2.994  1.00  0.00     0.395 C
HETATM    2  C3  UNL     1      12.935  10.200   3.110  1.00  0.00     0.089 C
HETATM    3  N2  UNL     1      14.013   9.796   3.222  1.00  0.00    -0.195 NA
ENDROOT
BRANCH   1   4
HETATM    4  N1  UNL     1      10.771  10.013   3.942  1.00  0.00     0.105 N
HETATM    5  C1  UNL     1      11.026  10.274   5.318  1.00  0.00     0.312 C
BRANCH   4   6
HETATM    6  C4  UNL     1       9.309   9.987   3.633  1.00  0.00     0.246 C
HETATM    7  C5  UNL     1       9.222  10.785   2.417  1.00  0.00     0.040 C
HETATM    8  C6  UNL     1       8.035  10.474   1.440  1.00  0.00     0.002 C
HETATM    9  C7  UNL     1       6.950  10.341   2.335  1.00  0.00     0.000 C
HETATM   10  C8  UNL     1       5.557  10.221   2.580  1.00  0.00     0.004 C
HETATM   11  C9  UNL     1       5.526  10.122   4.146  1.00  0.00     0.027 C
HETATM   12  C10 UNL     1       6.249  11.178   4.855  1.00  0.00    -0.027 C
HETATM   13  C11 UNL     1       7.647  11.134   5.285  1.00  0.00    -0.006 C
HETATM   14  C12 UNL     1       8.607  10.099   4.885  1.00  0.00     0.008 C
ENDBRANCH   4   6
ENDBRANCH   1   4
TORSDOF 2
ENDMDL