MODEL 5
REMARK VINA RESULT: -5.681839654      6.585      8.270
REMARK  2 active torsions:
REMARK  status: ('A' for Active; 'I' for Inactive)
REMARK    1  A    between atoms: O1_2  and  C2_3
REMARK    2  A    between atoms: C11_12  and  O2_13
ROOT
HETATM    1  C2  UNL     1       8.765   9.261   3.818  1.00  0.00     0.121 C
HETATM    2  C3  UNL     1       8.441  10.178   4.957  1.00  0.00     0.032 C
HETATM    3  C4  UNL     1       9.389  11.368   5.042  1.00  0.00     0.003 C
HETATM    4  C5  UNL     1      10.725  10.765   5.285  1.00  0.00     0.012 C
HETATM    5  C6  UNL     1      11.176  10.041   4.046  1.00  0.00    -0.012 C
HETATM    6  C7  UNL     1      11.393  11.057   2.964  1.00  0.00     0.012 C
HETATM    7  C8  UNL     1      12.386  12.116   3.309  1.00  0.00     0.001 C
HETATM    8  C9  UNL     1      13.677  11.562   3.830  1.00  0.00     0.002 C
HETATM    9  C10 UNL     1      13.662  10.063   3.683  1.00  0.00     0.032 C
HETATM   10  C11 UNL     1      12.513   9.406   4.389  1.00  0.00     0.126 C
HETATM   11  C12 UNL     1      10.192   9.025   3.550  1.00  0.00     0.044 C
ENDROOT
BRANCH  10  12
HETATM   12  O2  UNL     1      12.710   9.328   5.765  1.00  0.00    -0.395 OA
ATOM     13  H2  UNL     1      12.115   8.707   6.171  1.00  0.00     0.210 HD
ENDBRANCH  10  12
BRANCH   1  14
HETATM   14  O1  UNL     1       8.102   9.551   2.651  1.00  0.00    -0.391 OA
HETATM   15  C1  UNL     1       6.793   9.873   2.726  1.00  0.00     0.202 C
ENDBRANCH   1  14
TORSDOF 2
ENDMDL