MODEL 1
REMARK VINA RESULT: -6.619422103      0.000      0.000
REMARK  2 active torsions:
REMARK  status: ('A' for Active; 'I' for Inactive)
REMARK    1  A    between atoms: C3_4  and  O1_5
REMARK    2  A    between atoms: C6_9  and  C7_10
ROOT
HETATM    1  N1  UNL     1       8.031  11.273   0.731  1.00  0.00    -0.197 NA
HETATM    2  C1  UNL     1       8.283  10.535   1.594  1.00  0.00     0.067 C
HETATM    3  C2  UNL     1       8.612   9.611   2.647  1.00  0.00     0.126 C
HETATM    4  C3  UNL     1       9.751  10.141   3.505  1.00  0.00     0.136 C
HETATM    5  C4  UNL     1       9.441   9.723   4.914  1.00  0.00     0.033 C
HETATM    6  C5  UNL     1       7.990   9.300   4.958  1.00  0.00     0.009 C
HETATM    7  C6  UNL     1       7.469   9.354   3.538  1.00  0.00     0.010 C
ENDROOT
BRANCH   4   8
HETATM    8  O1  UNL     1      10.982   9.598   3.131  1.00  0.00    -0.394 OA
ATOM      9  H1  UNL     1      11.610   9.619   3.843  1.00  0.00     0.210 HD
ENDBRANCH   4   8
BRANCH   7  10
HETATM   10  C7  UNL     1       6.278  10.258   3.422  1.00  0.00    -0.009 C
HETATM   11  C8  UNL     1       5.636  10.682   4.674  1.00  0.00     0.005 C
HETATM   12  C9  UNL     1       4.270  10.149   4.945  1.00  0.00     0.000 C
HETATM   13  C10 UNL     1       3.382  10.021   3.767  1.00  0.00     0.000 C
HETATM   14  C11 UNL     1       4.040  10.398   2.460  1.00  0.00     0.000 C
HETATM   15  C12 UNL     1       5.341   9.625   2.415  1.00  0.00     0.005 C
ENDBRANCH   7  10
TORSDOF 2
ENDMDL