MODEL 2
REMARK VINA RESULT: -6.578095563      1.175      2.190
REMARK  2 active torsions:
REMARK  status: ('A' for Active; 'I' for Inactive)
REMARK    1  A    between atoms: C2_2  and  C3_3
REMARK    2  A    between atoms: C6_6  and  O1_7
ROOT
HETATM    1  C3  UNL     1       6.248  10.725   3.610  1.00  0.00     0.020 C
HETATM    2  C4  UNL     1       5.355  10.713   4.810  1.00  0.00     0.010 C
HETATM    3  C5  UNL     1       4.033  10.047   4.584  1.00  0.00     0.032 C
HETATM    4  C6  UNL     1       3.364  10.400   3.301  1.00  0.00     0.118 C
HETATM    5  C7  UNL     1       4.319  10.662   2.166  1.00  0.00     0.032 C
HETATM    6  C8  UNL     1       5.607   9.910   2.506  1.00  0.00     0.010 C
ENDROOT
BRANCH   1   7
HETATM    7  C2  UNL     1       7.648  10.262   3.903  1.00  0.00     0.061 C
HETATM    8  C1  UNL     1       8.149  11.067   5.093  1.00  0.00     0.046 C
HETATM    9  C9  UNL     1       8.598  10.506   2.769  1.00  0.00     0.040 C
HETATM   10  C10 UNL     1       9.753   9.571   3.151  1.00  0.00     0.029 C
HETATM   11  C11 UNL     1       9.032   8.519   3.938  1.00  0.00     0.168 C
HETATM   12  O2  UNL     1       7.727   8.907   4.093  1.00  0.00    -0.380 OA
ENDBRANCH   1   7
BRANCH   4  13
HETATM   13  O1  UNL     1       2.562   9.315   2.912  1.00  0.00    -0.396 OA
ATOM     14  H1  UNL     1       3.133   8.609   2.631  1.00  0.00     0.210 HD
ENDBRANCH   4  13
TORSDOF 2
ENDMDL