MODEL 1
REMARK VINA RESULT: -5.776602405      0.000      0.000
REMARK  2 active torsions:
REMARK  status: ('A' for Active; 'I' for Inactive)
REMARK    1  A    between atoms: C2_2  and  C3_4
REMARK    2  A    between atoms: C8_9  and  O2_10
ROOT
HETATM    1  C3  UNL     1      15.353  12.884  -1.998  1.00  0.00     0.059 C
HETATM    2  C4  UNL     1      13.852  12.973  -2.356  1.00  0.00     0.013 C
HETATM    3  C5  UNL     1      13.743  12.055  -3.553  1.00  0.00     0.001 C
HETATM    4  C6  UNL     1      13.785  10.668  -2.966  1.00  0.00     0.007 C
HETATM    5  C7  UNL     1      14.986  10.375  -2.150  1.00  0.00     0.019 C
HETATM    6  C8  UNL     1      14.507   9.514  -0.988  1.00  0.00     0.122 C
HETATM    7  C9  UNL     1      15.645   9.011  -0.145  1.00  0.00     0.032 C
HETATM    8  C10 UNL     1      16.901   9.832  -0.352  1.00  0.00     0.003 C
HETATM    9  C11 UNL     1      16.408  11.298  -0.335  1.00  0.00     0.006 C
HETATM   10  C12 UNL     1      15.842  11.533  -1.727  1.00  0.00     0.003 C
ENDROOT
BRANCH   1  11
HETATM   11  C2  UNL     1      15.570  13.955  -1.038  1.00  0.00     0.127 C
HETATM   12  C1  UNL     1      14.516  14.275  -0.037  1.00  0.00     0.091 C
HETATM   13  O1  UNL     1      16.571  14.609  -1.005  1.00  0.00    -0.298 OA
ENDBRANCH   1  11
BRANCH   6  14
HETATM   14  O2  UNL     1      13.505  10.128  -0.286  1.00  0.00    -0.395 OA
ATOM     15  H2  UNL     1      12.803   9.523  -0.078  1.00  0.00     0.210 HD
ENDBRANCH   6  14
TORSDOF 2
ENDMDL