MODEL 1
REMARK VINA RESULT: -5.186315025      0.000      0.000
REMARK  4 active torsions:
REMARK  status: ('A' for Active; 'I' for Inactive)
REMARK    1  A    between atoms: C2_2  and  O1_5
REMARK    2  A    between atoms: O1_5  and  C5_6
REMARK    3  A    between atoms: C5_6  and  N1_8
REMARK    4  A    between atoms: N1_8  and  C6_10
ROOT
HETATM    1  C5  UNL     1       8.028   9.837   3.116  1.00  0.00     0.211 C
HETATM    2  S1  UNL     1       8.401  10.554   1.706  1.00  0.00    -0.033 SA
ENDROOT
BRANCH   1   3
HETATM    3  O1  UNL     1       8.977   9.630   4.069  1.00  0.00    -0.317 OA
BRANCH   3   4
HETATM    4  C2  UNL     1       9.498  10.592   4.942  1.00  0.00     0.059 C
HETATM    5  C1  UNL     1      10.669  11.350   4.380  1.00  0.00     0.045 C
HETATM    6  C3  UNL     1      10.011   9.845   6.175  1.00  0.00     0.045 C
HETATM    7  C4  UNL     1       8.398  11.532   5.393  1.00  0.00     0.045 C
ENDBRANCH   3   4
ENDBRANCH   1   3
BRANCH   1   8
HETATM    8  N1  UNL     1       6.695   9.426   3.348  1.00  0.00    -0.357 N
ATOM      9  H1  UNL     1       6.473   8.430   3.387  1.00  0.00     0.162 HD
BRANCH   8  10
HETATM   10  C6  UNL     1       5.631  10.413   3.534  1.00  0.00     0.084 C
HETATM   11  C7  UNL     1       4.691  10.340   2.366  1.00  0.00     0.025 C
HETATM   12  C8  UNL     1       3.461   9.635   2.957  1.00  0.00     0.002 C
HETATM   13  C9  UNL     1       3.397  10.303   4.315  1.00  0.00     0.002 C
HETATM   14  C10 UNL     1       4.832  10.163   4.778  1.00  0.00     0.025 C
ENDBRANCH   8  10
ENDBRANCH   1   8
TORSDOF 4
ENDMDL