MODEL 5
REMARK VINA RESULT: -5.347475675      3.179      4.980
REMARK  2 active torsions:
REMARK  status: ('A' for Active; 'I' for Inactive)
REMARK    1  A    between atoms: C2_2  and  C3_3
REMARK    2  A    between atoms: N1_13  and  N2_14
ROOT
HETATM    1  C3  UNL     1      14.364  10.426   2.304  1.00  0.00     0.101 C
HETATM    2  C4  UNL     1      14.096  11.872   2.579  1.00  0.00     0.025 C
HETATM    3  C5  UNL     1      13.066  12.490   1.695  1.00  0.00     0.002 C
HETATM    4  C6  UNL     1      13.364  13.970   1.429  1.00  0.00     0.000 C
HETATM    5  C7  UNL     1      13.187  14.320  -0.022  1.00  0.00     0.000 C
HETATM    6  C8  UNL     1      14.509  14.259  -0.784  1.00  0.00     0.000 C
HETATM    7  C9  UNL     1      14.444  13.248  -1.911  1.00  0.00     0.000 C
HETATM    8  C10 UNL     1      15.540  12.217  -1.803  1.00  0.00     0.001 C
HETATM    9  C11 UNL     1      15.053  10.910  -1.263  1.00  0.00     0.016 C
HETATM   10  C12 UNL     1      15.353  10.788   0.223  1.00  0.00     0.114 C
HETATM   11  N1  UNL     1      14.293  10.073   0.914  1.00  0.00    -0.230 NA
ENDROOT
BRANCH  11  12
HETATM   12  N2  UNL     1      14.653   8.702   0.829  1.00  0.00    -0.363 NA
ATOM     13  H22 UNL     1      13.883   8.255   0.332  1.00  0.00     0.171 HD
ATOM     14  H21 UNL     1      15.477   8.657   0.228  1.00  0.00     0.171 HD
ENDBRANCH  11  12
BRANCH   1  15
HETATM   15  C2  UNL     1      13.505   9.590   3.172  1.00  0.00    -0.016 C
HETATM   16  C1  UNL     1      13.189   9.861   4.409  1.00  0.00     0.008 C
ENDBRANCH   1  15
TORSDOF 2
ENDMDL