MODEL 5
REMARK VINA RESULT: -5.620681064      1.325      5.590
REMARK  3 active torsions:
REMARK  status: ('A' for Active; 'I' for Inactive)
REMARK    1  A    between atoms: C2_2  and  O1_5
REMARK    2  A    between atoms: O1_5  and  C5_6
REMARK       I    between atoms: C5_6  and  N1_8
REMARK    3  A    between atoms: N1_8  and  C6_10
ROOT
HETATM    1  C5  UNL     1      10.803   9.974   2.961  1.00  0.00     0.361 C
HETATM    2  O2  UNL     1      11.560   9.628   3.892  1.00  0.00    -0.238 OA
HETATM    3  N1  UNL     1      11.277  10.887   1.997  1.00  0.00    -0.332 N
ATOM      4  H1  UNL     1      10.659  11.169   1.235  1.00  0.00     0.165 HD
ENDROOT
BRANCH   3   5
HETATM    5  C6  UNL     1      12.627  11.440   2.057  1.00  0.00     0.086 C
HETATM    6  C7  UNL     1      13.134  11.546   0.634  1.00  0.00     0.025 C
HETATM    7  C8  UNL     1      12.651  12.835   0.023  1.00  0.00     0.002 C
HETATM    8  C9  UNL     1      13.186  14.032   0.763  1.00  0.00     0.000 C
HETATM    9  C10 UNL     1      13.701  13.633   2.129  1.00  0.00     0.002 C
HETATM   10  C11 UNL     1      12.633  12.762   2.776  1.00  0.00     0.025 C
ENDBRANCH   3   5
BRANCH   1  11
HETATM   11  O1  UNL     1       9.524   9.479   2.866  1.00  0.00    -0.294 OA
BRANCH  11  12
HETATM   12  C2  UNL     1       8.575   9.834   3.880  1.00  0.00     0.061 C
HETATM   13  C1  UNL     1       7.263  10.058   3.161  1.00  0.00     0.046 C
HETATM   14  C3  UNL     1       8.533   8.705   4.854  1.00  0.00     0.046 C
HETATM   15  C4  UNL     1       8.958  11.101   4.574  1.00  0.00     0.046 C
ENDBRANCH  11  12
ENDBRANCH   1  11
TORSDOF 3
ENDMDL