MODEL 4
REMARK VINA RESULT: -5.999883930      8.042      9.144
REMARK  2 active torsions:
REMARK  status: ('A' for Active; 'I' for Inactive)
REMARK       I    between atoms: C2_2  and  N1_4
REMARK    1  A    between atoms: N1_4  and  O2_5
REMARK    2  A    between atoms: N1_4  and  C3_7
ROOT
HETATM    1  C3  UNL     1      13.796  10.842  -1.568  1.00  0.00     0.122 C
HETATM    2  C4  UNL     1      13.599  10.954  -0.072  1.00  0.00     0.033 C
HETATM    3  C5  UNL     1      13.625  12.384   0.383  1.00  0.00    -0.013 C
HETATM    4  C6  UNL     1      15.032  12.710   0.800  1.00  0.00     0.005 C
HETATM    5  C7  UNL     1      16.092  12.056  -0.019  1.00  0.00     0.001 C
HETATM    6  C8  UNL     1      15.954  12.168  -1.489  1.00  0.00     0.007 C
HETATM    7  C9  UNL     1      14.626  11.964  -2.088  1.00  0.00     0.011 C
HETATM    8  C10 UNL     1      13.759  13.216  -1.982  1.00  0.00     0.007 C
HETATM    9  C11 UNL     1      13.091  13.343  -0.648  1.00  0.00     0.005 C
ENDROOT
BRANCH   1  10
HETATM   10  N1  UNL     1      14.201   9.538  -1.999  1.00  0.00    -0.224 N
HETATM   11  C2  UNL     1      13.600   8.862  -3.082  1.00  0.00     0.239 C
HETATM   12  C1  UNL     1      14.040   7.496  -3.518  1.00  0.00     0.119 C
HETATM   13  O1  UNL     1      12.652   9.348  -3.762  1.00  0.00    -0.272 OA
BRANCH  10  14
HETATM   14  O2  UNL     1      15.203   8.935  -1.340  1.00  0.00    -0.284 OA
ATOM     15  H2  UNL     1      15.996   8.718  -1.815  1.00  0.00     0.245 HD
ENDBRANCH  10  14
ENDBRANCH   1  10
TORSDOF 2
ENDMDL