MODEL 1
REMARK VINA RESULT: -6.585047347      0.000      0.000
REMARK  2 active torsions:
REMARK  status: ('A' for Active; 'I' for Inactive)
REMARK    1  A    between atoms: C1_1  and  C8_11
REMARK    2  A    between atoms: N1_2  and  N2_4
ROOT
HETATM    1  C1  UNL     1      10.434  10.413   2.949  1.00  0.00     0.085 C
HETATM    2  N1  UNL     1      10.824  10.830   1.787  1.00  0.00    -0.314 N
ATOM      3  H1  UNL     1      10.158  10.905   1.018  1.00  0.00     0.185 HD
ENDROOT
BRANCH   2   4
HETATM    4  N2  UNL     1      12.157  11.173   1.594  1.00  0.00    -0.308 N
HETATM    5  C2  UNL     1      12.503  11.709   0.338  1.00  0.00     0.083 C
HETATM    6  C3  UNL     1      13.456  12.841   0.309  1.00  0.00     0.046 C
HETATM    7  C4  UNL     1      13.438  13.823   1.386  1.00  0.00     0.005 C
HETATM    8  C5  UNL     1      12.984  13.340   2.738  1.00  0.00     0.002 C
HETATM    9  C6  UNL     1      13.817  12.113   3.133  1.00  0.00     0.022 C
HETATM   10  C7  UNL     1      12.976  10.914   2.752  1.00  0.00     0.147 C
ENDBRANCH   2   4
BRANCH   1  11
HETATM   11  C8  UNL     1       9.021  10.038   3.192  1.00  0.00     0.025 C
HETATM   12  C9  UNL     1       8.123  10.442   2.041  1.00  0.00     0.010 C
HETATM   13  C10 UNL     1       6.761  10.649   2.667  1.00  0.00     0.001 C
HETATM   14  C11 UNL     1       6.938  10.541   4.148  1.00  0.00     0.001 C
HETATM   15  C12 UNL     1       8.418  10.796   4.342  1.00  0.00     0.010 C
ENDBRANCH   1  11
TORSDOF 2
ENDMDL