MODEL 2
REMARK VINA RESULT: -6.212683743      2.634      5.071
REMARK  12 active torsions:
REMARK  status: ('A' for Active; 'I' for Inactive)
REMARK    1  A    between atoms: C2_2  and  O1_3
REMARK    2  A    between atoms: O1_3  and  C3_4
REMARK    3  A    between atoms: C3_4  and  C4_6
REMARK    4  A    between atoms: C4_6  and  C5_7
REMARK    5  A    between atoms: C5_7  and  O3_8
REMARK    6  A    between atoms: C5_7  and  C6_10
REMARK    7  A    between atoms: C6_10  and  N1_11
REMARK    8  A    between atoms: N2_14  and  C8_15
REMARK    9  A    between atoms: C12_19  and  N3_20
REMARK       I    between atoms: N3_20  and  C13_22
REMARK       I    between atoms: C13_22  and  N4_24
REMARK   10  A    between atoms: N4_24  and  N5_26
REMARK   11  A    between atoms: C14_29  and  N6_30
REMARK   12  A    between atoms: C17_36  and  N7_37
ROOT
HETATM    1  N1  UNL     1      -1.991   6.596  53.783  1.00  0.00    -0.288 N
HETATM    2  C7  UNL     1      -1.977   7.747  53.061  1.00  0.00     0.337 A
HETATM    3  O4  UNL     1      -1.741   7.660  51.828  1.00  0.00    -0.246 OA
HETATM    4  N2  UNL     1      -2.213   8.899  53.701  1.00  0.00    -0.227 N
HETATM    5  C15 UNL     1      -2.461   8.963  55.014  1.00  0.00     0.273 A
HETATM    6  O8  UNL     1      -2.683  10.084  55.589  1.00  0.00    -0.266 OA
HETATM    7  C16 UNL     1      -2.489   7.811  55.811  1.00  0.00     0.112 A
HETATM    8  C17 UNL     1      -2.717   7.676  57.125  1.00  0.00     0.123 A
HETATM    9  N8  UNL     1      -2.685   6.446  57.646  1.00  0.00    -0.310 N
ATOM     10  H8  UNL     1      -2.835   6.170  58.616  1.00  0.00     0.176 HD
HETATM   11  S1  UNL     1      -2.341   5.461  56.326  1.00  0.00     0.007 SA
HETATM   12  C18 UNL     1      -2.241   6.656  55.109  1.00  0.00     0.116 A
ENDROOT
BRANCH   4  13
HETATM   13  C8  UNL     1      -2.196  10.093  52.944  1.00  0.00     0.082 A
HETATM   14  C9  UNL     1      -1.338  11.102  53.314  1.00  0.00     0.033 A
HETATM   15  C10 UNL     1      -1.372  12.232  52.540  1.00  0.00     0.005 A
HETATM   16  C11 UNL     1      -2.237  12.342  51.435  1.00  0.00     0.032 A
HETATM   17  C12 UNL     1      -3.089  11.316  51.085  1.00  0.00     0.071 A
HETATM   18  C14 UNL     1      -3.056  10.152  51.879  1.00  0.00     0.157 A
BRANCH  17  19
HETATM   19  N3  UNL     1      -3.971  11.374  49.986  1.00  0.00    -0.305 N
HETATM   20  C13 UNL     1      -4.005  12.310  48.953  1.00  0.00     0.339 C
HETATM   21  O5  UNL     1      -3.249  13.291  48.801  1.00  0.00    -0.245 OA
HETATM   22  N4  UNL     1      -5.005  12.175  47.920  1.00  0.00    -0.258 N
ATOM     23  H4  UNL     1      -5.658  11.394  47.981  1.00  0.00     0.191 HD
ATOM     24  H3  UNL     1      -4.675  10.637  49.942  1.00  0.00     0.171 HD
BRANCH  22  25
HETATM   25  N5  UNL     1      -5.127  13.048  46.852  1.00  0.00    -0.341 N
ATOM     26  H52 UNL     1      -5.460  13.990  47.058  1.00  0.00     0.177 HD
ATOM     27  H51 UNL     1      -4.906  12.796  45.889  1.00  0.00     0.177 HD
ENDBRANCH  22  25
ENDBRANCH  17  19
BRANCH  18  28
HETATM   28  N6  UNL     1      -3.939   9.091  51.517  1.00  0.00    -0.111 N
HETATM   29  O6  UNL     1      -4.810   8.747  52.336  1.00  0.00    -0.532 OA
HETATM   30  O7  UNL     1      -3.885   8.430  50.322  1.00  0.00    -0.532 OA
ENDBRANCH  18  28
ENDBRANCH   4  13
BRANCH   1  31
HETATM   31  C6  UNL     1      -1.738   5.327  53.127  1.00  0.00     0.166 C
BRANCH  31  32
HETATM   32  C5  UNL     1      -2.988   4.695  52.581  1.00  0.00     0.145 C
BRANCH  32  33
HETATM   33  C4  UNL     1      -2.563   3.769  51.452  1.00  0.00     0.144 C
BRANCH  33  34
HETATM   34  C3  UNL     1      -2.466   2.367  51.890  1.00  0.00     0.261 C
HETATM   35  O2  UNL     1      -3.327   1.946  52.699  1.00  0.00    -0.265 OA
BRANCH  34  36
HETATM   36  O1  UNL     1      -1.463   1.553  51.426  1.00  0.00    -0.322 OA
BRANCH  36  37
HETATM   37  C2  UNL     1      -0.773   1.889  50.247  1.00  0.00     0.174 C
HETATM   38  C1  UNL     1       0.621   2.358  50.615  1.00  0.00     0.034 C
ENDBRANCH  36  37
ENDBRANCH  34  36
ENDBRANCH  33  34
ENDBRANCH  32  33
BRANCH  32  39
HETATM   39  O3  UNL     1      -3.879   5.608  52.064  1.00  0.00    -0.393 OA
ATOM     40  H3  UNL     1      -4.470   5.865  52.762  1.00  0.00     0.210 HD
ENDBRANCH  32  39
ENDBRANCH  31  32
ENDBRANCH   1  31
BRANCH   8  41
HETATM   41  N7  UNL     1      -2.970   8.683  57.935  1.00  0.00    -0.384 N
ATOM     42  H72 UNL     1      -3.417   9.511  57.543  1.00  0.00     0.157 HD
ATOM     43  H71 UNL     1      -2.746   8.685  58.930  1.00  0.00     0.157 HD
ENDBRANCH   8  41
TORSDOF 12
ENDMDL