MODEL 3
REMARK VINA RESULT: -5.067938669      2.536      4.120
REMARK  12 active torsions:
REMARK  status: ('A' for Active; 'I' for Inactive)
REMARK    1  A    between atoms: C6_6  and  C7_7
REMARK    2  A    between atoms: C8_10  and  N2_11
REMARK    3  A    between atoms: C9_17  and  C10_18
REMARK    4  A    between atoms: C12_24  and  N8_25
REMARK    5  A    between atoms: N8_25  and  C13_27
REMARK    6  A    between atoms: C13_27  and  O1_28
REMARK    7  A    between atoms: C13_27  and  C14_30
REMARK    8  A    between atoms: C14_30  and  O2_31
REMARK    9  A    between atoms: C14_30  and  C15_33
REMARK   10  A    between atoms: C15_33  and  O3_34
REMARK   11  A    between atoms: C17_39  and  N10_40
REMARK   12  A    between atoms: C20_43  and  N11_44
ROOT
HETATM    1  C10 UNL     1      -4.346  11.765  48.630  1.00  0.00     0.156 C
HETATM    2  N5  UNL     1      -4.780  10.587  47.969  1.00  0.00    -0.079 NA
HETATM    3  N6  UNL     1      -3.752  11.639  49.752  1.00  0.00    -0.280 N
ATOM      4  H6  UNL     1      -3.656  10.681  50.089  1.00  0.00     0.179 HD
HETATM    5  C11 UNL     1      -3.226  12.601  50.568  1.00  0.00     0.183 C
HETATM    6  N7  UNL     1      -2.773  13.395  51.271  1.00  0.00    -0.172 NA
ENDROOT
BRANCH   1   7
HETATM    7  C9  UNL     1      -4.534  13.086  48.058  1.00  0.00     0.121 A
HETATM    8  N4  UNL     1      -4.243  14.276  48.668  1.00  0.00    -0.272 N
HETATM    9  N3  UNL     1      -4.519  15.292  47.861  1.00  0.00    -0.067 N
ATOM     10  H4  UNL     1      -3.866  14.369  49.611  1.00  0.00     0.188 HD
HETATM   11  C8  UNL     1      -4.407  16.620  47.998  1.00  0.00     0.700 A
HETATM   12  C16 UNL     1      -4.993  14.836  46.708  1.00  0.00     0.176 A
HETATM   13  N1  UNL     1      -4.764  17.424  47.002  1.00  0.00    -0.174 N
HETATM   14  C7  UNL     1      -5.247  17.012  45.824  1.00  0.00     0.135 A
ATOM     15  H1  UNL     1      -4.663  18.429  47.146  1.00  0.00     0.186 HD
HETATM   16  N9  UNL     1      -5.357  15.680  45.693  1.00  0.00    -0.324 N
ATOM     17  H9  UNL     1      -5.718  15.291  44.823  1.00  0.00     0.169 HD
HETATM   18  C12 UNL     1      -5.012  13.446  46.814  1.00  0.00     0.109 A
BRANCH  11  19
HETATM   19  N2  UNL     1      -3.957  17.105  49.086  1.00  0.00    -0.233 N
ATOM     20  H22 UNL     1      -4.427  17.902  49.516  1.00  0.00     0.174 HD
ATOM     21  H21 UNL     1      -3.132  16.700  49.529  1.00  0.00     0.174 HD
ENDBRANCH  11  19
BRANCH  14  22
HETATM   22  C6  UNL     1      -5.655  17.924  44.767  1.00  0.00     0.037 A
HETATM   23  C5  UNL     1      -6.876  18.598  44.873  1.00  0.00     0.017 A
HETATM   24  C4  UNL     1      -7.276  19.468  43.902  1.00  0.00     0.002 A
HETATM   25  C3  UNL     1      -6.492  19.694  42.809  1.00  0.00     0.009 A
HETATM   26  C2  UNL     1      -5.302  19.048  42.687  1.00  0.00    -0.033 A
HETATM   27  C1  UNL     1      -4.410  19.267  41.504  1.00  0.00     0.050 C
HETATM   28  C17 UNL     1      -4.853  18.141  43.670  1.00  0.00     0.070 A
BRANCH  28  29
HETATM   29  N10 UNL     1      -3.591  17.509  43.445  1.00  0.00    -0.289 N
HETATM   30  C18 UNL     1      -3.453  16.283  42.683  1.00  0.00     0.157 C
HETATM   31  C19 UNL     1      -1.977  16.120  42.478  1.00  0.00     0.099 C
HETATM   32  C20 UNL     1      -1.388  17.176  43.333  1.00  0.00     0.095 C
HETATM   33  N12 UNL     1      -2.312  17.891  43.825  1.00  0.00    -0.286 N
ATOM     34  H12 UNL     1      -2.131  18.679  44.446  1.00  0.00     0.188 HD
BRANCH  32  35
HETATM   35  N11 UNL     1       0.028  17.349  43.561  1.00  0.00    -0.378 N
HETATM   36  C21 UNL     1       0.481  18.185  44.650  1.00  0.00     0.150 C
HETATM   37  C22 UNL     1       0.982  16.688  42.702  1.00  0.00     0.150 C
ENDBRANCH  32  35
ENDBRANCH  28  29
ENDBRANCH  14  22
BRANCH  18  38
HETATM   38  N8  UNL     1      -5.500  12.579  45.791  1.00  0.00    -0.357 N
ATOM     39  H8  UNL     1      -5.325  11.579  45.886  1.00  0.00     0.162 HD
BRANCH  38  40
HETATM   40  C13 UNL     1      -6.221  13.030  44.635  1.00  0.00     0.249 C
BRANCH  40  41
HETATM   41  O1  UNL     1      -7.360  12.321  44.381  1.00  0.00    -0.374 OA
ATOM     42  H1  UNL     1      -7.589  11.700  45.063  1.00  0.00     0.212 HD
ENDBRANCH  40  41
BRANCH  40  43
HETATM   43  C14 UNL     1      -5.311  13.014  43.429  1.00  0.00     0.190 C
BRANCH  43  44
HETATM   44  O2  UNL     1      -4.557  11.833  43.445  1.00  0.00    -0.389 OA
ATOM     45  H2  UNL     1      -5.012  11.172  42.937  1.00  0.00     0.210 HD
ENDBRANCH  43  44
BRANCH  43  46
HETATM   46  C15 UNL     1      -6.093  13.132  42.136  1.00  0.00     0.200 C
BRANCH  46  47
HETATM   47  O3  UNL     1      -6.476  11.873  41.686  1.00  0.00    -0.398 OA
ATOM     48  H3  UNL     1      -6.269  11.212  42.336  1.00  0.00     0.209 HD
ENDBRANCH  46  47
ENDBRANCH  43  46
ENDBRANCH  40  43
ENDBRANCH  38  40
ENDBRANCH  18  38
ENDBRANCH   1   7
TORSDOF 12
ENDMDL