MODEL 3
REMARK VINA RESULT: -9.130092239      4.154      7.732
REMARK  15 active torsions:
REMARK  status: ('A' for Active; 'I' for Inactive)
REMARK    1  A    between atoms: C2_2  and  C4_4
REMARK    2  A    between atoms: C2_2  and  N4_17
REMARK    3  A    between atoms: C4_4  and  O1_5
REMARK    4  A    between atoms: O1_5  and  C5_6
REMARK    5  A    between atoms: C5_6  and  C6_8
REMARK    6  A    between atoms: N4_17  and  C8_19
REMARK    7  A    between atoms: C8_19  and  C9_20
REMARK    8  A    between atoms: C9_20  and  N5_21
REMARK    9  A    between atoms: N5_21  and  O4_22
REMARK       I    between atoms: N5_21  and  C10_24
REMARK   10  A    between atoms: C10_24  and  O6_26
REMARK   11  A    between atoms: O6_26  and  C11_27
REMARK   12  A    between atoms: C11_27  and  O7_28
REMARK   13  A    between atoms: C11_27  and  C12_30
REMARK   14  A    between atoms: C14_34  and  N7_35
REMARK   15  A    between atoms: C15_40  and  N9_41
ROOT
HETATM    1  N5  UNL     1      -2.628  10.574  52.579  1.00  0.00    -0.203 N
HETATM    2  C10 UNL     1      -2.849   9.803  51.436  1.00  0.00     0.389 C
HETATM    3  O5  UNL     1      -3.262  10.365  50.377  1.00  0.00    -0.236 OA
ENDROOT
BRANCH   2   4
HETATM    4  O6  UNL     1      -2.649   8.428  51.336  1.00  0.00    -0.263 OA
BRANCH   4   5
HETATM    5  C11 UNL     1      -3.676   7.517  51.620  1.00  0.00     0.345 C
BRANCH   5   6
HETATM    6  O7  UNL     1      -4.644   7.708  50.529  1.00  0.00    -0.364 OA
ATOM      7  H7  UNL     1      -4.773   6.836  50.174  1.00  0.00     0.213 HD
ENDBRANCH   5   6
BRANCH   5   8
HETATM    8  C12 UNL     1      -3.232   6.112  51.558  1.00  0.00     0.182 A
HETATM    9  N6  UNL     1      -3.619   5.038  52.257  1.00  0.00    -0.329 N
HETATM   10  C13 UNL     1      -2.923   3.940  51.850  1.00  0.00     0.131 A
ATOM     11  H6  UNL     1      -4.331   5.041  52.987  1.00  0.00     0.168 HD
HETATM   12  C14 UNL     1      -2.915   2.590  52.222  1.00  0.00     0.146 A
HETATM   13  C16 UNL     1      -2.089   4.397  50.861  1.00  0.00     0.195 A
HETATM   14  N8  UNL     1      -2.065   1.743  51.586  1.00  0.00    -0.175 N
HETATM   15  C15 UNL     1      -1.243   2.186  50.615  1.00  0.00     0.679 A
ATOM     16  H8  UNL     1      -2.049   0.757  51.848  1.00  0.00     0.186 HD
HETATM   17  N10 UNL     1      -1.268   3.479  50.274  1.00  0.00    -0.168 N
ATOM     18  H10 UNL     1      -0.640   3.796  49.536  1.00  0.00     0.186 HD
HETATM   19  O8  UNL     1      -2.284   5.670  50.706  1.00  0.00    -0.273 OA
BRANCH  12  20
HETATM   20  N7  UNL     1      -3.708   2.228  53.141  1.00  0.00    -0.383 N
ATOM     21  H72 UNL     1      -4.296   2.876  53.666  1.00  0.00     0.157 HD
ATOM     22  H71 UNL     1      -3.757   1.234  53.361  1.00  0.00     0.157 HD
ENDBRANCH  12  20
BRANCH  15  23
HETATM   23  N9  UNL     1      -0.434   1.343  50.018  1.00  0.00    -0.234 N
ATOM     24  H92 UNL     1       0.041   0.608  50.542  1.00  0.00     0.174 HD
ATOM     25  H91 UNL     1      -0.274   1.425  49.014  1.00  0.00     0.174 HD
ENDBRANCH  15  23
ENDBRANCH   5   8
ENDBRANCH   4   5
ENDBRANCH   2   4
BRANCH   1  26
HETATM   26  C9  UNL     1      -2.239  10.035  53.878  1.00  0.00     0.180 C
BRANCH  26  27
HETATM   27  C8  UNL     1      -3.250  10.682  54.901  1.00  0.00     0.137 C
BRANCH  27  28
HETATM   28  N4  UNL     1      -3.161   9.854  56.018  1.00  0.00    -0.410 N
ATOM     29  H4  UNL     1      -3.386   8.868  55.887  1.00  0.00     0.154 HD
BRANCH  28  30
HETATM   30  C2  UNL     1      -2.790  10.260  57.305  1.00  0.00     0.040 C
HETATM   31  C1  UNL     1      -1.411  10.843  57.353  1.00  0.00     0.040 C
HETATM   32  C3  UNL     1      -3.709  11.470  57.733  1.00  0.00     0.040 C
BRANCH  30  33
HETATM   33  C4  UNL     1      -3.085   9.135  58.264  1.00  0.00     0.208 C
BRANCH  33  34
HETATM   34  O1  UNL     1      -2.010   8.478  58.820  1.00  0.00    -0.314 OA
BRANCH  34  35
HETATM   35  C5  UNL     1      -1.935   7.153  59.219  1.00  0.00     0.315 C
HETATM   36  O2  UNL     1      -2.045   6.866  60.453  1.00  0.00    -0.257 OA
BRANCH  35  37
HETATM   37  C6  UNL     1      -1.734   6.054  58.281  1.00  0.00     0.171 A
HETATM   38  N1  UNL     1      -1.281   4.797  58.578  1.00  0.00    -0.231 N
HETATM   39  O3  UNL     1      -1.241   4.073  57.494  1.00  0.00    -0.132 OA
ATOM     40  H1  UNL     1      -1.015   4.474  59.509  1.00  0.00     0.197 HD
HETATM   41  N2  UNL     1      -1.639   4.752  56.458  1.00  0.00    -0.119 N
HETATM   42  N3  UNL     1      -1.939   5.008  55.220  1.00  0.00    -0.238 N
HETATM   43  C7  UNL     1      -1.964   6.038  56.926  1.00  0.00     0.177 A
HETATM   44  S1  UNL     1      -2.416   6.596  55.380  1.00  0.00     0.029 SA
ATOM     45  H3  UNL     1      -1.894   4.412  54.393  1.00  0.00     0.198 HD
ENDBRANCH  35  37
ENDBRANCH  34  35
ENDBRANCH  33  34
ENDBRANCH  30  33
ENDBRANCH  28  30
ENDBRANCH  27  28
ENDBRANCH  26  27
ENDBRANCH   1  26
BRANCH   1  46
HETATM   46  O4  UNL     1      -2.807  11.927  52.450  1.00  0.00    -0.283 OA
ATOM     47  H4  UNL     1      -3.664  12.255  52.204  1.00  0.00     0.245 HD
ENDBRANCH   1  46
TORSDOF 15
ENDMDL