MODEL 4
REMARK VINA RESULT: -8.384493176      2.518      4.908
REMARK  16 active torsions:
REMARK  status: ('A' for Active; 'I' for Inactive)
REMARK    1  A    between atoms: O1_2  and  C2_3
REMARK    2  A    between atoms: C2_3  and  C3_5
REMARK    3  A    between atoms: C3_5  and  N1_6
REMARK    4  A    between atoms: C4_7  and  N2_8
REMARK    5  A    between atoms: N2_8  and  N3_10
REMARK    6  A    between atoms: N3_10  and  C5_11
REMARK    7  A    between atoms: C5_11  and  C6_12
REMARK    8  A    between atoms: C8_14  and  O3_15
REMARK    9  A    between atoms: C9_17  and  O4_18
REMARK   10  A    between atoms: C10_20  and  O5_21
REMARK   11  A    between atoms: C15_30  and  N6_31
REMARK       I    between atoms: N7_33  and  C16_35
REMARK   12  A    between atoms: C16_35  and  C17_37
REMARK   13  A    between atoms: C17_37  and  O7_38
REMARK   14  A    between atoms: C17_37  and  C18_40
REMARK   15  A    between atoms: C18_40  and  N8_41
REMARK   16  A    between atoms: C20_46  and  N9_47
ROOT
HETATM    1  N1  UNL     1      -1.924   9.426  53.695  1.00  0.00    -0.156 N
HETATM    2  C4  UNL     1      -2.876  10.263  53.261  1.00  0.00     0.713 A
HETATM    3  N4  UNL     1      -3.533  11.021  54.223  1.00  0.00    -0.173 N
ATOM      4  H4  UNL     1      -4.266  11.671  53.942  1.00  0.00     0.186 HD
HETATM    5  C13 UNL     1      -3.211  10.903  55.506  1.00  0.00     0.137 A
HETATM    6  N5  UNL     1      -3.686  11.512  56.627  1.00  0.00    -0.349 N
ATOM      7  H5  UNL     1      -4.427  12.213  56.650  1.00  0.00     0.167 HD
HETATM    8  C14 UNL     1      -3.022  11.041  57.698  1.00  0.00     0.121 A
HETATM    9  C15 UNL     1      -2.093  10.107  57.298  1.00  0.00     0.081 A
HETATM   10  C19 UNL     1      -2.229  10.040  55.933  1.00  0.00     0.082 A
HETATM   11  C20 UNL     1      -1.556   9.267  54.981  1.00  0.00     0.134 A
ENDROOT
BRANCH   2  12
HETATM   12  N2  UNL     1      -3.221  10.475  52.084  1.00  0.00    -0.065 N
ATOM     13  H2  UNL     1      -3.739   9.659  51.758  1.00  0.00     0.221 HD
BRANCH  12  14
HETATM   14  N3  UNL     1      -3.180  11.299  51.150  1.00  0.00    -0.323 NA
BRANCH  14  15
HETATM   15  C5  UNL     1      -2.868  12.277  50.504  1.00  0.00     0.221 C
BRANCH  15  16
HETATM   16  C6  UNL     1      -3.647  12.712  49.325  1.00  0.00     0.000 A
HETATM   17  C7  UNL     1      -4.230  11.775  48.507  1.00  0.00     0.053 A
HETATM   18  C8  UNL     1      -4.973  12.169  47.406  1.00  0.00     0.102 A
HETATM   19  C9  UNL     1      -5.158  13.499  47.087  1.00  0.00     0.132 A
HETATM   20  C10 UNL     1      -4.550  14.421  47.943  1.00  0.00     0.104 A
HETATM   21  C12 UNL     1      -3.808  14.035  49.041  1.00  0.00     0.053 A
BRANCH  18  22
HETATM   22  O3  UNL     1      -5.538  11.183  46.614  1.00  0.00    -0.358 OA
ATOM     23  H3  UNL     1      -5.887  11.435  45.767  1.00  0.00     0.217 HD
ENDBRANCH  18  22
BRANCH  19  24
HETATM   24  O4  UNL     1      -5.890  13.950  46.004  1.00  0.00    -0.356 OA
ATOM     25  H4  UNL     1      -5.547  14.511  45.318  1.00  0.00     0.218 HD
ENDBRANCH  19  24
BRANCH  20  26
HETATM   26  O5  UNL     1      -4.705  15.766  47.668  1.00  0.00    -0.353 OA
HETATM   27  C11 UNL     1      -4.895  16.689  48.721  1.00  0.00     0.210 C
ENDBRANCH  20  26
ENDBRANCH  15  16
ENDBRANCH  14  15
ENDBRANCH  12  14
ENDBRANCH   2  12
BRANCH   1  28
HETATM   28  C3  UNL     1      -1.241   8.580  52.742  1.00  0.00     0.260 C
BRANCH  28  29
HETATM   29  C2  UNL     1      -2.017   7.388  52.360  1.00  0.00     0.277 C
HETATM   30  O2  UNL     1      -2.670   7.329  51.287  1.00  0.00    -0.263 OA
BRANCH  29  31
HETATM   31  O1  UNL     1      -2.018   6.305  53.221  1.00  0.00    -0.325 OA
HETATM   32  C1  UNL     1      -2.584   5.062  52.942  1.00  0.00     0.213 C
ENDBRANCH  29  31
ENDBRANCH  28  29
ENDBRANCH   1  28
BRANCH  11  33
HETATM   33  N9  UNL     1      -0.634   8.502  55.418  1.00  0.00    -0.384 N
ATOM     34  H92 UNL     1      -0.078   8.858  56.195  1.00  0.00     0.157 HD
ATOM     35  H91 UNL     1      -0.383   7.583  55.053  1.00  0.00     0.157 HD
ENDBRANCH  11  33
BRANCH   9  36
HETATM   36  N6  UNL     1      -1.190   9.369  58.093  1.00  0.00    -0.296 N
HETATM   37  N7  UNL     1      -1.370   8.182  58.503  1.00  0.00    -0.267 N
HETATM   38  C16 UNL     1      -2.546   7.445  58.196  1.00  0.00     0.266 C
ATOM     39  H7  UNL     1      -0.647   7.742  59.073  1.00  0.00     0.190 HD
HETATM   40  O6  UNL     1      -3.650   7.984  58.480  1.00  0.00    -0.269 OA
ATOM     41  H6  UNL     1      -0.320   9.828  58.360  1.00  0.00     0.187 HD
BRANCH  38  42
HETATM   42  C17 UNL     1      -2.541   6.116  57.579  1.00  0.00     0.237 C
BRANCH  42  43
HETATM   43  O7  UNL     1      -2.449   6.157  56.212  1.00  0.00    -0.384 OA
ATOM     44  H7  UNL     1      -3.126   5.652  55.777  1.00  0.00     0.210 HD
ENDBRANCH  42  43
BRANCH  42  45
HETATM   45  C18 UNL     1      -1.468   5.220  58.117  1.00  0.00     0.271 C
BRANCH  45  46
HETATM   46  N8  UNL     1      -0.669   4.671  57.032  1.00  0.00    -0.076 N
ATOM     47  H83 UNL     1      -0.558   3.661  57.117  1.00  0.00     0.274 HD
ATOM     48  H82 UNL     1      -1.170   4.694  56.143  1.00  0.00     0.274 HD
ATOM     49  H81 UNL     1       0.230   5.149  56.972  1.00  0.00     0.274 HD
ENDBRANCH  45  46
ENDBRANCH  42  45
ENDBRANCH  38  42
ENDBRANCH   9  36
TORSDOF 16
ENDMDL