MODEL 5
REMARK VINA RESULT: -8.574022846      2.448      5.063
REMARK  11 active torsions:
REMARK  status: ('A' for Active; 'I' for Inactive)
REMARK    1  A    between atoms: C2_2  and  C3_3
REMARK    2  A    between atoms: C3_3  and  N1_4
REMARK    3  A    between atoms: N1_4  and  C4_5
REMARK    4  A    between atoms: N1_4  and  C6_9
REMARK    5  A    between atoms: C4_5  and  C5_6
REMARK    6  A    between atoms: C5_6  and  O1_7
REMARK    7  A    between atoms: C7_12  and  N3_13
REMARK    8  A    between atoms: C9_15  and  C10_16
REMARK    9  A    between atoms: C10_16  and  N4_17
REMARK   10  A    between atoms: C19_36  and  N11_37
REMARK   11  A    between atoms: C20_42  and  N13_43
ROOT
HETATM    1  C6  UNL     1      -2.839   9.787  53.694  1.00  0.00     0.148 A
HETATM    2  N2  UNL     1      -3.010  10.917  52.962  1.00  0.00    -0.173 N
ATOM      3  H2  UNL     1      -3.045  11.819  53.437  1.00  0.00     0.186 HD
HETATM    4  C7  UNL     1      -3.133  10.875  51.628  1.00  0.00     0.704 A
HETATM    5  N8  UNL     1      -3.084   9.672  51.012  1.00  0.00    -0.186 N
ATOM      6  H8  UNL     1      -3.178   9.630  49.998  1.00  0.00     0.184 HD
HETATM    7  C16 UNL     1      -2.915   8.530  51.703  1.00  0.00     0.106 A
HETATM    8  C17 UNL     1      -2.866   7.337  51.058  1.00  0.00     0.105 A
HETATM    9  N9  UNL     1      -2.993   7.245  49.639  1.00  0.00    -0.097 NA
HETATM   10  C18 UNL     1      -2.687   6.178  51.793  1.00  0.00     0.106 A
HETATM   11  N10 UNL     1      -2.637   4.987  51.144  1.00  0.00    -0.188 N
ATOM     12  H10 UNL     1      -2.731   4.957  50.129  1.00  0.00     0.184 HD
HETATM   13  C19 UNL     1      -2.466   3.855  51.831  1.00  0.00     0.678 A
HETATM   14  N12 UNL     1      -2.346   3.944  53.163  1.00  0.00    -0.175 N
ATOM     15  H12 UNL     1      -2.215   3.077  53.684  1.00  0.00     0.186 HD
HETATM   16  C20 UNL     1      -2.386   5.073  53.854  1.00  0.00     0.144 A
HETATM   17  C21 UNL     1      -2.561   6.252  53.173  1.00  0.00     0.107 A
HETATM   18  N14 UNL     1      -2.613   7.450  53.803  1.00  0.00    -0.346 N
ATOM     19  H14 UNL     1      -2.520   7.501  54.818  1.00  0.00     0.166 HD
HETATM   20  C22 UNL     1      -2.785   8.559  53.093  1.00  0.00     0.107 A
ENDROOT
BRANCH   4  21
HETATM   21  N3  UNL     1      -3.312  12.072  50.880  1.00  0.00    -0.080 N
HETATM   22  C8  UNL     1      -3.733  12.239  49.614  1.00  0.00     0.160 A
HETATM   23  C9  UNL     1      -3.750  13.602  49.304  1.00  0.00     0.059 A
HETATM   24  N6  UNL     1      -3.325  14.195  50.442  1.00  0.00    -0.284 N
HETATM   25  N7  UNL     1      -3.070  13.277  51.366  1.00  0.00    -0.001 NA
ATOM     26  H6  UNL     1      -3.216  15.201  50.572  1.00  0.00     0.184 HD
BRANCH  23  27
HETATM   27  C10 UNL     1      -4.145  14.237  48.025  1.00  0.00     0.177 C
BRANCH  27  28
HETATM   28  N4  UNL     1      -3.799  15.611  48.039  1.00  0.00    -0.401 N
HETATM   29  C11 UNL     1      -4.476  16.458  48.945  1.00  0.00     0.161 C
HETATM   30  C12 UNL     1      -5.552  17.280  48.318  1.00  0.00     0.075 C
HETATM   31  N5  UNL     1      -5.628  17.344  46.929  1.00  0.00    -0.395 N
HETATM   32  C13 UNL     1      -4.493  17.025  46.154  1.00  0.00     0.094 C
ATOM     33  H5  UNL     1      -6.498  17.622  46.475  1.00  0.00     0.159 HD
HETATM   34  C14 UNL     1      -4.973  16.338  44.879  1.00  0.00     0.034 C
HETATM   35  C15 UNL     1      -3.453  16.187  46.789  1.00  0.00     0.142 C
ENDBRANCH  27  28
ENDBRANCH  23  27
ENDBRANCH   4  21
BRANCH   1  36
HETATM   36  N1  UNL     1      -2.728   9.954  55.121  1.00  0.00    -0.363 N
BRANCH  36  37
HETATM   37  C3  UNL     1      -2.032   8.932  55.841  1.00  0.00     0.124 C
BRANCH  37  38
HETATM   38  C2  UNL     1      -2.809   8.130  56.816  1.00  0.00     0.015 C
HETATM   39  C1  UNL     1      -2.120   7.990  58.132  1.00  0.00     0.006 C
ENDBRANCH  37  38
ENDBRANCH  36  37
BRANCH  36  40
HETATM   40  C4  UNL     1      -3.320  11.129  55.692  1.00  0.00     0.150 C
BRANCH  40  41
HETATM   41  C5  UNL     1      -2.871  11.285  57.152  1.00  0.00     0.183 C
BRANCH  41  42
HETATM   42  O1  UNL     1      -4.009  11.437  57.934  1.00  0.00    -0.399 OA
ATOM     43  H1  UNL     1      -4.725  11.685  57.362  1.00  0.00     0.209 HD
ENDBRANCH  41  42
ENDBRANCH  40  41
ENDBRANCH  36  40
ENDBRANCH   1  36
BRANCH  16  44
HETATM   44  N13 UNL     1      -2.265   5.112  55.155  1.00  0.00    -0.383 N
ATOM     45 2H13 UNL     1      -2.985   5.586  55.699  1.00  0.00     0.157 HD
ATOM     46 1H13 UNL     1      -1.478   4.690  55.649  1.00  0.00     0.157 HD
ENDBRANCH  16  44
BRANCH  13  47
HETATM   47  N11 UNL     1      -2.413   2.701  51.247  1.00  0.00    -0.234 N
ATOM     48 2H11 UNL     1      -2.834   1.882  51.687  1.00  0.00     0.174 HD
ATOM     49 1H11 UNL     1      -1.955   2.575  50.345  1.00  0.00     0.174 HD
ENDBRANCH  13  47
TORSDOF 11
ENDMDL