MODEL 3
REMARK VINA RESULT: -6.943678176      1.835      4.318
REMARK  12 active torsions:
REMARK  status: ('A' for Active; 'I' for Inactive)
REMARK    1  A    between atoms: C3_3  and  N1_4
REMARK    2  A    between atoms: C8_13  and  N4_14
REMARK    3  A    between atoms: N4_14  and  N5_16
REMARK    4  A    between atoms: N5_16  and  O1_20
REMARK    5  A    between atoms: C9_22  and  C10_23
REMARK    6  A    between atoms: C10_23  and  C11_24
REMARK    7  A    between atoms: C10_23  and  O3_27
REMARK    8  A    between atoms: C11_24  and  O2_25
REMARK    9  A    between atoms: O3_27  and  C12_28
REMARK   10  A    between atoms: C13_29  and  O4_30
REMARK   11  A    between atoms: C13_29  and  C14_32
REMARK   12  A    between atoms: C14_32  and  N7_33
ROOT
HETATM    1  N7  UNL     1      -3.061  10.636  51.872  1.00  0.00    -0.268 N
HETATM    2  N8  UNL     1      -3.112  11.056  53.128  1.00  0.00    -0.282 N
ATOM      3  H8  UNL     1      -3.300  12.016  53.417  1.00  0.00     0.188 HD
HETATM    4  C15 UNL     1      -2.879  10.020  53.974  1.00  0.00     0.155 A
HETATM    5  N9  UNL     1      -2.840  10.013  55.380  1.00  0.00    -0.080 NA
HETATM    6  C16 UNL     1      -2.679   8.924  53.194  1.00  0.00     0.132 A
HETATM    7  C17 UNL     1      -2.387   7.576  53.640  1.00  0.00     0.107 C
HETATM    8  N10 UNL     1      -2.169   6.482  53.996  1.00  0.00    -0.191 NA
HETATM    9  C18 UNL     1      -2.797   9.329  51.858  1.00  0.00     0.140 A
HETATM   10  N11 UNL     1      -2.644   8.506  50.889  1.00  0.00    -0.383 N
ATOM     11 1H11 UNL     1      -2.443   7.507  50.878  1.00  0.00     0.157 HD
ATOM     12 2H11 UNL     1      -2.730   8.801  49.916  1.00  0.00     0.157 HD
ENDROOT
BRANCH   1  13
HETATM   13  C14 UNL     1      -3.233  11.400  50.615  1.00  0.00     0.217 C
BRANCH  13  14
HETATM   14  C13 UNL     1      -2.860  12.779  50.771  1.00  0.00     0.085 C
HETATM   15  C12 UNL     1      -3.308  14.009  50.228  1.00  0.00     0.176 C
BRANCH  15  16
HETATM   16  O3  UNL     1      -4.191  14.326  49.281  1.00  0.00    -0.320 OA
BRANCH  16  17
HETATM   17  C10 UNL     1      -4.442  15.568  48.890  1.00  0.00     0.106 C
BRANCH  17  18
HETATM   18  C9  UNL     1      -3.855  16.150  47.713  1.00  0.00     0.111 A
HETATM   19  C3  UNL     1      -4.067  15.701  46.405  1.00  0.00     0.128 A
HETATM   20  C2  UNL     1      -3.212  16.379  45.578  1.00  0.00     0.056 A
HETATM   21  C1  UNL     1      -3.079  16.275  44.103  1.00  0.00     0.072 C
HETATM   22  N13 UNL     1      -2.496  17.223  46.341  1.00  0.00    -0.298 N
HETATM   23  N12 UNL     1      -2.877  17.086  47.579  1.00  0.00    -0.294 N
HETATM   24  C19 UNL     1      -1.463  18.160  45.910  1.00  0.00     0.177 C
ATOM     25  H12 UNL     1      -2.488  17.618  48.358  1.00  0.00     0.187 HD
BRANCH  19  26
HETATM   26  N1  UNL     1      -5.155  14.891  45.993  1.00  0.00    -0.085 N
HETATM   27  N2  UNL     1      -6.125  15.641  45.284  1.00  0.00    -0.308 N
HETATM   28  C4  UNL     1      -7.040  14.954  44.508  1.00  0.00     0.123 C
ATOM     29  H2  UNL     1      -6.149  16.658  45.345  1.00  0.00     0.181 HD
HETATM   30  C5  UNL     1      -6.556  14.586  43.134  1.00  0.00     0.031 C
HETATM   31  C7  UNL     1      -7.269  13.513  44.839  1.00  0.00     0.123 C
HETATM   32  C6  UNL     1      -7.120  13.212  43.365  1.00  0.00     0.030 C
HETATM   33  N3  UNL     1      -6.309  12.876  45.644  1.00  0.00    -0.216 N
HETATM   34  C8  UNL     1      -5.300  13.536  46.195  1.00  0.00     0.717 C
ATOM     35  H3  UNL     1      -6.391  11.872  45.809  1.00  0.00     0.178 HD
BRANCH  34  36
HETATM   36  N4  UNL     1      -4.462  12.715  46.971  1.00  0.00    -0.089 N
ATOM     37  H4  UNL     1      -3.473  12.945  47.069  1.00  0.00     0.210 HD
BRANCH  36  38
HETATM   38  N5  UNL     1      -4.982  11.587  47.607  1.00  0.00    -0.087 N
HETATM   39  N6  UNL     1      -4.625  10.403  47.410  1.00  0.00    -0.303 N
ATOM     40  H62 UNL     1      -3.889  10.224  46.727  1.00  0.00     0.181 HD
ATOM     41  H61 UNL     1      -5.006   9.578  47.875  1.00  0.00     0.181 HD
BRANCH  38  42
HETATM   42  O1  UNL     1      -5.983  11.831  48.535  1.00  0.00    -0.253 OA
ATOM     43  H1  UNL     1      -5.974  12.694  48.932  1.00  0.00     0.248 HD
ENDBRANCH  38  42
ENDBRANCH  36  38
ENDBRANCH  34  36
ENDBRANCH  19  26
ENDBRANCH  17  18
BRANCH  17  44
HETATM   44  C11 UNL     1      -5.733  16.256  49.376  1.00  0.00     0.231 C
BRANCH  44  45
HETATM   45  O2  UNL     1      -5.934  17.337  48.545  1.00  0.00    -0.394 OA
ATOM     46  H2  UNL     1      -5.295  17.992  48.798  1.00  0.00     0.209 HD
ENDBRANCH  44  45
ENDBRANCH  17  44
ENDBRANCH  16  17
ENDBRANCH  15  16
BRANCH  14  47
HETATM   47  O4  UNL     1      -1.864  12.951  51.608  1.00  0.00    -0.361 OA
ATOM     48  H4  UNL     1      -1.310  12.181  51.660  1.00  0.00     0.217 HD
ENDBRANCH  14  47
ENDBRANCH  13  14
ENDBRANCH   1  13
TORSDOF 12
ENDMDL