MODEL 5
REMARK VINA RESULT: -7.597640309      0.809      1.493
REMARK  12 active torsions:
REMARK  status: ('A' for Active; 'I' for Inactive)
REMARK    1  A    between atoms: C2_5  and  N3_6
REMARK    2  A    between atoms: N3_6  and  N4_8
REMARK    3  A    between atoms: C3_13  and  N6_14
REMARK    4  A    between atoms: N6_14  and  N7_15
REMARK    5  A    between atoms: C4_17  and  C5_18
REMARK    6  A    between atoms: C6_21  and  N9_22
REMARK    7  A    between atoms: N9_22  and  C7_24
REMARK    8  A    between atoms: C7_24  and  C8_25
REMARK    9  A    between atoms: C11_28  and  C12_29
REMARK   10  A    between atoms: C12_29  and  O1_30
REMARK   11  A    between atoms: C17_41  and  N12_42
REMARK   12  A    between atoms: C19_46  and  N13_47
ROOT
HETATM    1  C5  UNL     1      -2.806   5.427  52.857  1.00  0.00     0.085 A
HETATM    2  N8  UNL     1      -3.032   6.780  52.887  1.00  0.00    -0.338 N
ATOM      3  H8  UNL     1      -3.024   7.263  53.785  1.00  0.00     0.167 HD
HETATM    4  C6  UNL     1      -3.271   7.512  51.734  1.00  0.00     0.135 A
HETATM    5  C17 UNL     1      -3.277   6.855  50.505  1.00  0.00     0.148 A
HETATM    6  C18 UNL     1      -3.016   5.477  50.535  1.00  0.00     0.078 A
HETATM    7  C19 UNL     1      -2.770   4.753  51.674  1.00  0.00     0.133 A
ENDROOT
BRANCH   4   8
HETATM    8  N9  UNL     1      -3.579   8.893  51.867  1.00  0.00    -0.370 N
ATOM      9  H9  UNL     1      -4.541   9.174  52.058  1.00  0.00     0.161 HD
BRANCH   8  10
HETATM   10  C7  UNL     1      -2.560   9.906  51.736  1.00  0.00     0.161 C
BRANCH  10  11
HETATM   11  C8  UNL     1      -2.997  11.022  50.871  1.00  0.00    -0.025 A
HETATM   12  C9  UNL     1      -3.513  10.849  49.621  1.00  0.00     0.012 A
HETATM   13  C10 UNL     1      -3.999  11.980  48.925  1.00  0.00     0.029 A
HETATM   14  C11 UNL     1      -3.958  13.213  49.470  1.00  0.00     0.045 A
HETATM   15  N11 UNL     1      -3.448  13.353  50.690  1.00  0.00    -0.366 N
HETATM   16  C16 UNL     1      -2.967  12.310  51.404  1.00  0.00     0.097 A
ATOM     17  H11 UNL     1      -3.417  14.285  51.104  1.00  0.00     0.165 HD
BRANCH  14  18
HETATM   18  C12 UNL     1      -4.519  14.337  48.690  1.00  0.00     0.125 C
HETATM   19  C13 UNL     1      -3.654  14.902  47.621  1.00  0.00     0.073 C
HETATM   20  C14 UNL     1      -4.085  16.441  47.597  1.00  0.00     0.235 C
HETATM   21  N10 UNL     1      -5.079  16.557  48.643  1.00  0.00    -0.072 N
HETATM   22  C15 UNL     1      -4.727  15.532  49.574  1.00  0.00     0.276 C
ATOM     23 2H10 UNL     1      -5.149  17.489  49.052  1.00  0.00     0.277 HD
ATOM     24 1H10 UNL     1      -6.043  16.508  48.312  1.00  0.00     0.277 HD
BRANCH  18  25
HETATM   25  O1  UNL     1      -5.759  14.027  48.169  1.00  0.00    -0.382 OA
ATOM     26  H1  UNL     1      -6.292  13.549  48.793  1.00  0.00     0.211 HD
ENDBRANCH  18  25
ENDBRANCH  14  18
ENDBRANCH  10  11
ENDBRANCH   8  10
ENDBRANCH   4   8
BRANCH   5  27
HETATM   27  N12 UNL     1      -3.615   7.462  49.287  1.00  0.00    -0.112 N
HETATM   28  O2  UNL     1      -2.968   7.475  48.296  1.00  0.00    -0.532 OA
HETATM   29  O3  UNL     1      -4.864   8.137  49.322  1.00  0.00    -0.532 OA
ENDBRANCH   5  27
BRANCH   1  30
HETATM   30  C4  UNL     1      -3.167   4.723  54.080  1.00  0.00     0.153 C
HETATM   31  N7  UNL     1      -3.098   5.104  55.280  1.00  0.00    -0.241 N
ATOM     32  H7  UNL     1      -3.435   4.366  55.897  1.00  0.00     0.201 HD
BRANCH  31  33
HETATM   33  N6  UNL     1      -2.749   6.096  55.956  1.00  0.00    -0.286 NA
BRANCH  33  34
HETATM   34  C3  UNL     1      -2.417   7.050  56.643  1.00  0.00     0.312 A
HETATM   35  N1  UNL     1      -2.580   8.413  56.492  1.00  0.00    -0.238 N
HETATM   36  C1  UNL     1      -3.079   9.044  55.253  1.00  0.00     0.183 C
HETATM   37  N2  UNL     1      -2.227   9.015  57.579  1.00  0.00    -0.125 N
HETATM   38  C2  UNL     1      -1.848   8.141  58.502  1.00  0.00     0.714 A
ATOM     39  H2  UNL     1      -2.239  10.026  57.709  1.00  0.00     0.206 HD
HETATM   40  N5  UNL     1      -1.931   6.947  57.975  1.00  0.00    -0.143 N
ATOM     41  H5  UNL     1      -1.685   6.077  58.446  1.00  0.00     0.188 HD
BRANCH  38  42
HETATM   42  N3  UNL     1      -1.552   8.419  59.738  1.00  0.00    -0.137 N
ATOM     43  H3  UNL     1      -2.281   8.445  60.451  1.00  0.00     0.205 HD
BRANCH  42  44
HETATM   44  N4  UNL     1      -0.238   8.677  60.074  1.00  0.00    -0.331 N
ATOM     45  H42 UNL     1       0.408   9.002  59.355  1.00  0.00     0.177 HD
ATOM     46  H41 UNL     1       0.065   8.538  61.038  1.00  0.00     0.177 HD
ENDBRANCH  42  44
ENDBRANCH  38  42
ENDBRANCH  33  34
ENDBRANCH  31  33
ENDBRANCH   1  30
BRANCH   7  47
HETATM   47  N13 UNL     1      -2.252   3.444  51.488  1.00  0.00    -0.113 N
HETATM   48  O4  UNL     1      -1.256   3.238  50.783  1.00  0.00    -0.532 OA
HETATM   49  O5  UNL     1      -2.979   2.361  52.032  1.00  0.00    -0.532 OA
ENDBRANCH   7  47
TORSDOF 12
ENDMDL