MODEL 2
REMARK VINA RESULT: -6.537077966      1.881      1.978
REMARK  12 active torsions:
REMARK  status: ('A' for Active; 'I' for Inactive)
REMARK    1  A    between atoms: S1_2  and  C2_3
REMARK    2  A    between atoms: C5_12  and  O1_13
REMARK    3  A    between atoms: C7_16  and  N5_17
REMARK    4  A    between atoms: N5_17  and  N6_19
REMARK    5  A    between atoms: N6_19  and  C8_21
REMARK    6  A    between atoms: C8_21  and  C9_22
REMARK    7  A    between atoms: C10_24  and  O3_25
REMARK    8  A    between atoms: C10_24  and  C11_27
REMARK    9  A    between atoms: C12_30  and  O6_31
REMARK   10  A    between atoms: C14_34  and  C15_36
REMARK   11  A    between atoms: C15_36  and  S3_37
REMARK   12  A    between atoms: S3_37  and  C16_38
ROOT
HETATM    1  C2  UNL     1      -2.793  10.336  55.744  1.00  0.00     0.174 C
HETATM    2  N1  UNL     1      -3.799  10.576  54.911  1.00  0.00    -0.355 N
ATOM      3  H1  UNL     1      -4.521  11.286  55.034  1.00  0.00     0.163 HD
HETATM    4  C3  UNL     1      -3.691   9.641  53.783  1.00  0.00     0.241 C
HETATM    5  N2  UNL     1      -2.266   9.378  53.803  1.00  0.00    -0.163 NA
HETATM    6  N3  UNL     1      -2.038   9.277  55.213  1.00  0.00    -0.189 N
HETATM    7  N4  UNL     1      -1.275   8.249  55.742  1.00  0.00    -0.278 N
ATOM      8  H4  UNL     1      -0.452   8.324  56.340  1.00  0.00     0.189 HD
HETATM    9  C4  UNL     1      -1.927   7.016  55.239  1.00  0.00     0.095 A
HETATM   10  C5  UNL     1      -2.241   5.984  56.057  1.00  0.00     0.096 A
HETATM   11  C6  UNL     1      -2.906   4.898  55.494  1.00  0.00     0.072 A
HETATM   12  C7  UNL     1      -3.224   4.885  54.166  1.00  0.00     0.084 A
HETATM   13  C12 UNL     1      -2.897   5.963  53.308  1.00  0.00     0.105 A
HETATM   14  C13 UNL     1      -2.242   7.029  53.867  1.00  0.00     0.045 A
HETATM   15  C14 UNL     1      -1.772   8.230  53.186  1.00  0.00     0.135 C
HETATM   16  S2  UNL     1       0.068   8.269  53.756  1.00  0.00    -0.061 SA
ENDROOT
BRANCH  12  17
HETATM   17  N5  UNL     1      -3.916   3.757  53.597  1.00  0.00    -0.297 N
ATOM     18  H5  UNL     1      -4.664   3.344  54.155  1.00  0.00     0.187 HD
BRANCH  17  19
HETATM   19  N6  UNL     1      -3.668   3.196  52.395  1.00  0.00    -0.295 N
ATOM     20  H6  UNL     1      -4.357   3.344  51.657  1.00  0.00     0.187 HD
BRANCH  19  21
HETATM   21  C8  UNL     1      -2.609   2.474  52.099  1.00  0.00     0.126 C
HETATM   22  C10 UNL     1      -1.719   2.879  51.072  1.00  0.00     0.174 C
BRANCH  21  23
HETATM   23  C9  UNL     1      -2.492   1.286  52.912  1.00  0.00     0.292 C
HETATM   24  O2  UNL     1      -3.364   0.819  53.658  1.00  0.00    -0.300 OA
ENDBRANCH  21  23
BRANCH  22  25
HETATM   25  O3  UNL     1      -2.061   4.005  50.477  1.00  0.00    -0.353 OA
ATOM     26  H3  UNL     1      -2.901   3.970  50.035  1.00  0.00     0.218 HD
ENDBRANCH  22  25
BRANCH  22  27
HETATM   27  C11 UNL     1      -0.525   2.267  50.586  1.00  0.00     0.236 C
HETATM   28  O4  UNL     1      -0.338   1.093  50.278  1.00  0.00    -0.642 OA
HETATM   29  O5  UNL     1       0.615   3.096  50.423  1.00  0.00    -0.642 OA
ENDBRANCH  22  27
ENDBRANCH  19  21
ENDBRANCH  17  19
ENDBRANCH  12  17
BRANCH  13  30
HETATM   30  O6  UNL     1      -3.272   5.818  52.028  1.00  0.00    -0.358 OA
ATOM     31  H6  UNL     1      -3.674   6.581  51.630  1.00  0.00     0.217 HD
ENDBRANCH  13  30
BRANCH  10  32
HETATM   32  O1  UNL     1      -1.910   6.010  57.407  1.00  0.00    -0.358 OA
ATOM     33  H1  UNL     1      -2.578   6.108  58.075  1.00  0.00     0.217 HD
ENDBRANCH  10  32
BRANCH  15  34
HETATM   34  C15 UNL     1      -1.618   8.204  51.703  1.00  0.00     0.127 C
BRANCH  34  35
HETATM   35  S3  UNL     1      -3.139   8.667  50.870  1.00  0.00    -0.090 SA
BRANCH  35  36
HETATM   36  C16 UNL     1      -3.703   7.725  49.538  1.00  0.00     0.182 C
HETATM   37  C17 UNL     1      -4.373   8.496  48.398  1.00  0.00     0.104 C
HETATM   38  O7  UNL     1      -3.625   6.517  49.409  1.00  0.00    -0.286 OA
ENDBRANCH  35  36
ENDBRANCH  34  35
ENDBRANCH  15  34
BRANCH   1  39
HETATM   39  S1  UNL     1      -2.558  11.257  57.244  1.00  0.00    -0.096 SA
HETATM   40  C1  UNL     1      -4.022  11.270  58.278  1.00  0.00     0.099 C
ENDBRANCH   1  39
TORSDOF 12
ENDMDL