MODEL 3
REMARK VINA RESULT: -5.844986297      3.771      8.666
REMARK  8 active torsions:
REMARK  status: ('A' for Active; 'I' for Inactive)
REMARK    1  A    between atoms: N5_12  and  C6_13
REMARK    2  A    between atoms: C7_16  and  C8_17
REMARK    3  A    between atoms: N10_28  and  C12_29
REMARK    4  A    between atoms: C12_29  and  C13_30
REMARK    5  A    between atoms: C13_30  and  C14_31
REMARK    6  A    between atoms: C14_31  and  C15_32
REMARK    7  A    between atoms: C15_32  and  N11_33
REMARK    8  A    between atoms: N11_33  and  S2_35
ROOT
HETATM    1  C6  UNL     1      -2.740   7.940  51.675  1.00  0.00     0.705 A
HETATM    2  N6  UNL     1      -2.927   8.815  50.672  1.00  0.00    -0.172 N
ATOM      3  H6  UNL     1      -2.914   8.576  49.680  1.00  0.00     0.186 HD
HETATM    4  C7  UNL     1      -3.136  10.059  51.168  1.00  0.00     0.157 A
HETATM    5  N10 UNL     1      -3.077   9.953  52.505  1.00  0.00    -0.261 N
HETATM    6  N12 UNL     1      -2.837   8.665  52.803  1.00  0.00    -0.128 N
ATOM      7  H12 UNL     1      -2.743   8.292  53.747  1.00  0.00     0.206 HD
ENDROOT
BRANCH   1   8
HETATM    8  N5  UNL     1      -2.488   6.521  51.570  1.00  0.00    -0.127 N
HETATM    9  C2  UNL     1      -1.718   5.809  52.536  1.00  0.00     0.125 A
HETATM   10  C1  UNL     1      -2.352   5.910  53.916  1.00  0.00     0.064 C
HETATM   11  C3  UNL     1      -0.301   6.361  52.574  1.00  0.00     0.064 C
HETATM   12  N1  UNL     1      -1.613   4.419  52.210  1.00  0.00    -0.337 N
HETATM   13  C4  UNL     1      -2.115   3.823  51.203  1.00  0.00     0.192 A
ATOM     14  H1  UNL     1      -1.076   3.841  52.857  1.00  0.00     0.164 HD
HETATM   15  N2  UNL     1      -1.947   2.431  50.974  1.00  0.00    -0.063 NA
HETATM   16  N3  UNL     1      -2.874   4.571  50.268  1.00  0.00    -0.304 N
HETATM   17  C5  UNL     1      -3.033   5.829  50.462  1.00  0.00     0.214 A
ATOM     18  H3  UNL     1      -3.286   4.116  49.454  1.00  0.00     0.171 HD
HETATM   19  N4  UNL     1      -3.796   6.559  49.515  1.00  0.00    -0.062 NA
ENDBRANCH   1   8
BRANCH   4  20
HETATM   20  C8  UNL     1      -3.379  11.239  50.347  1.00  0.00     0.119 A
HETATM   21  C9  UNL     1      -4.150  11.139  49.182  1.00  0.00     0.138 A
HETATM   22  N7  UNL     1      -4.681   9.853  48.847  1.00  0.00    -0.081 NA
HETATM   23  N8  UNL     1      -4.381  12.216  48.411  1.00  0.00    -0.321 N
HETATM   24  C10 UNL     1      -3.861  13.399  48.769  1.00  0.00     0.179 A
ATOM     25  H8  UNL     1      -4.945  12.135  47.565  1.00  0.00     0.169 HD
HETATM   26  S1  UNL     1      -4.157  14.702  47.807  1.00  0.00    -0.040 SA
HETATM   27  N9  UNL     1      -3.120  13.500  49.884  1.00  0.00    -0.299 N
HETATM   28  C11 UNL     1      -2.852  12.463  50.699  1.00  0.00     0.265 A
ATOM     29  H9  UNL     1      -2.740  14.414  50.129  1.00  0.00     0.171 HD
HETATM   30  O1  UNL     1      -2.159  12.572  51.736  1.00  0.00    -0.267 OA
ENDBRANCH   4  20
BRANCH   5  31
HETATM   31  C12 UNL     1      -3.247  11.038  53.446  1.00  0.00     0.151 C
BRANCH  31  32
HETATM   32  C13 UNL     1      -2.447  10.880  54.692  1.00  0.00     0.023 C
BRANCH  32  33
HETATM   33  C14 UNL     1      -3.260  10.413  55.876  1.00  0.00     0.022 C
BRANCH  33  34
HETATM   34  C15 UNL     1      -2.515   9.207  56.464  1.00  0.00     0.132 C
BRANCH  34  35
HETATM   35  N11 UNL     1      -1.992   9.517  57.773  1.00  0.00    -0.320 N
ATOM     36  H11 UNL     1      -1.600  10.415  58.056  1.00  0.00     0.172 HD
BRANCH  35  37
HETATM   37  S2  UNL     1      -2.135   8.129  58.781  1.00  0.00     0.222 S
HETATM   38  C16 UNL     1      -2.228   6.635  57.856  1.00  0.00     0.185 C
HETATM   39  O2  UNL     1      -0.948   8.069  59.700  1.00  0.00    -0.206 OA
HETATM   40  O3  UNL     1      -3.353   8.257  59.649  1.00  0.00    -0.206 OA
ENDBRANCH  35  37
ENDBRANCH  34  35
ENDBRANCH  33  34
ENDBRANCH  32  33
ENDBRANCH  31  32
ENDBRANCH   5  31
TORSDOF 8
ENDMDL