MODEL 5
REMARK VINA RESULT: -8.212495154      1.882      2.306
REMARK  11 active torsions:
REMARK  status: ('A' for Active; 'I' for Inactive)
REMARK    1  A    between atoms: C2_2  and  C3_3
REMARK    2  A    between atoms: C3_3  and  N1_4
REMARK    3  A    between atoms: C4_8  and  C5_9
REMARK    4  A    between atoms: C6_11  and  N4_12
REMARK       I    between atoms: N4_12  and  C7_14
REMARK    5  A    between atoms: C7_14  and  C8_16
REMARK    6  A    between atoms: C8_16  and  N5_17
REMARK    7  A    between atoms: C8_16  and  C10_30
REMARK    8  A    between atoms: N5_17  and  N6_19
REMARK       I    between atoms: N6_19  and  C9_21
REMARK       I    between atoms: C9_21  and  N7_22
REMARK       I    between atoms: C9_21  and  N8_26
REMARK    9  A    between atoms: N8_26  and  N9_27
REMARK   10  A    between atoms: C12_33  and  N10_34
REMARK   11  A    between atoms: C13_40  and  N12_41
REMARK       I    between atoms: N12_41  and  C14_43
ROOT
HETATM    1  N4  UNL     1      -3.191  12.702  49.294  1.00  0.00    -0.296 N
ATOM      2  H4  UNL     1      -2.411  13.320  49.070  1.00  0.00     0.171 HD
HETATM    3  C7  UNL     1      -4.306  12.718  48.470  1.00  0.00     0.278 C
HETATM    4  O2  UNL     1      -5.006  11.647  48.451  1.00  0.00    -0.265 OA
ENDROOT
BRANCH   3   5
HETATM    5  C8  UNL     1      -4.746  13.804  47.648  1.00  0.00     0.143 C
BRANCH   5   6
HETATM    6  N5  UNL     1      -5.554  13.593  46.637  1.00  0.00    -0.295 N
ATOM      7  H5  UNL     1      -6.529  13.880  46.713  1.00  0.00     0.187 HD
BRANCH   6   8
HETATM    8  N6  UNL     1      -5.126  13.000  45.487  1.00  0.00    -0.291 N
HETATM    9  C9  UNL     1      -5.810  13.342  44.243  1.00  0.00     0.410 C
HETATM   10  N7  UNL     1      -5.236  12.632  43.129  1.00  0.00    -0.041 N
HETATM   11  N8  UNL     1      -7.204  12.959  44.351  1.00  0.00    -0.092 NA
ATOM     12  H73 UNL     1      -4.230  12.786  43.061  1.00  0.00     0.278 HD
ATOM     13  H72 UNL     1      -5.227  11.624  43.290  1.00  0.00     0.278 HD
ATOM     14  H71 UNL     1      -5.714  12.871  42.260  1.00  0.00     0.278 HD
ATOM     15  H6  UNL     1      -4.351  12.337  45.495  1.00  0.00     0.184 HD
BRANCH  11  16
HETATM   16  N9  UNL     1      -7.829  13.615  45.399  1.00  0.00    -0.345 N
ATOM     17  H92 UNL     1      -7.538  13.524  46.373  1.00  0.00     0.172 HD
ATOM     18  H91 UNL     1      -8.604  14.190  45.069  1.00  0.00     0.172 HD
ENDBRANCH  11  16
ENDBRANCH   6   8
ENDBRANCH   5   6
BRANCH   5  19
HETATM   19  C10 UNL     1      -4.332  15.232  47.870  1.00  0.00     0.074 A
HETATM   20  C11 UNL     1      -4.829  15.973  48.895  1.00  0.00     0.085 A
HETATM   21  S1  UNL     1      -4.026  17.495  48.671  1.00  0.00    -0.064 SA
HETATM   22  C12 UNL     1      -3.126  17.077  47.302  1.00  0.00     0.142 A
HETATM   23  N11 UNL     1      -3.464  15.818  47.071  1.00  0.00    -0.335 N
ATOM     24  H11 UNL     1      -3.059  15.309  46.285  1.00  0.00     0.168 HD
BRANCH  22  25
HETATM   25  N10 UNL     1      -2.282  17.821  46.617  1.00  0.00    -0.380 N
ATOM     26 2H10 UNL     1      -1.280  17.672  46.493  1.00  0.00     0.158 HD
ATOM     27 1H10 UNL     1      -2.470  18.673  46.088  1.00  0.00     0.158 HD
ENDBRANCH  22  25
ENDBRANCH   5  19
ENDBRANCH   3   5
BRANCH   1  28
HETATM   28  C6  UNL     1      -3.092  11.926  50.354  1.00  0.00     0.197 A
HETATM   29  O1  UNL     1      -2.867  10.672  50.422  1.00  0.00    -0.281 OA
HETATM   30  C5  UNL     1      -2.801  10.063  51.536  1.00  0.00     0.158 A
HETATM   31  C13 UNL     1      -2.980  10.800  52.666  1.00  0.00     0.118 A
HETATM   32  S2  UNL     1      -3.238  12.366  51.993  1.00  0.00    -0.025 SA
BRANCH  30  33
HETATM   33  C4  UNL     1      -2.535   8.593  51.570  1.00  0.00     0.171 A
HETATM   34  N3  UNL     1      -1.453   8.007  52.139  1.00  0.00    -0.264 N
HETATM   35  N2  UNL     1      -1.557   6.691  51.974  1.00  0.00    -0.003 NA
ATOM     36  H3  UNL     1      -0.690   8.493  52.612  1.00  0.00     0.186 HD
HETATM   37  N1  UNL     1      -2.672   6.419  51.318  1.00  0.00    -0.216 N
HETATM   38  N13 UNL     1      -3.242   7.588  51.087  1.00  0.00    -0.267 N
ATOM     39  H13 UNL     1      -4.127   7.702  50.593  1.00  0.00     0.190 HD
BRANCH  37  40
HETATM   40  C3  UNL     1      -3.163   5.098  50.933  1.00  0.00     0.167 C
BRANCH  40  41
HETATM   41  C2  UNL     1      -2.515   4.048  51.810  1.00  0.00     0.019 C
HETATM   42  C1  UNL     1      -1.559   3.236  50.993  1.00  0.00     0.007 C
ENDBRANCH  40  41
ENDBRANCH  37  40
ENDBRANCH  30  33
BRANCH  31  43
HETATM   43  N12 UNL     1      -2.968  10.424  54.053  1.00  0.00    -0.319 N
HETATM   44  C14 UNL     1      -1.747  10.199  54.729  1.00  0.00     0.218 C
HETATM   45  C15 UNL     1      -1.734   9.815  56.148  1.00  0.00     0.117 C
HETATM   46  O3  UNL     1      -0.671  10.328  54.112  1.00  0.00    -0.274 OA
ATOM     47  H12 UNL     1      -3.849  10.319  54.556  1.00  0.00     0.169 HD
ENDBRANCH  31  43
ENDBRANCH   1  28
TORSDOF 11
ENDMDL