MODEL 1
REMARK VINA RESULT: -6.906321121      0.000      0.000
REMARK  7 active torsions:
REMARK  status: ('A' for Active; 'I' for Inactive)
REMARK    1  A    between atoms: N1_1  and  N2_4
REMARK    2  A    between atoms: N2_4  and  N3_5
REMARK    3  A    between atoms: N3_5  and  C1_7
REMARK    4  A    between atoms: C3_9  and  O1_10
REMARK    5  A    between atoms: C4_12  and  O2_13
REMARK    6  A    between atoms: C5_15  and  N4_16
REMARK    7  A    between atoms: N4_16  and  C6_18
ROOT
HETATM    1  C1  UNL     1      22.957  20.021  15.665  1.00  0.00     0.142 C
HETATM    2  C2  UNL     1      23.468  18.622  15.654  1.00  0.00     0.064 C
HETATM    3  C3  UNL     1      22.250  17.736  15.442  1.00  0.00     0.151 C
HETATM    4  C4  UNL     1      21.142  18.553  16.022  1.00  0.00     0.171 C
HETATM    5  C5  UNL     1      21.460  19.981  15.628  1.00  0.00     0.140 C
ENDROOT
BRANCH   1   6
HETATM    6  N3  UNL     1      23.486  20.831  16.731  1.00  0.00    -0.246 N
ATOM      7  H3  UNL     1      23.769  20.404  17.613  1.00  0.00     0.197 HD
BRANCH   6   8
HETATM    8  N2  UNL     1      23.592  22.031  16.566  1.00  0.00    -0.248 NA
BRANCH   8   9
HETATM    9  N1  UNL     1      23.462  23.161  16.093  1.00  0.00    -0.261 N
ATOM     10  H12 UNL     1      23.242  22.852  15.147  1.00  0.00     0.193 HD
ATOM     11  H11 UNL     1      23.426  24.178  16.011  1.00  0.00     0.193 HD
ENDBRANCH   8   9
ENDBRANCH   6   8
ENDBRANCH   1   6
BRANCH   5  12
HETATM   12  N4  UNL     1      20.939  20.275  14.307  1.00  0.00    -0.359 N
ATOM     13  H4  UNL     1      21.602  20.405  13.544  1.00  0.00     0.162 HD
BRANCH  12  14
HETATM   14  C6  UNL     1      19.563  20.389  14.024  1.00  0.00     0.349 C
HETATM   15  O3  UNL     1      18.919  19.507  13.400  1.00  0.00    -0.284 OA
ENDBRANCH  12  14
ENDBRANCH   5  12
BRANCH   3  16
HETATM   16  O1  UNL     1      22.096  17.445  14.109  1.00  0.00    -0.393 OA
ATOM     17  H1  UNL     1      22.514  16.618  13.900  1.00  0.00     0.210 HD
ENDBRANCH   3  16
BRANCH   4  18
HETATM   18  O2  UNL     1      19.901  18.148  15.521  1.00  0.00    -0.391 OA
ATOM     19  H2  UNL     1      19.503  18.833  14.997  1.00  0.00     0.210 HD
ENDBRANCH   4  18
TORSDOF 7
ENDMDL