MODEL 1
REMARK VINA RESULT: -5.045959928      0.000      0.000
REMARK  5 active torsions:
REMARK  status: ('A' for Active; 'I' for Inactive)
REMARK    1  A    between atoms: N2_4  and  C1_6
REMARK    2  A    between atoms: C1_6  and  O1_7
REMARK    3  A    between atoms: C1_6  and  C2_9
REMARK    4  A    between atoms: N3_14  and  C7_15
REMARK    5  A    between atoms: C7_15  and  O2_16
ROOT
HETATM    1  C2  UNL     1      23.213  19.750  15.256  1.00  0.00     0.246 C
HETATM    2  C3  UNL     1      22.817  21.075  15.855  1.00  0.00     0.023 C
HETATM    3  C4  UNL     1      23.929  22.056  15.513  1.00  0.00     0.008 C
HETATM    4  C5  UNL     1      25.109  21.402  14.882  1.00  0.00     0.028 C
HETATM    5  C6  UNL     1      25.496  20.089  15.473  1.00  0.00     0.240 C
HETATM    6  N3  UNL     1      24.337  19.379  16.043  1.00  0.00    -0.038 N
HETATM    7  C8  UNL     1      24.098  19.846  17.396  1.00  0.00     0.241 C
HETATM    8  C9  UNL     1      22.958  20.806  17.359  1.00  0.00     0.035 C
ENDROOT
BRANCH   1   9
HETATM    9  C1  UNL     1      22.105  18.773  15.145  1.00  0.00     0.264 C
BRANCH   9  10
HETATM   10  N2  UNL     1      20.833  19.311  14.866  1.00  0.00    -0.312 N
HETATM   11  N1  UNL     1      20.511  19.629  13.686  1.00  0.00    -0.347 N
ATOM     12  H12 UNL     1      21.191  19.489  12.938  1.00  0.00     0.176 HD
ATOM     13  H11 UNL     1      19.590  20.018  13.484  1.00  0.00     0.176 HD
ATOM     14  H2  UNL     1      20.166  19.444  15.625  1.00  0.00     0.182 HD
ENDBRANCH   9  10
BRANCH   9  15
HETATM   15  O1  UNL     1      22.456  17.885  14.098  1.00  0.00    -0.373 OA
ATOM     16  H1  UNL     1      23.274  18.179  13.715  1.00  0.00     0.212 HD
ENDBRANCH   9  15
ENDBRANCH   1   9
BRANCH   6  17
HETATM   17  C7  UNL     1      24.672  17.991  16.039  1.00  0.00     0.402 C
BRANCH  17  18
HETATM   18  O2  UNL     1      25.424  17.747  14.866  1.00  0.00    -0.374 OA
ATOM     19  H2  UNL     1      25.852  16.906  14.978  1.00  0.00     0.211 HD
ENDBRANCH  17  18
ENDBRANCH   6  17
TORSDOF 5
ENDMDL