MODEL 5
REMARK VINA RESULT: -5.622888674      1.962      3.097
REMARK  5 active torsions:
REMARK  status: ('A' for Active; 'I' for Inactive)
REMARK       I    between atoms: C1_4  and  N3_6
REMARK    1  A    between atoms: N4_9  and  N5_10
REMARK    2  A    between atoms: N5_10  and  O1_12
REMARK    3  A    between atoms: C4_14  and  C5_15
REMARK    4  A    between atoms: C5_15  and  C6_16
REMARK    5  A    between atoms: C6_16  and  N6_17
ROOT
HETATM    1  N1  UNL     1      22.515  22.873  14.265  1.00  0.00    -0.374 N
ATOM      2  H11 UNL     1      22.358  22.008  13.749  1.00  0.00     0.158 HD
ATOM      3  H12 UNL     1      22.126  23.762  13.950  1.00  0.00     0.158 HD
HETATM    4  C1  UNL     1      23.220  22.817  15.333  1.00  0.00     0.184 C
HETATM    5  N2  UNL     1      23.437  24.021  16.052  1.00  0.00    -0.064 NA
HETATM    6  N3  UNL     1      23.760  21.579  15.771  1.00  0.00    -0.352 N
HETATM    7  C2  UNL     1      25.149  21.323  15.522  1.00  0.00     0.147 C
HETATM    8  C3  UNL     1      25.476  19.896  15.231  1.00  0.00     0.165 C
HETATM    9  N4  UNL     1      24.538  18.994  15.846  1.00  0.00    -0.301 N
HETATM   10  C4  UNL     1      23.137  19.283  15.727  1.00  0.00     0.123 C
HETATM   11  C7  UNL     1      22.910  20.605  16.453  1.00  0.00     0.152 C
ENDROOT
BRANCH  10  12
HETATM   12  C5  UNL     1      22.346  18.169  16.327  1.00  0.00     0.056 C
BRANCH  12  13
HETATM   13  C6  UNL     1      21.583  17.357  15.321  1.00  0.00     0.231 C
BRANCH  13  14
HETATM   14  N6  UNL     1      22.078  17.714  14.000  1.00  0.00    -0.079 N
ATOM     15  H63 UNL     1      22.391  18.683  13.942  1.00  0.00     0.274 HD
ATOM     16  H62 UNL     1      22.969  17.271  13.777  1.00  0.00     0.274 HD
ATOM     17  H61 UNL     1      21.345  17.493  13.325  1.00  0.00     0.274 HD
ENDBRANCH  13  14
ENDBRANCH  12  13
ENDBRANCH  10  12
BRANCH   9  18
HETATM   18  N5  UNL     1      24.950  17.874  16.538  1.00  0.00    -0.212 N
ATOM     19  H5  UNL     1      24.750  17.801  17.536  1.00  0.00     0.215 HD
BRANCH  18  20
HETATM   20  O1  UNL     1      25.553  16.963  15.979  1.00  0.00    -0.275 OA
ATOM     21  H1  UNL     1      25.187  16.088  15.926  1.00  0.00     0.246 HD
ENDBRANCH  18  20
ENDBRANCH   9  18
TORSDOF 5
ENDMDL