MODEL 2
REMARK VINA RESULT: -4.896499328      1.542      4.933
REMARK  3 active torsions:
REMARK  status: ('A' for Active; 'I' for Inactive)
REMARK    1  A    between atoms: N1_2  and  C3_4
REMARK    2  A    between atoms: C3_4  and  C4_5
REMARK    3  A    between atoms: N3_10  and  N4_11
REMARK       I    between atoms: N4_11  and  C8_13
ROOT
HETATM    1  C4  UNL     1      22.907  20.134  15.380  1.00  0.00     0.344 C
HETATM    2  N2  UNL     1      23.664  20.851  16.361  1.00  0.00     0.106 N
HETATM    3  C5  UNL     1      23.781  22.263  16.111  1.00  0.00     0.312 C
HETATM    4  C6  UNL     1      25.035  20.311  16.320  1.00  0.00     0.290 C
HETATM    5  C7  UNL     1      24.945  19.051  15.523  1.00  0.00     0.146 C
HETATM    6  N3  UNL     1      23.516  18.828  15.340  1.00  0.00    -0.193 NA
ENDROOT
BRANCH   6   7
HETATM    7  N4  UNL     1      23.130  17.970  16.350  1.00  0.00    -0.291 N
HETATM    8  C8  UNL     1      22.363  16.829  16.015  1.00  0.00     0.196 C
HETATM    9  N5  UNL     1      22.217  15.815  16.823  1.00  0.00    -0.373 N
HETATM   10  N6  UNL     1      21.698  16.716  14.760  1.00  0.00    -0.063 NA
ATOM     11  H52 UNL     1      22.693  15.896  17.722  1.00  0.00     0.158 HD
ATOM     12  H51 UNL     1      21.664  14.993  16.582  1.00  0.00     0.158 HD
ATOM     13  H4  UNL     1      23.392  18.154  17.318  1.00  0.00     0.183 HD
ENDBRANCH   6   7
BRANCH   1  14
HETATM   14  C3  UNL     1      21.454  20.001  15.684  1.00  0.00     0.324 C
BRANCH  14  15
HETATM   15  N1  UNL     1      20.625  19.631  14.575  1.00  0.00     0.083 N
HETATM   16  C1  UNL     1      19.414  18.942  14.940  1.00  0.00     0.309 C
HETATM   17  C2  UNL     1      20.237  20.846  13.881  1.00  0.00     0.309 C
ENDBRANCH  14  15
ENDBRANCH   1  14
TORSDOF 3
ENDMDL