MODEL 1
REMARK VINA RESULT: -6.468431723      0.000      0.000
REMARK  7 active torsions:
REMARK  status: ('A' for Active; 'I' for Inactive)
REMARK    1  A    between atoms: N1_1  and  C1_4
REMARK    2  A    between atoms: C2_5  and  C3_6
REMARK    3  A    between atoms: C3_6  and  O1_7
REMARK    4  A    between atoms: C3_6  and  C4_9
REMARK    5  A    between atoms: C3_6  and  C5_12
REMARK    6  A    between atoms: C4_9  and  O2_10
REMARK    7  A    between atoms: C5_12  and  N2_13
ROOT
HETATM    1  C3  UNL     1      23.472  21.553  15.857  1.00  0.00     0.160 C
ENDROOT
BRANCH   1   2
HETATM    2  C2  UNL     1      22.321  20.646  15.683  1.00  0.00    -0.042 C
HETATM    3  C1  UNL     1      21.382  19.907  15.524  1.00  0.00     0.006 C
BRANCH   3   4
HETATM    4  N1  UNL     1      20.302  19.035  15.360  1.00  0.00    -0.359 N
ATOM      5  H12 UNL     1      21.065  19.146  16.028  1.00  0.00     0.166 HD
ATOM      6  H11 UNL     1      19.509  18.408  15.226  1.00  0.00     0.166 HD
ENDBRANCH   3   4
ENDBRANCH   1   2
BRANCH   1   7
HETATM    7  O1  UNL     1      23.608  21.748  17.267  1.00  0.00    -0.373 OA
ATOM      8  H1  UNL     1      24.521  21.966  17.413  1.00  0.00     0.212 HD
ENDBRANCH   1   7
BRANCH   1   9
HETATM    9  C4  UNL     1      23.115  22.862  15.263  1.00  0.00     0.217 C
BRANCH   9  10
HETATM   10  O2  UNL     1      22.359  22.856  14.128  1.00  0.00    -0.397 OA
ATOM     11  H2  UNL     1      22.793  23.067  13.310  1.00  0.00     0.209 HD
ENDBRANCH   9  10
ENDBRANCH   1   9
BRANCH   1  12
HETATM   12  C5  UNL     1      24.751  20.929  15.441  1.00  0.00     0.181 C
BRANCH  12  13
HETATM   13  N2  UNL     1      25.129  19.709  16.071  1.00  0.00    -0.363 N
HETATM   14  C6  UNL     1      24.853  18.536  15.473  1.00  0.00     0.090 A
HETATM   15  C7  UNL     1      25.221  17.373  16.095  1.00  0.00     0.017 A
HETATM   16  C8  UNL     1      25.862  17.348  17.311  1.00  0.00     0.003 A
HETATM   17  C9  UNL     1      26.141  18.543  17.912  1.00  0.00     0.017 A
HETATM   18  C10 UNL     1      25.767  19.702  17.280  1.00  0.00     0.090 A
ENDBRANCH  12  13
ENDBRANCH   1  12
TORSDOF 7
ENDMDL