MODEL 2
REMARK VINA RESULT: -5.237924753      2.559      4.022
REMARK  4 active torsions:
REMARK  status: ('A' for Active; 'I' for Inactive)
REMARK    1  A    between atoms: N1_1  and  C1_5
REMARK    2  A    between atoms: C1_5  and  C2_6
REMARK    3  A    between atoms: C2_6  and  N2_7
REMARK    4  A    between atoms: N3_10  and  C5_11
ROOT
HETATM    1  N2  UNL     1      23.625  21.028  15.267  1.00  0.00     0.109 N
HETATM    2  C3  UNL     1      24.466  19.871  15.382  1.00  0.00     0.294 C
HETATM    3  C4  UNL     1      23.600  18.939  16.208  1.00  0.00     0.157 C
HETATM    4  N3  UNL     1      22.312  19.143  15.585  1.00  0.00    -0.333 N
HETATM    5  C6  UNL     1      22.260  20.578  15.310  1.00  0.00     0.399 C
ENDROOT
BRANCH   1   6
HETATM    6  C2  UNL     1      23.932  21.968  16.318  1.00  0.00     0.301 C
BRANCH   6   7
HETATM    7  C1  UNL     1      23.550  23.376  15.926  1.00  0.00     0.260 C
BRANCH   7   8
HETATM    8  N1  UNL     1      23.610  23.440  14.470  1.00  0.00    -0.078 N
ATOM      9  H13 UNL     1      24.556  23.339  14.102  1.00  0.00     0.274 HD
ATOM     10  H12 UNL     1      23.206  22.622  14.016  1.00  0.00     0.274 HD
ATOM     11  H11 UNL     1      23.163  24.314  14.194  1.00  0.00     0.274 HD
ENDBRANCH   7   8
ENDBRANCH   6   7
ENDBRANCH   1   6
BRANCH   4  12
HETATM   12  C5  UNL     1      21.344  18.149  15.319  1.00  0.00     0.184 C
HETATM   13  N4  UNL     1      21.714  16.790  15.142  1.00  0.00    -0.070 NA
HETATM   14  S1  UNL     1      19.780  18.592  15.215  1.00  0.00    -0.044 SA
ENDBRANCH   4  12
TORSDOF 4
ENDMDL