MODEL 3
REMARK VINA RESULT: -6.001379421      3.387      4.168
REMARK  4 active torsions:
REMARK  status: ('A' for Active; 'I' for Inactive)
REMARK    1  A    between atoms: N1_1  and  C1_5
REMARK    2  A    between atoms: C5_9  and  N2_10
REMARK    3  A    between atoms: N2_10  and  S1_12
REMARK    4  A    between atoms: S1_12  and  N3_13
ROOT
HETATM    1  C1  UNL     1      22.486  18.514  14.967  1.00  0.00     0.206 C
HETATM    2  C2  UNL     1      21.496  17.499  15.498  1.00  0.00     0.035 C
HETATM    3  C3  UNL     1      20.202  18.254  15.745  1.00  0.00     0.004 C
HETATM    4  C4  UNL     1      20.456  19.588  15.018  1.00  0.00     0.028 C
HETATM    5  C5  UNL     1      21.868  19.800  15.494  1.00  0.00     0.124 C
ENDROOT
BRANCH   5   6
HETATM    6  N2  UNL     1      22.496  20.975  15.136  1.00  0.00    -0.296 N
ATOM      7  H2  UNL     1      22.155  21.493  14.326  1.00  0.00     0.174 HD
BRANCH   6   8
HETATM    8  S1  UNL     1      23.796  21.571  15.992  1.00  0.00     0.313 S
HETATM    9  O1  UNL     1      23.835  20.957  17.366  1.00  0.00    -0.183 OA
HETATM   10  O2  UNL     1      25.096  21.260  15.335  1.00  0.00    -0.183 OA
BRANCH   8  11
HETATM   11  N3  UNL     1      23.611  23.277  16.220  1.00  0.00    -0.312 N
ATOM     12  H32 UNL     1      24.134  23.986  15.708  1.00  0.00     0.170 HD
ATOM     13  H31 UNL     1      22.907  23.453  16.937  1.00  0.00     0.170 HD
ENDBRANCH   8  11
ENDBRANCH   6   8
ENDBRANCH   5   6
BRANCH   1  14
HETATM   14  N1  UNL     1      23.803  18.353  15.523  1.00  0.00    -0.073 N
ATOM     15  H13 UNL     1      24.520  18.506  14.813  1.00  0.00     0.274 HD
ATOM     16  H12 UNL     1      24.030  19.122  16.153  1.00  0.00     0.274 HD
ATOM     17  H11 UNL     1      23.932  17.453  15.984  1.00  0.00     0.274 HD
ENDBRANCH   1  14
TORSDOF 4
ENDMDL