MODEL 1
REMARK VINA RESULT: -6.335446924      0.000      0.000
REMARK  6 active torsions:
REMARK  status: ('A' for Active; 'I' for Inactive)
REMARK    1  A    between atoms: N1_1  and  S1_4
REMARK    2  A    between atoms: S1_4  and  C1_6
REMARK    3  A    between atoms: C1_6  and  C2_7
REMARK    4  A    between atoms: C4_9  and  O2_10
REMARK    5  A    between atoms: C5_12  and  C6_13
REMARK    6  A    between atoms: C6_13  and  O3_14
ROOT
HETATM    1  C2  UNL     1      22.257  20.557  15.823  1.00  0.00     0.010 C
HETATM    2  C3  UNL     1      23.041  21.747  15.341  1.00  0.00     0.038 C
HETATM    3  C4  UNL     1      24.111  21.343  16.343  1.00  0.00     0.125 C
HETATM    4  C5  UNL     1      23.542  19.926  16.230  1.00  0.00     0.043 C
ENDROOT
BRANCH   1   5
HETATM    5  C1  UNL     1      21.430  19.852  14.800  1.00  0.00     0.137 C
BRANCH   5   6
HETATM    6  S1  UNL     1      20.685  18.387  15.443  1.00  0.00     0.108 S
HETATM    7  O1  UNL     1      19.141  18.248  14.796  1.00  0.00    -0.236 OA
BRANCH   6   8
HETATM    8  N1  UNL     1      21.567  16.970  15.049  1.00  0.00    -0.350 NA
ATOM      9  H12 UNL     1      21.088  16.116  15.338  1.00  0.00     0.166 HD
ATOM     10  H11 UNL     1      22.468  17.010  15.523  1.00  0.00     0.166 HD
ENDBRANCH   6   8
ENDBRANCH   5   6
ENDBRANCH   1   5
BRANCH   4  11
HETATM   11  C6  UNL     1      24.293  19.208  15.111  1.00  0.00     0.171 C
BRANCH  11  12
HETATM   12  O3  UNL     1      24.451  17.871  15.472  1.00  0.00    -0.400 OA
ATOM     13  H3  UNL     1      24.276  17.330  14.711  1.00  0.00     0.209 HD
ENDBRANCH  11  12
ENDBRANCH   4  11
BRANCH   3  14
HETATM   14  O2  UNL     1      23.807  21.881  17.583  1.00  0.00    -0.395 OA
ATOM     15  H2  UNL     1      24.590  22.265  17.960  1.00  0.00     0.210 HD
ENDBRANCH   3  14
TORSDOF 6
ENDMDL