MODEL 2
REMARK VINA RESULT: -6.600015912      2.025      4.484
REMARK  4 active torsions:
REMARK  status: ('A' for Active; 'I' for Inactive)
REMARK    1  A    between atoms: N1_1  and  N2_4
REMARK    2  A    between atoms: C1_6  and  C2_7
REMARK    3  A    between atoms: C1_6  and  N4_15
REMARK    4  A    between atoms: C2_7  and  C3_8
ROOT
HETATM    1  N2  UNL     1      19.712  19.017  14.538  1.00  0.00    -0.295 N
ATOM      2  H2  UNL     1      19.349  18.070  14.642  1.00  0.00     0.187 HD
HETATM    3  C1  UNL     1      20.667  19.308  15.312  1.00  0.00     0.103 C
ENDROOT
BRANCH   3   4
HETATM    4  C2  UNL     1      21.415  20.554  15.434  1.00  0.00     0.135 C
BRANCH   4   5
HETATM    5  C3  UNL     1      22.855  20.447  15.653  1.00  0.00     0.016 A
HETATM    6  C4  UNL     1      23.462  21.354  16.495  1.00  0.00     0.025 A
HETATM    7  C5  UNL     1      24.812  21.332  16.769  1.00  0.00     0.003 A
HETATM    8  C6  UNL     1      25.574  20.360  16.174  1.00  0.00     0.017 A
HETATM    9  C7  UNL     1      24.963  19.456  15.335  1.00  0.00     0.088 A
HETATM   10  N3  UNL     1      23.642  19.509  15.090  1.00  0.00    -0.369 N
ATOM     11  H3  UNL     1      23.225  18.821  14.462  1.00  0.00     0.165 HD
ENDBRANCH   4   5
ENDBRANCH   3   4
BRANCH   3  12
HETATM   12  N4  UNL     1      21.077  18.241  16.210  1.00  0.00    -0.321 N
HETATM   13  C8  UNL     1      21.685  17.202  15.737  1.00  0.00     0.202 C
HETATM   14  N5  UNL     1      21.936  17.128  14.356  1.00  0.00    -0.066 NA
HETATM   15  N6  UNL     1      22.107  16.133  16.560  1.00  0.00    -0.066 NA
ATOM     16  H4  UNL     1      20.886  18.312  17.209  1.00  0.00     0.169 HD
ENDBRANCH   3  12
BRANCH   1  17
HETATM   17  N1  UNL     1      19.086  19.773  13.582  1.00  0.00    -0.344 N
ATOM     18  H12 UNL     1      19.727  20.188  12.905  1.00  0.00     0.176 HD
ATOM     19  H11 UNL     1      18.097  19.979  13.448  1.00  0.00     0.176 HD
ENDBRANCH   1  17
TORSDOF 4
ENDMDL