MODEL 3
REMARK VINA RESULT: -5.552402839      1.605      5.436
REMARK  5 active torsions:
REMARK  status: ('A' for Active; 'I' for Inactive)
REMARK    1  A    between atoms: N2_5  and  C4_6
REMARK    2  A    between atoms: C4_6  and  C5_7
REMARK    3  A    between atoms: C5_7  and  C6_8
REMARK    4  A    between atoms: C6_8  and  N5_13
REMARK    5  A    between atoms: N5_13  and  N6_15
ROOT
HETATM    1  C6  UNL     1      21.148  19.018  14.659  1.00  0.00     0.105 C
HETATM    2  N3  UNL     1      21.398  17.761  14.504  1.00  0.00    -0.282 N
ATOM      3  H3  UNL     1      21.228  17.295  13.612  1.00  0.00     0.179 HD
HETATM    4  C7  UNL     1      21.911  17.057  15.604  1.00  0.00     0.183 C
HETATM    5  N4  UNL     1      22.355  16.477  16.516  1.00  0.00    -0.172 NA
ENDROOT
BRANCH   1   6
HETATM    6  C5  UNL     1      21.382  19.741  15.940  1.00  0.00     0.099 C
BRANCH   6   7
HETATM    7  C4  UNL     1      22.329  20.892  15.629  1.00  0.00     0.136 C
BRANCH   7   8
HETATM    8  N2  UNL     1      23.705  20.509  15.964  1.00  0.00    -0.351 N
HETATM    9  C3  UNL     1      24.829  20.987  15.397  1.00  0.00     0.109 A
HETATM   10  C2  UNL     1      25.918  20.360  16.006  1.00  0.00     0.108 A
HETATM   11  N1  UNL     1      25.432  19.514  16.932  1.00  0.00    -0.356 N
HETATM   12  C1  UNL     1      26.146  18.628  17.837  1.00  0.00     0.156 C
HETATM   13  C8  UNL     1      24.088  19.617  16.893  1.00  0.00     0.184 A
ENDBRANCH   7   8
ENDBRANCH   6   7
ENDBRANCH   1   6
BRANCH   1  14
HETATM   14  N5  UNL     1      20.623  19.799  13.581  1.00  0.00    -0.295 N
ATOM     15  H5  UNL     1      21.165  19.875  12.721  1.00  0.00     0.187 HD
BRANCH  14  16
HETATM   16  N6  UNL     1      19.409  20.456  13.661  1.00  0.00    -0.344 N
ATOM     17  H62 UNL     1      18.976  20.541  14.580  1.00  0.00     0.176 HD
ATOM     18  H61 UNL     1      18.943  20.850  12.843  1.00  0.00     0.176 HD
ENDBRANCH  14  16
ENDBRANCH   1  14
TORSDOF 5
ENDMDL