MODEL 3
REMARK VINA RESULT: -7.243388552      2.132      3.677
REMARK  10 active torsions:
REMARK  status: ('A' for Active; 'I' for Inactive)
REMARK    1  A    between atoms: O1_2  and  C2_3
REMARK    2  A    between atoms: C2_3  and  C3_5
REMARK    3  A    between atoms: C3_5  and  N1_6
REMARK    4  A    between atoms: C3_5  and  C15_23
REMARK       I    between atoms: N1_6  and  C4_8
REMARK    5  A    between atoms: C4_8  and  C5_10
REMARK    6  A    between atoms: C5_10  and  C6_11
REMARK    7  A    between atoms: C5_10  and  N2_18
REMARK    8  A    between atoms: C6_11  and  C7_12
REMARK       I    between atoms: N2_18  and  C13_20
REMARK    9  A    between atoms: C15_23  and  O5_24
REMARK   10  A    between atoms: N3_26  and  O6_28
ROOT
HETATM    1  N1  UNL     1      -2.391   0.773   5.520  1.00  0.00    -0.339 N
ATOM      2  H1  UNL     1      -2.643   0.242   4.687  1.00  0.00     0.163 HD
HETATM    3  C4  UNL     1      -1.970   2.132   5.374  1.00  0.00     0.241 C
HETATM    4  O3  UNL     1      -1.648   2.817   6.386  1.00  0.00    -0.271 OA
ENDROOT
BRANCH   3   5
HETATM    5  C5  UNL     1      -1.908   2.719   4.049  1.00  0.00     0.180 C
BRANCH   5   6
HETATM    6  C6  UNL     1      -1.324   4.076   3.903  1.00  0.00     0.073 C
BRANCH   6   7
HETATM    7  C7  UNL     1      -1.361   4.746   2.625  1.00  0.00    -0.056 A
HETATM    8  C8  UNL     1      -0.221   5.282   2.068  1.00  0.00     0.007 A
HETATM    9  C9  UNL     1      -0.317   5.947   0.858  1.00  0.00     0.001 A
HETATM   10  C10 UNL     1      -1.513   6.099   0.180  1.00  0.00     0.000 A
HETATM   11  C11 UNL     1      -2.650   5.559   0.744  1.00  0.00     0.001 A
HETATM   12  C12 UNL     1      -2.557   4.893   1.954  1.00  0.00     0.007 A
ENDBRANCH   6   7
ENDBRANCH   5   6
BRANCH   5  13
HETATM   13  N2  UNL     1      -1.051   1.798   3.249  1.00  0.00    -0.348 N
HETATM   14  C13 UNL     1       0.341   1.715   3.438  1.00  0.00     0.214 C
HETATM   15  C14 UNL     1       1.122   0.766   2.593  1.00  0.00     0.117 C
HETATM   16  O4  UNL     1       0.875   2.440   4.308  1.00  0.00    -0.274 OA
ATOM     17  H2  UNL     1      -1.488   1.208   2.540  1.00  0.00     0.163 HD
ENDBRANCH   5  13
ENDBRANCH   3   5
BRANCH   1  18
HETATM   18  C3  UNL     1      -2.472   0.126   6.813  1.00  0.00     0.261 C
BRANCH  18  19
HETATM   19  C2  UNL     1      -3.163  -1.178   6.619  1.00  0.00     0.289 C
HETATM   20  O2  UNL     1      -2.489  -2.214   6.390  1.00  0.00    -0.262 OA
BRANCH  19  21
HETATM   21  O1  UNL     1      -4.543  -1.303   6.680  1.00  0.00    -0.325 OA
HETATM   22  C1  UNL     1      -5.235  -1.849   5.593  1.00  0.00     0.213 C
ENDBRANCH  19  21
ENDBRANCH  18  19
BRANCH  18  23
HETATM   23  C15 UNL     1      -3.166   0.900   7.840  1.00  0.00     0.168 C
HETATM   24  N3  UNL     1      -2.779   0.837   9.066  1.00  0.00    -0.249 N
ATOM     25  H3  UNL     1      -1.986   0.241   9.305  1.00  0.00     0.196 HD
BRANCH  23  26
HETATM   26  O5  UNL     1      -4.243   1.709   7.522  1.00  0.00    -0.346 OA
ATOM     27  H5  UNL     1      -4.943   1.865   8.147  1.00  0.00     0.219 HD
ENDBRANCH  23  26
BRANCH  24  28
HETATM   28  O6  UNL     1      -3.409   1.555  10.075  1.00  0.00    -0.288 OA
ATOM     29  H6  UNL     1      -3.254   1.374  10.995  1.00  0.00     0.244 HD
ENDBRANCH  24  28
ENDBRANCH  18  23
ENDBRANCH   1  18
TORSDOF 10
ENDMDL