MODEL 4
REMARK VINA RESULT: -7.686440629      2.357      4.347
REMARK  9 active torsions:
REMARK  status: ('A' for Active; 'I' for Inactive)
REMARK    1  A    between atoms: C2_2  and  N1_3
REMARK    2  A    between atoms: C2_2  and  C10_14
REMARK    3  A    between atoms: N1_3  and  N2_4
REMARK       I    between atoms: N2_4  and  C3_6
REMARK    4  A    between atoms: C3_6  and  C4_8
REMARK       I    between atoms: C10_14  and  N3_16
REMARK    5  A    between atoms: N3_16  and  C11_18
REMARK    6  A    between atoms: C11_18  and  C12_19
REMARK    7  A    between atoms: C11_18  and  C14_23
REMARK    8  A    between atoms: C12_19  and  C13_20
REMARK    9  A    between atoms: C14_23  and  O5_26
ROOT
HETATM    1  C10 UNL     1      -1.548   1.898   4.981  1.00  0.00     0.280 C
HETATM    2  O2  UNL     1      -1.378   2.840   5.784  1.00  0.00    -0.265 OA
HETATM    3  N3  UNL     1      -2.177   0.698   5.240  1.00  0.00    -0.347 N
ATOM      4  H3  UNL     1      -2.219   0.080   4.429  1.00  0.00     0.163 HD
ENDROOT
BRANCH   1   5
HETATM    5  C2  UNL     1      -0.991   2.150   3.615  1.00  0.00     0.172 C
HETATM    6  C1  UNL     1       0.162   1.257   3.200  1.00  0.00     0.093 C
BRANCH   5   7
HETATM    7  N1  UNL     1      -1.414   2.978   2.925  1.00  0.00    -0.322 NA
BRANCH   7   8
HETATM    8  N2  UNL     1      -1.838   3.910   2.147  1.00  0.00    -0.198 N
HETATM    9  C3  UNL     1      -0.879   4.801   1.511  1.00  0.00     0.280 C
HETATM   10  O1  UNL     1       0.344   4.660   1.723  1.00  0.00    -0.265 OA
ATOM     11  H2  UNL     1      -2.837   4.025   1.977  1.00  0.00     0.205 HD
BRANCH   9  12
HETATM   12  C4  UNL     1      -1.328   5.859   0.626  1.00  0.00     0.034 A
HETATM   13  C5  UNL     1      -0.518   6.765  -0.014  1.00  0.00     0.017 A
HETATM   14  C6  UNL     1      -1.018   7.760  -0.862  1.00  0.00     0.001 A
HETATM   15  C7  UNL     1      -2.363   7.865  -1.086  1.00  0.00     0.000 A
HETATM   16  C8  UNL     1      -3.196   6.968  -0.456  1.00  0.00     0.001 A
HETATM   17  C9  UNL     1      -2.702   5.996   0.373  1.00  0.00     0.017 A
ENDBRANCH   9  12
ENDBRANCH   7   8
ENDBRANCH   5   7
ENDBRANCH   1   5
BRANCH   3  18
HETATM   18  C11 UNL     1      -2.779   0.146   6.404  1.00  0.00     0.128 C
BRANCH  18  19
HETATM   19  C12 UNL     1      -3.721   1.073   7.167  1.00  0.00     0.141 C
BRANCH  19  20
HETATM   20  C13 UNL     1      -3.207   1.354   8.527  1.00  0.00     0.174 C
HETATM   21  O3  UNL     1      -3.381   0.508   9.442  1.00  0.00    -0.648 OA
HETATM   22  O4  UNL     1      -2.547   2.526   8.790  1.00  0.00    -0.648 OA
ENDBRANCH  19  20
ENDBRANCH  18  19
BRANCH  18  23
HETATM   23  C14 UNL     1      -3.309  -1.229   6.209  1.00  0.00     0.071 C
HETATM   24  C15 UNL     1      -4.386  -1.306   5.159  1.00  0.00     0.047 C
HETATM   25  C16 UNL     1      -2.188  -2.219   5.866  1.00  0.00     0.047 C
BRANCH  23  26
HETATM   26  O5  UNL     1      -3.871  -1.747   7.399  1.00  0.00    -0.389 OA
ATOM     27  H5  UNL     1      -3.202  -1.966   8.037  1.00  0.00     0.210 HD
ENDBRANCH  23  26
ENDBRANCH  18  23
ENDBRANCH   3  18
TORSDOF 9
ENDMDL