MODEL 1
REMARK VINA RESULT: -6.236237785      0.000      0.000
REMARK  8 active torsions:
REMARK  status: ('A' for Active; 'I' for Inactive)
REMARK       I    between atoms: C2_2  and  N1_4
REMARK    1  A    between atoms: N1_4  and  C3_6
REMARK    2  A    between atoms: C3_6  and  C4_7
REMARK    3  A    between atoms: C3_6  and  C12_22
REMARK       I    between atoms: C4_7  and  N2_9
REMARK    4  A    between atoms: N2_9  and  C5_11
REMARK    5  A    between atoms: C5_11  and  C7_13
REMARK    6  A    between atoms: C7_13  and  N3_14
REMARK    7  A    between atoms: C7_13  and  C11_19
REMARK    8  A    between atoms: N3_14  and  C8_16
ROOT
HETATM    1  C4  UNL     1      -0.676   6.796   1.973  1.00  0.00     0.241 C
HETATM    2  O2  UNL     1      -0.061   7.434   1.071  1.00  0.00    -0.271 OA
HETATM    3  N2  UNL     1      -0.818   7.348   3.268  1.00  0.00    -0.353 N
ATOM      4  H2  UNL     1      -1.315   6.819   3.986  1.00  0.00     0.163 HD
ENDROOT
BRANCH   1   5
HETATM    5  C3  UNL     1      -1.228   5.466   1.602  1.00  0.00     0.180 C
BRANCH   5   6
HETATM    6  N1  UNL     1      -2.632   5.559   1.377  1.00  0.00    -0.348 N
HETATM    7  C2  UNL     1      -3.226   5.983   0.163  1.00  0.00     0.214 C
HETATM    8  C1  UNL     1      -4.701   6.055   0.007  1.00  0.00     0.117 C
HETATM    9  O1  UNL     1      -2.520   6.311  -0.815  1.00  0.00    -0.274 OA
ATOM     10  H1  UNL     1      -3.253   5.303   2.144  1.00  0.00     0.163 HD
ENDBRANCH   5   6
BRANCH   5  11
HETATM   11  C12 UNL     1      -0.933   4.517   2.765  1.00  0.00     0.018 C
HETATM   12  C13 UNL     1       0.298   3.687   2.452  1.00  0.00     0.007 C
HETATM   13  C14 UNL     1       0.677   2.866   3.650  1.00  0.00     0.000 C
HETATM   14  C15 UNL     1      -0.473   2.183   4.308  1.00  0.00     0.000 C
HETATM   15  C16 UNL     1      -1.656   2.236   3.352  1.00  0.00     0.000 C
HETATM   16  C17 UNL     1      -2.104   3.660   3.113  1.00  0.00     0.007 C
ENDBRANCH   5  11
ENDBRANCH   1   5
BRANCH   3  17
HETATM   17  C5  UNL     1      -0.281   8.629   3.588  1.00  0.00     0.111 C
HETATM   18  C6  UNL     1       1.120   8.499   4.055  1.00  0.00     0.034 C
BRANCH  17  19
HETATM   19  C7  UNL     1      -1.163   9.490   4.409  1.00  0.00     0.189 C
BRANCH  19  20
HETATM   20  N3  UNL     1      -1.514   9.120   5.704  1.00  0.00    -0.405 N
ATOM     21  H3  UNL     1      -2.148   8.336   5.855  1.00  0.00     0.154 HD
BRANCH  20  22
HETATM   22  C8  UNL     1      -0.996   9.824   6.805  1.00  0.00     0.069 C
HETATM   23  C9  UNL     1      -1.977  10.792   7.468  1.00  0.00     0.031 C
HETATM   24  C10 UNL     1      -0.553   8.873   7.926  1.00  0.00     0.031 C
ENDBRANCH  20  22
ENDBRANCH  19  20
BRANCH  19  25
HETATM   25  C11 UNL     1      -2.413   9.850   3.667  1.00  0.00     0.255 C
HETATM   26  N4  UNL     1      -2.357   9.989   2.261  1.00  0.00    -0.060 NA
HETATM   27  O3  UNL     1      -3.517  10.036   4.239  1.00  0.00    -0.275 OA
ENDBRANCH  19  25
ENDBRANCH  17  19
ENDBRANCH   3  17
TORSDOF 8
ENDMDL