MODEL 5
REMARK VINA RESULT: -6.216487284      1.335      1.816
REMARK  11 active torsions:
REMARK  status: ('A' for Active; 'I' for Inactive)
REMARK    1  A    between atoms: C2_3  and  C3_5
REMARK    2  A    between atoms: C3_5  and  O2_6
REMARK    3  A    between atoms: C3_5  and  C4_8
REMARK    4  A    between atoms: C4_8  and  N2_9
REMARK    5  A    between atoms: C4_8  and  C11_23
REMARK       I    between atoms: N2_9  and  C5_11
REMARK    6  A    between atoms: C5_11  and  C6_13
REMARK    7  A    between atoms: C6_13  and  O4_14
REMARK    8  A    between atoms: O4_14  and  C7_15
REMARK    9  A    between atoms: C7_15  and  O5_16
REMARK   10  A    between atoms: C7_15  and  N3_18
REMARK   11  A    between atoms: N3_18  and  C8_20
ROOT
HETATM    1  C1  UNL     1      -1.792   3.509   8.577  1.00  0.00     0.233 C
HETATM    2  N1  UNL     1      -2.242   2.304   8.425  1.00  0.00    -0.393 NA
HETATM    3  C2  UNL     1      -2.739   0.973   8.257  1.00  0.00     0.321 C
HETATM    4  O1  UNL     1      -3.934   0.690   8.490  1.00  0.00    -0.254 OA
ENDROOT
BRANCH   3   5
HETATM    5  C3  UNL     1      -1.776  -0.090   7.794  1.00  0.00     0.252 C
BRANCH   5   6
HETATM    6  O2  UNL     1      -2.139  -1.258   8.498  1.00  0.00    -0.383 OA
ATOM      7  H2  UNL     1      -1.336  -1.755   8.595  1.00  0.00     0.210 HD
ENDBRANCH   5   6
BRANCH   5   8
HETATM    8  C4  UNL     1      -1.800  -0.230   6.317  1.00  0.00     0.157 C
BRANCH   8   9
HETATM    9  N2  UNL     1      -2.279   0.920   5.568  1.00  0.00    -0.348 N
HETATM   10  C5  UNL     1      -1.464   1.865   4.904  1.00  0.00     0.242 C
HETATM   11  O3  UNL     1      -0.183   1.768   4.869  1.00  0.00    -0.271 OA
ATOM     12  H2  UNL     1      -3.288   1.057   5.517  1.00  0.00     0.163 HD
BRANCH  10  13
HETATM   13  C6  UNL     1      -2.053   3.030   4.223  1.00  0.00     0.282 C
BRANCH  13  14
HETATM   14  O4  UNL     1      -1.759   3.001   2.815  1.00  0.00    -0.307 OA
BRANCH  14  15
HETATM   15  C7  UNL     1      -0.975   4.032   2.321  1.00  0.00     0.258 C
BRANCH  15  16
HETATM   16  O5  UNL     1       0.301   3.846   2.549  1.00  0.00    -0.327 OA
ATOM     17  H5  UNL     1       0.744   4.643   2.816  1.00  0.00     0.221 HD
ENDBRANCH  15  16
BRANCH  15  18
HETATM   18  N3  UNL     1      -1.375   5.184   1.661  1.00  0.00    -0.347 N
ATOM     19  H3  UNL     1      -2.359   5.380   1.477  1.00  0.00     0.164 HD
BRANCH  18  20
HETATM   20  C8  UNL     1      -0.315   6.109   1.239  1.00  0.00     0.077 C
HETATM   21  C9  UNL     1      -0.558   6.692  -0.092  1.00  0.00     0.032 C
HETATM   22  C10 UNL     1      -0.310   7.270   2.251  1.00  0.00     0.032 C
ENDBRANCH  18  20
ENDBRANCH  15  18
ENDBRANCH  14  15
ENDBRANCH  13  14
ENDBRANCH  10  13
ENDBRANCH   8   9
BRANCH   8  23
HETATM   23  C11 UNL     1      -2.706  -1.343   5.885  1.00  0.00    -0.033 A
HETATM   24  C12 UNL     1      -4.046  -1.147   5.657  1.00  0.00     0.009 A
HETATM   25  C13 UNL     1      -4.887  -2.192   5.200  1.00  0.00     0.001 A
HETATM   26  C14 UNL     1      -4.334  -3.382   4.995  1.00  0.00     0.000 A
HETATM   27  C15 UNL     1      -3.022  -3.667   5.188  1.00  0.00     0.001 A
HETATM   28  C16 UNL     1      -2.196  -2.597   5.651  1.00  0.00     0.009 A
ENDBRANCH   8  23
ENDBRANCH   5   8
ENDBRANCH   3   5
TORSDOF 10
ENDMDL