MODEL 4
REMARK VINA RESULT: -5.634184126      0.762      1.166
REMARK  12 active torsions:
REMARK  status: ('A' for Active; 'I' for Inactive)
REMARK    1  A    between atoms: C2_2  and  O1_4
REMARK    2  A    between atoms: O1_4  and  C4_5
REMARK    3  A    between atoms: C4_5  and  O2_6
REMARK    4  A    between atoms: N1_8  and  C5_10
REMARK    5  A    between atoms: C5_10  and  C6_11
REMARK    6  A    between atoms: C6_11  and  C7_12
REMARK    7  A    between atoms: C7_12  and  C8_13
REMARK    8  A    between atoms: C8_13  and  O3_14
REMARK    9  A    between atoms: C8_13  and  N2_16
REMARK   10  A    between atoms: C9_18  and  C10_19
REMARK   11  A    between atoms: C11_22  and  O6_23
REMARK   12  A    between atoms: C11_22  and  N3_25
ROOT
HETATM    1  C5  UNL     1      -1.058   5.992   1.790  1.00  0.00     0.064 C
HETATM    2  C11 UNL     1      -0.658   7.363   1.727  1.00  0.00     0.161 C
ENDROOT
BRANCH   1   3
HETATM    3  N1  UNL     1      -2.480   5.766   1.834  1.00  0.00    -0.316 N
HETATM    4  C4  UNL     1      -3.366   5.897   0.812  1.00  0.00     0.263 C
ATOM      5  H1  UNL     1      -2.865   5.475   2.733  1.00  0.00     0.170 HD
BRANCH   4   6
HETATM    6  O1  UNL     1      -4.682   5.722   0.807  1.00  0.00    -0.312 OA
BRANCH   6   7
HETATM    7  C2  UNL     1      -5.682   5.904  -0.127  1.00  0.00     0.124 C
HETATM    8  C1  UNL     1      -7.028   5.898   0.565  1.00  0.00     0.040 C
HETATM    9  C3  UNL     1      -5.714   4.760  -1.146  1.00  0.00     0.040 C
ENDBRANCH   6   7
ENDBRANCH   4   6
BRANCH   4  10
HETATM   10  O2  UNL     1      -2.870   6.280  -0.375  1.00  0.00    -0.327 OA
ATOM     11  H2  UNL     1      -1.941   6.104  -0.474  1.00  0.00     0.221 HD
ENDBRANCH   4  10
ENDBRANCH   1   3
BRANCH   1  12
HETATM   12  C6  UNL     1      -0.191   4.992   2.421  1.00  0.00     0.066 C
BRANCH  12  13
HETATM   13  C7  UNL     1      -0.760   3.630   2.533  1.00  0.00     0.059 C
BRANCH  13  14
HETATM   14  C8  UNL     1      -0.678   3.041   3.899  1.00  0.00     0.217 C
BRANCH  14  15
HETATM   15  O3  UNL     1       0.540   2.332   3.993  1.00  0.00    -0.377 OA
ATOM     16  H3  UNL     1       0.785   2.294   4.910  1.00  0.00     0.212 HD
ENDBRANCH  14  15
BRANCH  14  17
HETATM   17  N2  UNL     1      -1.750   2.149   4.283  1.00  0.00    -0.367 N
HETATM   18  C9  UNL     1      -1.918   1.923   5.563  1.00  0.00     0.170 C
ATOM     19  H2  UNL     1      -2.353   1.713   3.585  1.00  0.00     0.161 HD
BRANCH  18  20
HETATM   20  C10 UNL     1      -2.943   1.061   6.082  1.00  0.00     0.214 C
HETATM   21  O4  UNL     1      -3.183  -0.093   5.550  1.00  0.00    -0.644 OA
HETATM   22  O5  UNL     1      -3.771   1.338   7.153  1.00  0.00    -0.644 OA
ENDBRANCH  18  20
ENDBRANCH  14  17
ENDBRANCH  13  14
ENDBRANCH  12  13
ENDBRANCH   1  12
BRANCH   2  23
HETATM   23  O6  UNL     1      -0.234   7.737   0.497  1.00  0.00    -0.345 OA
ATOM     24  H6  UNL     1      -0.853   7.523  -0.191  1.00  0.00     0.219 HD
ENDBRANCH   2  23
BRANCH   2  25
HETATM   25  N3  UNL     1      -0.624   8.405   2.624  1.00  0.00    -0.360 N
HETATM   26  C12 UNL     1       0.455   9.321   3.056  1.00  0.00     0.125 C
HETATM   27  C13 UNL     1       0.486   8.877   4.528  1.00  0.00     0.021 C
HETATM   28  C14 UNL     1      -0.987   8.866   4.879  1.00  0.00     0.021 C
HETATM   29  C15 UNL     1      -1.708   8.839   3.515  1.00  0.00     0.125 C
ENDBRANCH   2  25
TORSDOF 12
ENDMDL