MODEL 2
REMARK VINA RESULT: -6.635775877      0.728      1.352
REMARK  8 active torsions:
REMARK  status: ('A' for Active; 'I' for Inactive)
REMARK    1  A    between atoms: C1_2  and  C2_4
REMARK    2  A    between atoms: C2_4  and  N1_5
REMARK       I    between atoms: N1_5  and  C3_7
REMARK    3  A    between atoms: C3_7  and  C4_9
REMARK    4  A    between atoms: C4_9  and  O4_10
REMARK    5  A    between atoms: C4_9  and  C5_12
REMARK    6  A    between atoms: C5_12  and  N2_13
REMARK    7  A    between atoms: C5_12  and  C11_22
REMARK       I    between atoms: N2_13  and  C6_15
REMARK    8  A    between atoms: C6_15  and  C7_17
ROOT
HETATM    1  C5  UNL     1      -1.245   5.492   2.271  1.00  0.00     0.156 C
ENDROOT
BRANCH   1   2
HETATM    2  C4  UNL     1      -0.030   6.328   2.028  1.00  0.00     0.237 C
BRANCH   2   3
HETATM    3  C3  UNL     1      -0.086   7.608   2.774  1.00  0.00     0.249 C
HETATM    4  N1  UNL     1      -1.303   8.294   3.028  1.00  0.00    -0.349 N
ATOM      5  H1  UNL     1      -2.177   7.895   2.684  1.00  0.00     0.163 HD
HETATM    6  O3  UNL     1       0.976   8.091   3.189  1.00  0.00    -0.271 OA
BRANCH   4   7
HETATM    7  C2  UNL     1      -1.340   9.527   3.751  1.00  0.00     0.235 C
BRANCH   7   8
HETATM    8  C1  UNL     1      -2.622   9.770   4.445  1.00  0.00     0.191 C
HETATM    9  O1  UNL     1      -3.706  10.059   3.882  1.00  0.00    -0.647 OA
HETATM   10  O2  UNL     1      -2.617   9.670   5.830  1.00  0.00    -0.647 OA
ENDBRANCH   7   8
ENDBRANCH   4   7
ENDBRANCH   2   3
BRANCH   2  11
HETATM   11  O4  UNL     1      -0.039   6.675   0.654  1.00  0.00    -0.384 OA
ATOM     12  H4  UNL     1       0.783   6.360   0.297  1.00  0.00     0.210 HD
ENDBRANCH   2  11
ENDBRANCH   1   2
BRANCH   1  13
HETATM   13  N2  UNL     1      -2.043   5.350   1.049  1.00  0.00    -0.344 N
HETATM   14  C6  UNL     1      -3.259   6.024   0.854  1.00  0.00     0.276 C
HETATM   15  O5  UNL     1      -3.683   6.778   1.755  1.00  0.00    -0.265 OA
ATOM     16  H2  UNL     1      -1.700   4.736   0.310  1.00  0.00     0.163 HD
BRANCH  14  17
HETATM   17  C7  UNL     1      -4.027   5.861  -0.372  1.00  0.00     0.142 A
HETATM   18  C8  UNL     1      -5.280   5.254  -0.456  1.00  0.00     0.045 A
HETATM   19  C9  UNL     1      -5.670   5.294  -1.761  1.00  0.00     0.027 A
HETATM   20  C10 UNL     1      -4.652   5.923  -2.443  1.00  0.00     0.143 A
HETATM   21  O6  UNL     1      -3.729   6.227  -1.585  1.00  0.00    -0.317 OA
ENDBRANCH  14  17
ENDBRANCH   1  13
BRANCH   1  22
HETATM   22  C11 UNL     1      -1.027   4.150   2.788  1.00  0.00    -0.033 A
HETATM   23  C12 UNL     1      -2.057   3.254   3.035  1.00  0.00     0.009 A
HETATM   24  C13 UNL     1      -1.755   2.012   3.534  1.00  0.00     0.001 A
HETATM   25  C14 UNL     1      -0.446   1.633   3.797  1.00  0.00     0.000 A
HETATM   26  C15 UNL     1       0.599   2.509   3.560  1.00  0.00     0.001 A
HETATM   27  C16 UNL     1       0.267   3.748   3.060  1.00  0.00     0.009 A
ENDBRANCH   1  22
TORSDOF 8
ENDMDL