MODEL 1
REMARK VINA RESULT: -9.156667531      0.000      0.000
REMARK  10 active torsions:
REMARK  status: ('A' for Active; 'I' for Inactive)
REMARK    1  A    between atoms: C1_2  and  C2_3
REMARK       I    between atoms: C1_2  and  N2_15
REMARK    2  A    between atoms: C2_3  and  N1_4
REMARK       I    between atoms: N1_4  and  C3_6
REMARK    3  A    between atoms: C3_6  and  O3_8
REMARK    4  A    between atoms: O3_8  and  C4_9
REMARK    5  A    between atoms: N2_15  and  C10_17
REMARK    6  A    between atoms: C10_17  and  C11_18
REMARK    7  A    between atoms: C10_17  and  C18_25
REMARK    8  A    between atoms: C11_18  and  C12_19
REMARK    9  A    between atoms: C18_25  and  O4_26
REMARK   10  A    between atoms: C18_25  and  O5_28
ROOT
HETATM    1  O1  UNL     1      -0.939   0.719   7.383  1.00  0.00    -0.272 OA
HETATM    2  C1  UNL     1      -1.899   1.289   6.750  1.00  0.00     0.235 C
HETATM    3  N2  UNL     1      -3.071   0.590   6.575  1.00  0.00    -0.350 N
ATOM      4  H2  UNL     1      -3.845   1.029   6.075  1.00  0.00     0.163 HD
ENDROOT
BRANCH   3   5
HETATM    5  C10 UNL     1      -3.231  -0.763   7.088  1.00  0.00     0.143 C
BRANCH   5   6
HETATM    6  C11 UNL     1      -4.157  -1.569   6.232  1.00  0.00     0.068 C
BRANCH   6   7
HETATM    7  C12 UNL     1      -3.535  -2.659   5.479  1.00  0.00    -0.056 A
HETATM    8  C13 UNL     1      -4.213  -3.472   4.594  1.00  0.00     0.007 A
HETATM    9  C14 UNL     1      -3.535  -4.472   3.938  1.00  0.00     0.001 A
HETATM   10  C15 UNL     1      -2.190  -4.676   4.149  1.00  0.00     0.000 A
HETATM   11  C16 UNL     1      -1.487  -3.865   5.037  1.00  0.00     0.001 A
HETATM   12  C17 UNL     1      -2.166  -2.864   5.694  1.00  0.00     0.007 A
ENDBRANCH   6   7
ENDBRANCH   5   6
BRANCH   5  13
HETATM   13  C18 UNL     1      -3.505  -0.803   8.553  1.00  0.00     0.276 C
BRANCH  13  14
HETATM   14  O4  UNL     1      -2.411  -0.835   9.375  1.00  0.00    -0.369 OA
ATOM     15  H4  UNL     1      -2.376  -0.175  10.056  1.00  0.00     0.212 HD
ENDBRANCH  13  14
BRANCH  13  16
HETATM   16  O5  UNL     1      -4.338   0.292   8.845  1.00  0.00    -0.369 OA
ATOM     17  H5  UNL     1      -4.917   0.021   9.547  1.00  0.00     0.212 HD
ENDBRANCH  13  16
ENDBRANCH   5  13
ENDBRANCH   3   5
BRANCH   2  18
HETATM   18  C2  UNL     1      -1.631   2.641   6.279  1.00  0.00     0.227 C
BRANCH  18  19
HETATM   19  N1  UNL     1      -1.788   2.782   4.869  1.00  0.00    -0.328 N
HETATM   20  C3  UNL     1      -0.631   2.667   4.050  1.00  0.00     0.366 C
HETATM   21  O2  UNL     1       0.514   2.448   4.537  1.00  0.00    -0.238 OA
ATOM     22  H1  UNL     1      -2.705   2.961   4.458  1.00  0.00     0.165 HD
BRANCH  20  23
HETATM   23  O3  UNL     1      -0.762   2.798   2.695  1.00  0.00    -0.262 OA
BRANCH  23  24
HETATM   24  C4  UNL     1      -1.024   3.984   2.051  1.00  0.00     0.081 A
HETATM   25  C5  UNL     1       0.031   4.805   1.727  1.00  0.00     0.037 A
HETATM   26  C6  UNL     1      -0.202   5.997   1.081  1.00  0.00     0.003 A
HETATM   27  C7  UNL     1      -1.467   6.415   0.737  1.00  0.00     0.000 A
HETATM   28  C8  UNL     1      -2.527   5.580   1.068  1.00  0.00     0.003 A
HETATM   29  C9  UNL     1      -2.298   4.384   1.716  1.00  0.00     0.037 A
ENDBRANCH  23  24
ENDBRANCH  20  23
ENDBRANCH  18  19
ENDBRANCH   2  18
TORSDOF 10
ENDMDL