MODEL 1
REMARK VINA RESULT: -8.126759766      0.000      0.000
REMARK  7 active torsions:
REMARK  status: ('A' for Active; 'I' for Inactive)
REMARK    1  A    between atoms: N1_2  and  C2_4
REMARK    2  A    between atoms: C2_4  and  N2_5
REMARK    3  A    between atoms: C2_4  and  C5_10
REMARK       I    between atoms: N2_5  and  C3_7
REMARK       I    between atoms: C5_10  and  N3_12
REMARK    4  A    between atoms: N3_12  and  C6_14
REMARK    5  A    between atoms: C6_14  and  C8_16
REMARK       I    between atoms: C8_16  and  N4_18
REMARK    6  A    between atoms: N4_18  and  C9_20
REMARK    7  A    between atoms: C12_23  and  N5_24
ROOT
HETATM    1  C6  UNL     1      -2.089   1.751   5.553  1.00  0.00     0.076 C
HETATM    2  C7  UNL     1      -1.412   2.455   6.703  1.00  0.00     0.074 C
ENDROOT
BRANCH   1   3
HETATM    3  N3  UNL     1      -2.214   0.364   5.645  1.00  0.00    -0.319 N
HETATM    4  C5  UNL     1      -3.024  -0.378   6.590  1.00  0.00     0.289 C
HETATM    5  O2  UNL     1      -3.664   0.196   7.473  1.00  0.00    -0.264 OA
ATOM      6  H3  UNL     1      -1.677  -0.187   4.974  1.00  0.00     0.169 HD
BRANCH   4   7
HETATM    7  C2  UNL     1      -3.104  -1.858   6.476  1.00  0.00     0.172 C
BRANCH   7   8
HETATM    8  N1  UNL     1      -4.395  -2.404   6.300  1.00  0.00    -0.376 N
HETATM    9  C1  UNL     1      -5.267  -1.697   5.419  1.00  0.00     0.148 C
ATOM     10  H1  UNL     1      -4.687  -3.257   6.776  1.00  0.00     0.160 HD
ENDBRANCH   7   8
BRANCH   7  11
HETATM   11  N2  UNL     1      -2.117  -2.532   5.780  1.00  0.00    -0.309 N
HETATM   12  C3  UNL     1      -2.383  -3.891   5.327  1.00  0.00     0.219 C
HETATM   13  C4  UNL     1      -1.402  -4.656   4.514  1.00  0.00     0.117 C
HETATM   14  O1  UNL     1      -3.454  -4.425   5.629  1.00  0.00    -0.274 OA
ATOM     15  H2  UNL     1      -1.220  -2.086   5.588  1.00  0.00     0.170 HD
ENDBRANCH   7  11
ENDBRANCH   4   7
ENDBRANCH   1   3
BRANCH   1  16
HETATM   16  C8  UNL     1      -1.677   2.334   4.255  1.00  0.00     0.268 C
HETATM   17  O3  UNL     1      -1.056   1.611   3.460  1.00  0.00    -0.266 OA
HETATM   18  N4  UNL     1      -1.997   3.679   3.969  1.00  0.00    -0.322 N
ATOM     19  H4  UNL     1      -2.551   4.178   4.666  1.00  0.00     0.169 HD
BRANCH  18  20
HETATM   20  C9  UNL     1      -1.624   4.407   2.807  1.00  0.00     0.035 A
HETATM   21  C10 UNL     1      -0.327   4.753   2.510  1.00  0.00     0.032 A
HETATM   22  C11 UNL     1      -0.019   5.527   1.402  1.00  0.00     0.038 A
HETATM   23  C12 UNL     1      -1.022   5.988   0.530  1.00  0.00     0.103 A
HETATM   24  C13 UNL     1      -2.331   5.648   0.805  1.00  0.00     0.038 A
HETATM   25  C14 UNL     1      -2.583   4.866   1.937  1.00  0.00     0.032 A
BRANCH  23  26
HETATM   26  N5  UNL     1      -0.661   6.765  -0.580  1.00  0.00    -0.116 N
HETATM   27  O4  UNL     1       0.238   7.615  -0.530  1.00  0.00    -0.532 OA
HETATM   28  O5  UNL     1      -1.310   6.605  -1.796  1.00  0.00    -0.532 OA
ENDBRANCH  23  26
ENDBRANCH  18  20
ENDBRANCH   1  16
TORSDOF 7
ENDMDL