MODEL 3
REMARK VINA RESULT: -7.054649260      0.776      1.863
REMARK  9 active torsions:
REMARK  status: ('A' for Active; 'I' for Inactive)
REMARK    1  A    between atoms: C5_5  and  C6_6
REMARK       I    between atoms: C6_6  and  N1_8
REMARK    2  A    between atoms: N1_8  and  C7_10
REMARK    3  A    between atoms: C7_10  and  C8_11
REMARK    4  A    between atoms: C7_10  and  C12_22
REMARK    5  A    between atoms: C8_11  and  O2_12
REMARK    6  A    between atoms: C8_11  and  N2_14
REMARK    7  A    between atoms: N2_14  and  C9_16
REMARK    8  A    between atoms: C9_16  and  C10_17
REMARK    9  A    between atoms: C9_16  and  C11_19
ROOT
HETATM    1  C7  UNL     1      -2.863   0.976   7.101  1.00  0.00     0.162 C
ENDROOT
BRANCH   1   2
HETATM    2  N1  UNL     1      -2.111   1.672   6.031  1.00  0.00    -0.348 N
HETATM    3  C6  UNL     1      -2.321   1.425   4.660  1.00  0.00     0.222 C
HETATM    4  O1  UNL     1      -3.168   0.591   4.291  1.00  0.00    -0.273 OA
ATOM      5  H1  UNL     1      -1.408   2.361   6.299  1.00  0.00     0.163 HD
BRANCH   3   6
HETATM    6  C5  UNL     1      -1.537   2.159   3.653  1.00  0.00     0.078 C
HETATM    7  C4  UNL     1      -2.045   3.585   3.645  1.00  0.00     0.014 C
HETATM    8  C3  UNL     1      -1.569   4.187   2.337  1.00  0.00     0.005 C
HETATM    9  C2  UNL     1      -0.115   3.844   2.097  1.00  0.00    -0.019 C
HETATM   10  C1  UNL     1       0.535   5.053   1.492  1.00  0.00     0.010 C
HETATM   11  C16 UNL     1       0.605   3.410   3.361  1.00  0.00     0.005 C
HETATM   12  C15 UNL     1      -0.051   2.183   3.944  1.00  0.00     0.014 C
ENDBRANCH   3   6
ENDBRANCH   1   2
BRANCH   1  13
HETATM   13  C8  UNL     1      -2.164  -0.261   7.443  1.00  0.00     0.136 C
BRANCH  13  14
HETATM   14  O2  UNL     1      -1.026  -0.091   8.077  1.00  0.00    -0.348 OA
ATOM     15  H2  UNL     1      -0.806  -0.782   8.690  1.00  0.00     0.219 HD
ENDBRANCH  13  14
BRANCH  13  16
HETATM   16  N2  UNL     1      -2.479  -1.593   7.227  1.00  0.00    -0.353 N
ATOM     17  H2  UNL     1      -2.536  -2.212   8.035  1.00  0.00     0.162 HD
BRANCH  16  18
HETATM   18  C9  UNL     1      -2.737  -2.165   5.890  1.00  0.00     0.246 C
BRANCH  18  19
HETATM   19  C10 UNL     1      -2.004  -3.456   5.733  1.00  0.00     0.267 C
HETATM   20  O3  UNL     1      -1.145  -3.686   4.926  1.00  0.00    -0.304 OA
ENDBRANCH  18  19
BRANCH  18  21
HETATM   21  C11 UNL     1      -4.175  -2.453   5.738  1.00  0.00     0.203 C
HETATM   22  O4  UNL     1      -4.542  -3.399   5.025  1.00  0.00    -0.646 OA
HETATM   23  O5  UNL     1      -5.099  -1.675   6.386  1.00  0.00    -0.646 OA
ENDBRANCH  18  21
ENDBRANCH  16  18
ENDBRANCH  13  16
ENDBRANCH   1  13
BRANCH   1  24
HETATM   24  C12 UNL     1      -3.152   1.928   8.222  1.00  0.00     0.008 C
HETATM   25  C13 UNL     1      -3.292   1.166   9.546  1.00  0.00     0.012 C
HETATM   26  C14 UNL     1      -1.969   2.875   8.493  1.00  0.00     0.012 C
ENDBRANCH   1  24
TORSDOF 9
ENDMDL