MODEL 5
REMARK VINA RESULT: -7.393292377      0.996      1.292
REMARK  15 active torsions:
REMARK  status: ('A' for Active; 'I' for Inactive)
REMARK    1  A    between atoms: C2_2  and  C3_3
REMARK    2  A    between atoms: C3_3  and  N1_4
REMARK    3  A    between atoms: N1_4  and  C4_6
REMARK    4  A    between atoms: C4_6  and  C5_7
REMARK    5  A    between atoms: C5_7  and  C6_8
REMARK    6  A    between atoms: C6_8  and  C7_9
REMARK    7  A    between atoms: C7_9  and  C8_10
REMARK    8  A    between atoms: C8_10  and  C9_11
REMARK    9  A    between atoms: C9_11  and  C10_12
REMARK   10  A    between atoms: C10_12  and  C11_13
REMARK   11  A    between atoms: C11_13  and  N2_14
REMARK   12  A    between atoms: N2_14  and  C12_17
REMARK   13  A    between atoms: C12_17  and  C13_18
REMARK   14  A    between atoms: C16_23  and  C17_24
REMARK   15  A    between atoms: C24_33  and  C25_34
ROOT
HETATM    1  C13 UNL     1       7.191  20.091  23.966  1.00  0.00     0.037 A
HETATM    2  C14 UNL     1       5.908  20.192  24.472  1.00  0.00     0.044 A
HETATM    3  C15 UNL     1       5.699  20.555  25.783  1.00  0.00     0.092 A
HETATM    4  N3  UNL     1       6.837  20.800  26.465  1.00  0.00    -0.350 N
ATOM      5  H3  UNL     1       6.726  21.076  27.441  1.00  0.00     0.166 HD
HETATM    6  C16 UNL     1       8.081  20.726  26.018  1.00  0.00     0.133 A
HETATM    7  N5  UNL     1       8.263  20.350  24.709  1.00  0.00    -0.343 N
ATOM      8  H5  UNL     1       9.201  20.271  24.315  1.00  0.00     0.167 HD
ENDROOT
BRANCH   1   9
HETATM    9  C12 UNL     1       7.181  19.670  22.506  1.00  0.00     0.289 C
BRANCH   9  10
HETATM   10  N2  UNL     1       8.228  20.492  21.918  1.00  0.00    -0.070 N
ATOM     11  H22 UNL     1       8.947  19.933  21.460  1.00  0.00     0.277 HD
ATOM     12  H21 UNL     1       8.817  20.932  22.626  1.00  0.00     0.277 HD
BRANCH  10  13
HETATM   13  C11 UNL     1       7.638  21.445  21.035  1.00  0.00     0.232 C
BRANCH  13  14
HETATM   14  C10 UNL     1       8.003  22.838  21.641  1.00  0.00     0.027 C
BRANCH  14  15
HETATM   15  C9  UNL     1       6.878  23.727  21.488  1.00  0.00     0.002 C
BRANCH  15  16
HETATM   16  C8  UNL     1       5.776  23.756  22.470  1.00  0.00     0.000 C
BRANCH  16  17
HETATM   17  C7  UNL     1       4.840  24.921  22.187  1.00  0.00     0.000 C
BRANCH  17  18
HETATM   18  C6  UNL     1       5.650  26.182  22.033  1.00  0.00     0.005 C
BRANCH  18  19
HETATM   19  C5  UNL     1       4.948  27.034  21.016  1.00  0.00     0.044 C
BRANCH  19  20
HETATM   20  C4  UNL     1       4.411  26.374  19.806  1.00  0.00     0.055 C
BRANCH  20  21
HETATM   21  N1  UNL     1       4.914  26.681  18.546  1.00  0.00    -0.402 N
ATOM     22  H1  UNL     1       4.284  26.701  17.743  1.00  0.00     0.158 HD
BRANCH  21  23
HETATM   23  C3  UNL     1       6.293  26.968  18.361  1.00  0.00     0.118 C
BRANCH  23  24
HETATM   24  C2  UNL     1       6.997  25.592  18.320  1.00  0.00     0.015 C
HETATM   25  C1  UNL     1       8.422  25.780  18.787  1.00  0.00     0.006 C
ENDBRANCH  23  24
ENDBRANCH  21  23
ENDBRANCH  20  21
ENDBRANCH  19  20
ENDBRANCH  18  19
ENDBRANCH  17  18
ENDBRANCH  16  17
ENDBRANCH  15  16
ENDBRANCH  14  15
ENDBRANCH  13  14
ENDBRANCH  10  13
ENDBRANCH   9  10
ENDBRANCH   1   9
BRANCH   6  26
HETATM   26  C17 UNL     1       9.194  21.077  26.890  1.00  0.00     0.089 A
HETATM   27  N4  UNL     1       9.987  20.332  27.658  1.00  0.00    -0.352 N
HETATM   28  C18 UNL     1      10.924  21.117  28.271  1.00  0.00     0.043 A
ATOM     29  H4  UNL     1       9.906  19.321  27.771  1.00  0.00     0.166 HD
HETATM   30  C19 UNL     1      11.966  20.856  29.133  1.00  0.00     0.030 A
HETATM   31  C23 UNL     1      10.719  22.433  27.876  1.00  0.00     0.004 A
HETATM   32  C20 UNL     1      12.781  21.842  29.595  1.00  0.00     0.002 A
HETATM   33  C21 UNL     1      12.557  23.153  29.186  1.00  0.00     0.001 A
HETATM   34  C22 UNL     1      11.519  23.458  28.323  1.00  0.00     0.014 A
HETATM   35  C24 UNL     1       9.650  22.398  27.029  1.00  0.00     0.017 A
BRANCH  35  36
HETATM   36  C25 UNL     1       8.989  23.560  26.426  1.00  0.00    -0.023 A
HETATM   37  C26 UNL     1       8.107  24.277  27.264  1.00  0.00     0.012 A
HETATM   38  C27 UNL     1       7.393  25.363  26.816  1.00  0.00     0.001 A
HETATM   39  C28 UNL     1       7.523  25.795  25.497  1.00  0.00     0.000 A
HETATM   40  C29 UNL     1       8.386  25.098  24.678  1.00  0.00     0.001 A
HETATM   41  C30 UNL     1       9.108  23.992  25.145  1.00  0.00     0.012 A
ENDBRANCH  35  36
ENDBRANCH   6  26
TORSDOF 15
ENDMDL