MODEL 2
REMARK VINA RESULT: -8.096972111      2.108      5.722
REMARK  14 active torsions:
REMARK  status: ('A' for Active; 'I' for Inactive)
REMARK    1  A    between atoms: C6_9  and  C7_10
REMARK    2  A    between atoms: C7_10  and  C8_11
REMARK    3  A    between atoms: C8_11  and  C9_12
REMARK    4  A    between atoms: C9_12  and  C10_13
REMARK    5  A    between atoms: C10_13  and  N2_14
REMARK    6  A    between atoms: N2_14  and  C11_16
REMARK    7  A    between atoms: C11_16  and  C12_17
REMARK    8  A    between atoms: C12_17  and  C13_18
REMARK    9  A    between atoms: C13_18  and  C14_19
REMARK   10  A    between atoms: C14_19  and  C15_20
REMARK   11  A    between atoms: C15_20  and  N3_21
REMARK   12  A    between atoms: N3_21  and  C16_23
REMARK   13  A    between atoms: C16_23  and  C17_24
REMARK   14  A    between atoms: C17_24  and  C18_25
ROOT
HETATM    1  C14 UNL     1       8.277  25.675  24.747  1.00  0.00     0.023 C
ENDROOT
BRANCH   1   2
HETATM    2  C13 UNL     1       8.421  25.571  26.230  1.00  0.00     0.030 C
BRANCH   2   3
HETATM    3  C12 UNL     1       7.374  24.844  26.934  1.00  0.00    -0.010 C
BRANCH   3   4
HETATM    4  C11 UNL     1       7.574  23.555  27.608  1.00  0.00     0.079 C
BRANCH   4   5
HETATM    5  N2  UNL     1       6.945  22.417  27.081  1.00  0.00    -0.399 N
ATOM      6  H2  UNL     1       6.252  21.863  27.585  1.00  0.00     0.158 HD
BRANCH   5   7
HETATM    7  C10 UNL     1       7.403  22.117  25.715  1.00  0.00     0.119 C
BRANCH   7   8
HETATM    8  C9  UNL     1       6.255  21.971  24.747  1.00  0.00     0.020 C
BRANCH   8   9
HETATM    9  C8  UNL     1       6.494  22.628  23.437  1.00  0.00     0.002 C
BRANCH   9  10
HETATM   10  C7  UNL     1       5.959  21.783  22.316  1.00  0.00     0.010 C
BRANCH  10  11
HETATM   11  C6  UNL     1       6.544  20.417  22.344  1.00  0.00     0.031 C
HETATM   12  C1  UNL     1       5.745  19.444  21.522  1.00  0.00    -0.016 C
HETATM   13  N1  UNL     1       4.740  18.859  22.057  1.00  0.00    -0.405 N
HETATM   14  C2  UNL     1       6.139  19.184  20.129  1.00  0.00     0.052 C
ATOM     15  H12 UNL     1       4.197  18.199  21.500  1.00  0.00     0.155 HD
ATOM     16  H11 UNL     1       4.467  19.039  23.023  1.00  0.00     0.155 HD
HETATM   17  C3  UNL     1       6.948  20.278  19.508  1.00  0.00     0.006 C
HETATM   18  C4  UNL     1       8.017  20.839  20.390  1.00  0.00     0.001 C
HETATM   19  C5  UNL     1       7.952  20.340  21.821  1.00  0.00     0.010 C
ENDBRANCH  10  11
ENDBRANCH   9  10
ENDBRANCH   8   9
ENDBRANCH   7   8
ENDBRANCH   5   7
ENDBRANCH   4   5
ENDBRANCH   3   4
ENDBRANCH   2   3
ENDBRANCH   1   2
BRANCH   1  20
HETATM   20  C15 UNL     1       6.830  26.009  24.414  1.00  0.00     0.119 C
BRANCH  20  21
HETATM   21  N3  UNL     1       6.791  27.149  23.557  1.00  0.00    -0.402 N
ATOM     22  H3  UNL     1       7.510  27.872  23.620  1.00  0.00     0.158 HD
BRANCH  21  23
HETATM   23  C16 UNL     1       5.760  27.258  22.636  1.00  0.00     0.060 C
BRANCH  23  24
HETATM   24  C17 UNL     1       5.374  26.048  21.882  1.00  0.00     0.086 C
BRANCH  24  25
HETATM   25  C18 UNL     1       5.958  26.028  20.528  1.00  0.00    -0.010 A
HETATM   26  C19 UNL     1       7.223  25.664  20.178  1.00  0.00    -0.042 A
HETATM   27  C20 UNL     1       7.637  25.799  18.861  1.00  0.00    -0.049 A
HETATM   28  C28 UNL     1       8.152  25.048  21.181  1.00  0.00     0.040 C
HETATM   29  C21 UNL     1       6.755  26.305  17.906  1.00  0.00     0.047 A
HETATM   30  C25 UNL     1       8.977  25.439  18.368  1.00  0.00     0.039 C
HETATM   31  C22 UNL     1       5.476  26.672  18.251  1.00  0.00     0.106 A
HETATM   32  C23 UNL     1       5.070  26.542  19.541  1.00  0.00     0.112 A
HETATM   33  O2  UNL     1       4.393  27.199  17.518  1.00  0.00    -0.323 OA
HETATM   34  O1  UNL     1       3.746  26.983  19.601  1.00  0.00    -0.322 OA
HETATM   35  C24 UNL     1       3.240  26.864  18.263  1.00  0.00     0.352 C
HETATM   36  C26 UNL     1       9.888  25.057  19.499  1.00  0.00     0.005 C
HETATM   37  C27 UNL     1       9.114  24.130  20.428  1.00  0.00     0.005 C
ENDBRANCH  24  25
ENDBRANCH  23  24
ENDBRANCH  21  23
ENDBRANCH  20  21
ENDBRANCH   1  20
TORSDOF 14
ENDMDL