MODEL 2
REMARK VINA RESULT: -7.639820023      0.733      3.234
REMARK  15 active torsions:
REMARK  status: ('A' for Active; 'I' for Inactive)
REMARK    1  A    between atoms: C5_5  and  N1_6
REMARK    2  A    between atoms: N1_6  and  C6_7
REMARK    3  A    between atoms: C6_7  and  C7_8
REMARK    4  A    between atoms: C7_8  and  C8_9
REMARK    5  A    between atoms: C8_9  and  C9_10
REMARK    6  A    between atoms: C9_10  and  N2_11
REMARK    7  A    between atoms: N2_11  and  C10_14
REMARK    8  A    between atoms: C10_14  and  C11_15
REMARK    9  A    between atoms: C11_15  and  C12_16
REMARK   10  A    between atoms: C12_16  and  C13_17
REMARK   11  A    between atoms: C13_17  and  C14_18
REMARK   12  A    between atoms: C14_18  and  N3_19
REMARK   13  A    between atoms: N3_19  and  C15_22
REMARK   14  A    between atoms: C15_22  and  C16_23
REMARK   15  A    between atoms: C16_23  and  C17_24
ROOT
HETATM    1  C8  UNL     1       9.461  21.908  25.874  1.00  0.00     0.033 C
ENDROOT
BRANCH   1   2
HETATM    2  C7  UNL     1       8.699  22.292  24.694  1.00  0.00     0.061 C
BRANCH   2   3
HETATM    3  C6  UNL     1       9.384  23.047  23.592  1.00  0.00     0.155 C
BRANCH   3   4
HETATM    4  N1  UNL     1       8.833  23.012  22.361  1.00  0.00    -0.420 NA
BRANCH   4   5
HETATM    5  C5  UNL     1       8.362  22.981  21.283  1.00  0.00     0.131 A
HETATM    6  C4  UNL     1       8.284  24.017  20.348  1.00  0.00     0.032 A
HETATM    7  C3  UNL     1       8.707  25.264  20.724  1.00  0.00     0.017 A
HETATM    8  C27 UNL     1       7.767  23.797  19.078  1.00  0.00     0.046 A
HETATM    9  C2  UNL     1       8.633  26.361  19.847  1.00  0.00     0.001 A
HETATM   10  C1  UNL     1       8.116  26.116  18.588  1.00  0.00     0.002 A
HETATM   11  C28 UNL     1       7.693  24.873  18.205  1.00  0.00     0.030 A
HETATM   12  N4  UNL     1       7.332  22.602  18.704  1.00  0.00    -0.355 N
HETATM   13  C26 UNL     1       7.390  21.580  19.568  1.00  0.00     0.046 A
ATOM     14  H4  UNL     1       6.955  22.462  17.766  1.00  0.00     0.166 HD
HETATM   15  C21 UNL     1       7.872  21.730  20.810  1.00  0.00     0.032 A
HETATM   16  C25 UNL     1       6.924  20.350  19.136  1.00  0.00     0.030 A
HETATM   17  C22 UNL     1       7.902  20.648  21.651  1.00  0.00     0.017 A
HETATM   18  C23 UNL     1       7.438  19.406  21.232  1.00  0.00     0.001 A
HETATM   19  C24 UNL     1       6.938  19.247  19.945  1.00  0.00     0.002 A
ENDBRANCH   4   5
ENDBRANCH   3   4
ENDBRANCH   2   3
ENDBRANCH   1   2
BRANCH   1  20
HETATM   20  C9  UNL     1       9.224  22.599  27.149  1.00  0.00     0.232 C
BRANCH  20  21
HETATM   21  N2  UNL     1       9.252  24.047  27.172  1.00  0.00    -0.075 N
ATOM     22  H22 UNL     1       9.990  24.430  27.763  1.00  0.00     0.277 HD
ATOM     23  H21 UNL     1       9.567  24.461  26.295  1.00  0.00     0.277 HD
BRANCH  21  24
HETATM   24  C10 UNL     1       7.879  24.483  27.576  1.00  0.00     0.232 C
BRANCH  24  25
HETATM   25  C11 UNL     1       7.524  25.799  26.887  1.00  0.00     0.027 C
BRANCH  25  26
HETATM   26  C12 UNL     1       7.507  25.675  25.423  1.00  0.00     0.003 C
BRANCH  26  27
HETATM   27  C13 UNL     1       8.431  26.449  24.585  1.00  0.00     0.027 C
BRANCH  27  28
HETATM   28  C14 UNL     1       7.778  27.159  23.411  1.00  0.00     0.232 C
BRANCH  28  29
HETATM   29  N3  UNL     1       6.324  27.000  23.509  1.00  0.00    -0.075 N
ATOM     30  H32 UNL     1       6.068  26.263  24.167  1.00  0.00     0.277 HD
ATOM     31  H31 UNL     1       5.889  27.790  23.986  1.00  0.00     0.277 HD
BRANCH  29  32
HETATM   32  C15 UNL     1       5.742  26.776  22.199  1.00  0.00     0.237 C
BRANCH  32  33
HETATM   33  C16 UNL     1       5.723  28.064  21.425  1.00  0.00     0.066 C
BRANCH  33  34
HETATM   34  C17 UNL     1       5.176  27.772  20.026  1.00  0.00    -0.050 A
HETATM   35  C18 UNL     1       5.332  28.619  18.978  1.00  0.00     0.014 A
HETATM   36  C19 UNL     1       4.774  28.244  17.788  1.00  0.00     0.050 A
HETATM   37  S1  UNL     1       4.053  26.733  18.168  1.00  0.00    -0.113 SA
HETATM   38  C20 UNL     1       4.474  26.618  19.803  1.00  0.00     0.056 A
ENDBRANCH  33  34
ENDBRANCH  32  33
ENDBRANCH  29  32
ENDBRANCH  28  29
ENDBRANCH  27  28
ENDBRANCH  26  27
ENDBRANCH  25  26
ENDBRANCH  24  25
ENDBRANCH  21  24
ENDBRANCH  20  21
ENDBRANCH   1  20
TORSDOF 15
ENDMDL