MODEL 4
REMARK VINA RESULT: -8.131251857      3.991      7.997
REMARK  15 active torsions:
REMARK  status: ('A' for Active; 'I' for Inactive)
REMARK    1  A    between atoms: N1_1  and  C1_5
REMARK    2  A    between atoms: C1_5  and  C2_6
REMARK    3  A    between atoms: C2_6  and  C3_7
REMARK    4  A    between atoms: C3_7  and  C4_8
REMARK    5  A    between atoms: C4_8  and  C5_9
REMARK    6  A    between atoms: C5_9  and  C6_10
REMARK    7  A    between atoms: C6_10  and  C7_11
REMARK    8  A    between atoms: C7_11  and  C8_12
REMARK    9  A    between atoms: C8_12  and  C9_13
REMARK   10  A    between atoms: C9_13  and  N2_14
REMARK   11  A    between atoms: N2_14  and  C10_16
REMARK   12  A    between atoms: C18_26  and  O1_27
REMARK   13  A    between atoms: O1_27  and  C19_28
REMARK   14  A    between atoms: C19_28  and  C20_29
REMARK   15  A    between atoms: C20_29  and  N4_30
ROOT
HETATM    1  C10 UNL     1       7.815  19.114  22.890  1.00  0.00     0.030 A
HETATM    2  C11 UNL     1       6.461  19.355  22.704  1.00  0.00     0.030 A
HETATM    3  C12 UNL     1       5.960  20.641  22.691  1.00  0.00     0.017 A
HETATM    4  C13 UNL     1       6.821  21.712  22.867  1.00  0.00     0.003 A
HETATM    5  C14 UNL     1       8.173  21.512  23.055  1.00  0.00     0.046 A
HETATM    6  C15 UNL     1       8.636  20.209  23.061  1.00  0.00     0.059 A
HETATM    7  N3  UNL     1       8.776  22.701  23.200  1.00  0.00    -0.355 N
ATOM      8  H3  UNL     1       9.775  22.838  23.351  1.00  0.00     0.166 HD
HETATM    9  C16 UNL     1       7.866  23.687  23.114  1.00  0.00     0.046 A
HETATM   10  C17 UNL     1       7.957  25.061  23.194  1.00  0.00     0.067 A
HETATM   11  C18 UNL     1       6.827  25.832  23.066  1.00  0.00     0.071 A
HETATM   12  C26 UNL     1       5.596  25.205  22.857  1.00  0.00     0.038 A
HETATM   13  C27 UNL     1       5.482  23.835  22.774  1.00  0.00     0.017 A
HETATM   14  C28 UNL     1       6.630  23.084  22.905  1.00  0.00     0.003 A
ENDROOT
BRANCH   1  15
HETATM   15  N2  UNL     1       8.331  17.783  22.904  1.00  0.00    -0.390 N
ATOM     16  H2  UNL     1       8.880  17.451  23.697  1.00  0.00     0.159 HD
BRANCH  15  17
HETATM   17  C9  UNL     1       8.065  16.912  21.780  1.00  0.00     0.119 C
BRANCH  17  18
HETATM   18  C8  UNL     1       8.987  17.252  20.628  1.00  0.00     0.020 C
BRANCH  18  19
HETATM   19  C7  UNL     1       8.242  17.894  19.503  1.00  0.00     0.002 C
BRANCH  19  20
HETATM   20  C6  UNL     1       8.530  19.365  19.465  1.00  0.00     0.000 C
BRANCH  20  21
HETATM   21  C5  UNL     1       7.231  20.175  19.280  1.00  0.00     0.000 C
BRANCH  21  22
HETATM   22  C4  UNL     1       7.500  21.506  18.714  1.00  0.00     0.000 C
BRANCH  22  23
HETATM   23  C3  UNL     1       8.236  22.441  19.567  1.00  0.00     0.002 C
BRANCH  23  24
HETATM   24  C2  UNL     1       8.241  23.891  19.387  1.00  0.00     0.027 C
BRANCH  24  25
HETATM   25  C1  UNL     1       9.421  24.690  19.809  1.00  0.00     0.229 C
BRANCH  25  26
HETATM   26  N1  UNL     1      10.004  25.387  18.618  1.00  0.00    -0.079 N
ATOM     27  H13 UNL     1       9.324  25.501  17.867  1.00  0.00     0.274 HD
ATOM     28  H12 UNL     1      10.188  26.374  18.800  1.00  0.00     0.274 HD
ATOM     29  H11 UNL     1      10.839  24.889  18.310  1.00  0.00     0.274 HD
ENDBRANCH  25  26
ENDBRANCH  24  25
ENDBRANCH  23  24
ENDBRANCH  22  23
ENDBRANCH  21  22
ENDBRANCH  20  21
ENDBRANCH  19  20
ENDBRANCH  18  19
ENDBRANCH  17  18
ENDBRANCH  15  17
ENDBRANCH   1  15
BRANCH  11  30
HETATM   30  O1  UNL     1       6.939  27.201  23.150  1.00  0.00    -0.349 OA
BRANCH  30  31
HETATM   31  C19 UNL     1       7.240  27.971  22.006  1.00  0.00     0.206 C
BRANCH  31  32
HETATM   32  C20 UNL     1       5.971  28.669  21.519  1.00  0.00     0.299 C
BRANCH  32  33
HETATM   33  N4  UNL     1       5.491  28.134  20.280  1.00  0.00     0.090 N
HETATM   34  C21 UNL     1       4.347  27.286  20.386  1.00  0.00     0.272 C
HETATM   35  C22 UNL     1       3.671  27.226  19.035  1.00  0.00     0.030 C
HETATM   36  C23 UNL     1       4.640  26.746  18.014  1.00  0.00     0.003 C
HETATM   37  C24 UNL     1       6.042  26.547  18.492  1.00  0.00     0.030 C
HETATM   38  C25 UNL     1       6.515  27.638  19.421  1.00  0.00     0.272 C
ENDBRANCH  32  33
ENDBRANCH  31  32
ENDBRANCH  30  31
ENDBRANCH  11  30
TORSDOF 15
ENDMDL