MODEL 4
REMARK VINA RESULT: -8.408920670      1.111      1.879
REMARK  14 active torsions:
REMARK  status: ('A' for Active; 'I' for Inactive)
REMARK    1  A    between atoms: N1_2  and  C1_4
REMARK    2  A    between atoms: C3_6  and  C4_7
REMARK    3  A    between atoms: C4_7  and  C5_8
REMARK    4  A    between atoms: C5_8  and  C6_9
REMARK    5  A    between atoms: C6_9  and  C7_10
REMARK    6  A    between atoms: C7_10  and  C8_11
REMARK    7  A    between atoms: C8_11  and  C9_12
REMARK    8  A    between atoms: C9_12  and  C10_13
REMARK    9  A    between atoms: C10_13  and  C11_14
REMARK   10  A    between atoms: C11_14  and  C12_15
REMARK   11  A    between atoms: C12_15  and  N2_16
REMARK   12  A    between atoms: N2_16  and  C13_19
REMARK   13  A    between atoms: C13_19  and  C14_20
REMARK   14  A    between atoms: C19_25  and  C20_26
ROOT
HETATM    1  N2  UNL     1       6.193  28.443  19.655  1.00  0.00    -0.071 N
ATOM      2  H21 UNL     1       6.358  29.444  19.552  1.00  0.00     0.277 HD
ATOM      3  H22 UNL     1       7.104  28.176  20.028  1.00  0.00     0.277 HD
ENDROOT
BRANCH   1   4
HETATM    4  C12 UNL     1       5.923  27.799  18.364  1.00  0.00     0.232 C
BRANCH   4   5
HETATM    5  C11 UNL     1       6.968  26.730  18.134  1.00  0.00     0.027 C
BRANCH   5   6
HETATM    6  C10 UNL     1       8.233  26.952  18.898  1.00  0.00     0.002 C
BRANCH   6   7
HETATM    7  C9  UNL     1       8.971  25.643  19.095  1.00  0.00     0.000 C
BRANCH   7   8
HETATM    8  C8  UNL     1       8.886  25.139  20.512  1.00  0.00     0.000 C
BRANCH   8   9
HETATM    9  C7  UNL     1       8.439  23.718  20.606  1.00  0.00     0.000 C
BRANCH   9  10
HETATM   10  C6  UNL     1       7.804  23.184  19.366  1.00  0.00     0.000 C
BRANCH  10  11
HETATM   11  C5  UNL     1       7.656  21.696  19.315  1.00  0.00     0.006 C
BRANCH  11  12
HETATM   12  C4  UNL     1       7.097  21.127  20.602  1.00  0.00     0.059 C
BRANCH  12  13
HETATM   13  C3  UNL     1       7.166  19.639  20.598  1.00  0.00     0.029 A
HETATM   14  C2  UNL     1       8.292  18.873  20.729  1.00  0.00     0.082 A
HETATM   15  C1  UNL     1       7.915  17.545  20.666  1.00  0.00     0.190 A
HETATM   16  N5  UNL     1       6.571  17.567  20.499  1.00  0.00    -0.280 N
HETATM   17  N4  UNL     1       6.126  18.792  20.458  1.00  0.00    -0.303 N
ATOM     18  H5  UNL     1       5.986  16.736  20.415  1.00  0.00     0.188 HD
ATOM     19  H4  UNL     1       5.150  19.065  20.339  1.00  0.00     0.186 HD
BRANCH  15  20
HETATM   20  N1  UNL     1       8.739  16.392  20.756  1.00  0.00    -0.097 N
HETATM   21  O1  UNL     1       9.823  16.378  20.153  1.00  0.00    -0.530 OA
HETATM   22  O2  UNL     1       8.353  15.320  21.488  1.00  0.00    -0.530 OA
ENDBRANCH  15  20
ENDBRANCH  12  13
ENDBRANCH  11  12
ENDBRANCH  10  11
ENDBRANCH   9  10
ENDBRANCH   8   9
ENDBRANCH   7   8
ENDBRANCH   6   7
ENDBRANCH   5   6
ENDBRANCH   4   5
ENDBRANCH   1   4
BRANCH   1  23
HETATM   23  C13 UNL     1       5.125  28.168  20.597  1.00  0.00     0.270 C
BRANCH  23  24
HETATM   24  C14 UNL     1       5.468  27.056  21.488  1.00  0.00    -0.031 A
HETATM   25  C15 UNL     1       4.850  25.836  21.271  1.00  0.00     0.010 A
HETATM   26  C16 UNL     1       5.181  24.803  22.121  1.00  0.00     0.014 A
HETATM   27  C17 UNL     1       6.087  24.973  23.145  1.00  0.00    -0.007 A
HETATM   28  C18 UNL     1       6.575  24.117  24.108  1.00  0.00     0.044 A
HETATM   29  C26 UNL     1       6.709  26.202  23.363  1.00  0.00     0.043 A
HETATM   30  C19 UNL     1       7.464  24.826  24.879  1.00  0.00     0.043 A
HETATM   31  N3  UNL     1       7.541  26.090  24.421  1.00  0.00    -0.355 N
ATOM     32  H3  UNL     1       8.125  26.833  24.806  1.00  0.00     0.166 HD
HETATM   33  C27 UNL     1       6.371  27.231  22.505  1.00  0.00     0.039 A
BRANCH  30  34
HETATM   34  C20 UNL     1       8.195  24.254  26.022  1.00  0.00    -0.009 A
HETATM   35  C21 UNL     1       9.361  23.551  25.833  1.00  0.00     0.013 A
HETATM   36  C22 UNL     1      10.048  23.015  26.895  1.00  0.00     0.001 A
HETATM   37  C23 UNL     1       9.537  23.199  28.159  1.00  0.00     0.000 A
HETATM   38  C24 UNL     1       8.356  23.907  28.387  1.00  0.00     0.001 A
HETATM   39  C25 UNL     1       7.698  24.428  27.292  1.00  0.00     0.013 A
ENDBRANCH  30  34
ENDBRANCH  23  24
ENDBRANCH   1  23
TORSDOF 14
ENDMDL