MODEL 2
REMARK VINA RESULT: -8.177796282      3.750      7.362
REMARK  15 active torsions:
REMARK  status: ('A' for Active; 'I' for Inactive)
REMARK    1  A    between atoms: C3_3  and  C4_4
REMARK    2  A    between atoms: C4_4  and  C5_5
REMARK    3  A    between atoms: C5_5  and  C6_6
REMARK    4  A    between atoms: C6_6  and  C7_7
REMARK    5  A    between atoms: C7_7  and  S1_8
REMARK    6  A    between atoms: S1_8  and  C8_9
REMARK    7  A    between atoms: C13_14  and  N1_15
REMARK    8  A    between atoms: C16_22  and  O1_23
REMARK    9  A    between atoms: O1_23  and  C17_24
REMARK   10  A    between atoms: C17_24  and  C18_25
REMARK   11  A    between atoms: C18_25  and  C19_26
REMARK   12  A    between atoms: C19_26  and  C20_27
REMARK   13  A    between atoms: C20_27  and  C21_28
REMARK   14  A    between atoms: C21_28  and  N3_29
REMARK   15  A    between atoms: N3_29  and  C22_32
ROOT
HETATM    1  C1  UNL     1       3.704  26.894  19.287  1.00  0.00     0.012 C
HETATM    2  C2  UNL     1       4.704  27.114  18.664  1.00  0.00    -0.117 C
HETATM    3  C3  UNL     1       5.920  27.406  17.900  1.00  0.00     0.093 C
ENDROOT
BRANCH   3   4
HETATM    4  C4  UNL     1       7.143  26.760  18.519  1.00  0.00     0.012 C
BRANCH   4   5
HETATM    5  C5  UNL     1       7.061  25.275  18.312  1.00  0.00     0.002 C
BRANCH   5   6
HETATM    6  C6  UNL     1       8.134  24.516  19.043  1.00  0.00     0.010 C
BRANCH   6   7
HETATM    7  C7  UNL     1       7.826  23.066  19.224  1.00  0.00     0.079 C
BRANCH   7   8
HETATM    8  S1  UNL     1       7.928  22.694  21.007  1.00  0.00    -0.127 SA
BRANCH   8   9
HETATM    9  C8  UNL     1       6.930  21.306  21.443  1.00  0.00     0.034 A
HETATM   10  C9  UNL     1       6.725  20.323  20.521  1.00  0.00     0.035 A
HETATM   11  C10 UNL     1       5.946  19.246  20.872  1.00  0.00    -0.008 A
HETATM   12  C11 UNL     1       5.758  18.261  19.911  1.00  0.00     0.017 A
HETATM   13  C14 UNL     1       5.397  19.178  22.120  1.00  0.00     0.046 A
HETATM   14  C12 UNL     1       4.973  17.178  20.265  1.00  0.00     0.049 A
HETATM   15  C13 UNL     1       4.420  17.114  21.527  1.00  0.00     0.099 A
HETATM   16  N2  UNL     1       4.641  18.108  22.421  1.00  0.00    -0.342 N
ATOM     17  H2  UNL     1       4.221  18.041  23.348  1.00  0.00     0.167 HD
HETATM   18  C15 UNL     1       5.606  20.175  23.046  1.00  0.00     0.068 A
HETATM   19  C16 UNL     1       6.374  21.269  22.749  1.00  0.00     0.087 A
BRANCH  15  20
HETATM   20  N1  UNL     1       3.691  16.086  21.826  1.00  0.00    -0.385 N
ATOM     21  H12 UNL     1       4.042  15.135  21.718  1.00  0.00     0.157 HD
ATOM     22  H11 UNL     1       2.747  16.249  22.177  1.00  0.00     0.157 HD
ENDBRANCH  15  20
BRANCH  19  23
HETATM   23  O1  UNL     1       6.634  22.305  23.600  1.00  0.00    -0.350 OA
BRANCH  23  24
HETATM   24  C17 UNL     1       7.029  22.223  24.915  1.00  0.00     0.175 C
BRANCH  24  25
HETATM   25  C18 UNL     1       6.455  23.316  25.747  1.00  0.00     0.027 C
BRANCH  25  26
HETATM   26  C19 UNL     1       7.502  24.318  26.202  1.00  0.00     0.004 C
BRANCH  26  27
HETATM   27  C20 UNL     1       7.250  25.703  25.660  1.00  0.00     0.027 C
BRANCH  27  28
HETATM   28  C21 UNL     1       8.248  25.934  24.524  1.00  0.00     0.232 C
BRANCH  28  29
HETATM   29  N3  UNL     1       7.715  25.422  23.300  1.00  0.00    -0.071 N
ATOM     30  H32 UNL     1       8.334  24.713  22.907  1.00  0.00     0.277 HD
ATOM     31  H31 UNL     1       6.891  24.848  23.478  1.00  0.00     0.277 HD
BRANCH  29  32
HETATM   32  C22 UNL     1       7.424  26.442  22.325  1.00  0.00     0.185 C
HETATM   33  C23 UNL     1       8.240  27.665  22.642  1.00  0.00     0.033 C
HETATM   34  C24 UNL     1       8.041  28.751  21.590  1.00  0.00     0.002 C
HETATM   35  C25 UNL     1       6.563  28.872  21.246  1.00  0.00     0.000 C
HETATM   36  C26 UNL     1       5.742  28.229  22.353  1.00  0.00     0.002 C
HETATM   37  C27 UNL     1       5.953  26.755  22.344  1.00  0.00     0.033 C
ENDBRANCH  29  32
ENDBRANCH  28  29
ENDBRANCH  27  28
ENDBRANCH  26  27
ENDBRANCH  25  26
ENDBRANCH  24  25
ENDBRANCH  23  24
ENDBRANCH  19  23
ENDBRANCH   8   9
ENDBRANCH   7   8
ENDBRANCH   6   7
ENDBRANCH   5   6
ENDBRANCH   4   5
ENDBRANCH   3   4
TORSDOF 15
ENDMDL