MODEL 5
REMARK VINA RESULT: -7.694426873      3.253      4.478
REMARK  15 active torsions:
REMARK  status: ('A' for Active; 'I' for Inactive)
REMARK    1  A    between atoms: O1_1  and  N1_3
REMARK    2  A    between atoms: N1_3  and  C1_4
REMARK    3  A    between atoms: N1_3  and  C23_32
REMARK    4  A    between atoms: C1_4  and  C2_5
REMARK    5  A    between atoms: C2_5  and  N2_6
REMARK    6  A    between atoms: N2_6  and  C3_8
REMARK    7  A    between atoms: C6_11  and  C7_12
REMARK    8  A    between atoms: C7_12  and  C8_13
REMARK    9  A    between atoms: C8_13  and  C9_14
REMARK   10  A    between atoms: C9_14  and  C10_15
REMARK   11  A    between atoms: C10_15  and  C11_16
REMARK   12  A    between atoms: C11_16  and  C12_17
REMARK   13  A    between atoms: C12_17  and  C13_18
REMARK   14  A    between atoms: C13_18  and  C14_19
REMARK   15  A    between atoms: C23_32  and  C24_33
ROOT
HETATM    1  C3  UNL     1       4.941  26.353  21.449  1.00  0.00     0.039 A
HETATM    2  C4  UNL     1       4.490  25.063  21.683  1.00  0.00     0.030 A
HETATM    3  C5  UNL     1       5.157  24.174  22.485  1.00  0.00     0.010 A
HETATM    4  C6  UNL     1       6.322  24.536  23.100  1.00  0.00    -0.047 A
HETATM    5  C17 UNL     1       6.802  25.830  22.885  1.00  0.00    -0.017 A
HETATM    6  C18 UNL     1       7.973  26.252  23.467  1.00  0.00     0.013 A
HETATM    7  C19 UNL     1       8.510  27.504  23.296  1.00  0.00     0.001 A
HETATM    8  C20 UNL     1       7.826  28.377  22.489  1.00  0.00     0.001 A
HETATM    9  C21 UNL     1       6.634  27.995  21.877  1.00  0.00     0.014 A
HETATM   10  C22 UNL     1       6.120  26.733  22.067  1.00  0.00     0.001 A
ENDROOT
BRANCH   1  11
HETATM   11  N2  UNL     1       4.207  27.240  20.643  1.00  0.00    -0.388 N
ATOM     12  H2  UNL     1       4.115  28.211  20.937  1.00  0.00     0.159 HD
BRANCH  11  13
HETATM   13  C2  UNL     1       3.570  26.816  19.394  1.00  0.00     0.136 C
BRANCH  13  14
HETATM   14  C1  UNL     1       4.149  27.605  18.244  1.00  0.00     0.140 C
BRANCH  14  15
HETATM   15  N1  UNL     1       5.503  27.989  18.555  1.00  0.00    -0.194 NA
BRANCH  15  16
HETATM   16  O1  UNL     1       5.592  29.335  18.581  1.00  0.00    -0.313 OA
ATOM     17  H1  UNL     1       6.214  29.622  17.923  1.00  0.00     0.237 HD
ENDBRANCH  15  16
BRANCH  15  18
HETATM   18  C23 UNL     1       6.516  27.389  17.745  1.00  0.00     0.159 C
BRANCH  18  19
HETATM   19  C24 UNL     1       7.288  26.412  18.545  1.00  0.00    -0.043 A
HETATM   20  C25 UNL     1       6.837  25.107  18.665  1.00  0.00     0.008 A
HETATM   21  C26 UNL     1       7.517  24.158  19.387  1.00  0.00     0.001 A
HETATM   22  C27 UNL     1       8.691  24.499  20.022  1.00  0.00     0.000 A
HETATM   23  C28 UNL     1       9.171  25.805  19.919  1.00  0.00     0.001 A
HETATM   24  C29 UNL     1       8.455  26.730  19.181  1.00  0.00     0.008 A
ENDBRANCH  18  19
ENDBRANCH  15  18
ENDBRANCH  14  15
ENDBRANCH  13  14
ENDBRANCH  11  13
ENDBRANCH   1  11
BRANCH   4  25
HETATM   25  C7  UNL     1       7.075  23.628  24.008  1.00  0.00     0.039 C
BRANCH  25  26
HETATM   26  C8  UNL     1       6.125  22.956  24.968  1.00  0.00     0.005 C
BRANCH  26  27
HETATM   27  C9  UNL     1       6.576  23.062  26.404  1.00  0.00     0.000 C
BRANCH  27  28
HETATM   28  C10 UNL     1       6.982  24.462  26.698  1.00  0.00     0.000 C
BRANCH  28  29
HETATM   29  C11 UNL     1       8.237  24.596  27.529  1.00  0.00     0.000 C
BRANCH  29  30
HETATM   30  C12 UNL     1       9.341  23.762  26.978  1.00  0.00     0.006 C
BRANCH  30  31
HETATM   31  C13 UNL     1      10.243  23.153  27.994  1.00  0.00     0.058 C
BRANCH  31  32
HETATM   32  C14 UNL     1      10.139  21.697  28.142  1.00  0.00     0.025 A
HETATM   33  C15 UNL     1      11.250  20.925  28.506  1.00  0.00     0.113 A
HETATM   34  N3  UNL     1      10.885  19.650  28.563  1.00  0.00    -0.360 N
HETATM   35  C16 UNL     1       9.582  19.600  28.246  1.00  0.00     0.180 A
ATOM     36  H3  UNL     1      11.482  18.859  28.803  1.00  0.00     0.166 HD
HETATM   37  N4  UNL     1       9.129  20.840  27.990  1.00  0.00    -0.355 N
ATOM     38  H4  UNL     1       8.174  21.084  27.724  1.00  0.00     0.166 HD
ENDBRANCH  31  32
ENDBRANCH  30  31
ENDBRANCH  29  30
ENDBRANCH  28  29
ENDBRANCH  27  28
ENDBRANCH  26  27
ENDBRANCH  25  26
ENDBRANCH   4  25
TORSDOF 15
ENDMDL