MODEL 2
REMARK VINA RESULT: -8.346722280      2.400      5.164
REMARK  13 active torsions:
REMARK  status: ('A' for Active; 'I' for Inactive)
REMARK    1  A    between atoms: C9_11  and  C10_12
REMARK    2  A    between atoms: C10_12  and  C11_13
REMARK    3  A    between atoms: C11_13  and  N2_14
REMARK    4  A    between atoms: N2_14  and  C12_16
REMARK    5  A    between atoms: C12_16  and  C13_17
REMARK    6  A    between atoms: C13_17  and  C14_18
REMARK    7  A    between atoms: C14_18  and  C15_19
REMARK    8  A    between atoms: C15_19  and  C16_20
REMARK    9  A    between atoms: C16_20  and  C17_21
REMARK   10  A    between atoms: C17_21  and  C18_22
REMARK   11  A    between atoms: C18_22  and  C19_23
REMARK   12  A    between atoms: C19_23  and  N3_24
REMARK   13  A    between atoms: N3_24  and  C20_26
ROOT
HETATM    1  C20 UNL     1       7.630  19.566  21.962  1.00  0.00     0.049 A
HETATM    2  C21 UNL     1       8.673  20.160  22.641  1.00  0.00     0.044 A
HETATM    3  C22 UNL     1       8.510  20.640  23.936  1.00  0.00    -0.007 A
HETATM    4  C23 UNL     1       9.601  21.226  24.561  1.00  0.00     0.015 A
HETATM    5  C24 UNL     1       9.425  21.699  25.844  1.00  0.00     0.018 A
HETATM    6  C25 UNL     1       8.187  21.567  26.435  1.00  0.00     0.088 A
HETATM    7  N4  UNL     1       7.135  21.001  25.832  1.00  0.00    -0.365 N
ATOM      8  H4  UNL     1       6.236  20.925  26.308  1.00  0.00     0.165 HD
HETATM    9  C26 UNL     1       7.295  20.535  24.577  1.00  0.00     0.043 A
HETATM   10  C27 UNL     1       6.231  19.935  23.898  1.00  0.00     0.055 A
HETATM   11  C28 UNL     1       6.427  19.475  22.627  1.00  0.00     0.073 A
HETATM   12  C29 UNL     1       5.339  18.853  21.909  1.00  0.00     0.102 C
HETATM   13  N5  UNL     1       4.459  18.365  21.347  1.00  0.00    -0.191 NA
ENDROOT
BRANCH   1  14
HETATM   14  N3  UNL     1       7.789  19.074  20.637  1.00  0.00    -0.389 N
ATOM     15  H3  UNL     1       7.564  18.097  20.448  1.00  0.00     0.159 HD
BRANCH  14  16
HETATM   16  C19 UNL     1       8.254  19.898  19.552  1.00  0.00     0.120 C
BRANCH  16  17
HETATM   17  C18 UNL     1       7.189  20.901  19.201  1.00  0.00     0.020 C
BRANCH  17  18
HETATM   18  C17 UNL     1       7.817  22.266  19.122  1.00  0.00     0.002 C
BRANCH  18  19
HETATM   19  C16 UNL     1       7.739  23.002  20.440  1.00  0.00     0.000 C
BRANCH  19  20
HETATM   20  C15 UNL     1       8.917  23.920  20.558  1.00  0.00     0.000 C
BRANCH  20  21
HETATM   21  C14 UNL     1       8.561  25.357  20.313  1.00  0.00     0.002 C
BRANCH  21  22
HETATM   22  C13 UNL     1       8.617  25.722  18.835  1.00  0.00     0.019 C
BRANCH  22  23
HETATM   23  C12 UNL     1       7.322  26.373  18.398  1.00  0.00     0.113 C
BRANCH  23  24
HETATM   24  N2  UNL     1       6.170  25.768  19.006  1.00  0.00    -0.421 N
ATOM     25  H2  UNL     1       6.171  24.790  19.299  1.00  0.00     0.153 HD
BRANCH  24  26
HETATM   26  C11 UNL     1       5.037  26.590  19.179  1.00  0.00     0.118 C
BRANCH  26  27
HETATM   27  C10 UNL     1       4.459  26.639  20.552  1.00  0.00     0.060 C
BRANCH  27  28
HETATM   28  C9  UNL     1       5.472  26.799  21.608  1.00  0.00    -0.022 A
HETATM   29  C2  UNL     1       6.225  27.927  21.858  1.00  0.00     0.013 A
HETATM   30  C1  UNL     1       6.124  29.205  21.088  1.00  0.00     0.068 C
HETATM   31  N1  UNL     1       7.057  27.703  22.894  1.00  0.00    -0.359 N
HETATM   32  C3  UNL     1       6.860  26.446  23.322  1.00  0.00     0.043 A
ATOM     33  H1  UNL     1       7.722  28.371  23.284  1.00  0.00     0.166 HD
HETATM   34  C4  UNL     1       7.427  25.701  24.327  1.00  0.00     0.030 A
HETATM   35  C8  UNL     1       5.865  25.862  22.523  1.00  0.00    -0.001 A
HETATM   36  C5  UNL     1       7.062  24.405  24.583  1.00  0.00     0.002 A
HETATM   37  C6  UNL     1       6.072  23.817  23.791  1.00  0.00     0.001 A
HETATM   38  C7  UNL     1       5.495  24.549  22.783  1.00  0.00     0.014 A
ENDBRANCH  27  28
ENDBRANCH  26  27
ENDBRANCH  24  26
ENDBRANCH  23  24
ENDBRANCH  22  23
ENDBRANCH  21  22
ENDBRANCH  20  21
ENDBRANCH  19  20
ENDBRANCH  18  19
ENDBRANCH  17  18
ENDBRANCH  16  17
ENDBRANCH  14  16
ENDBRANCH   1  14
TORSDOF 13
ENDMDL