MODEL 4
REMARK VINA RESULT: -7.906702035      2.822      7.225
REMARK  15 active torsions:
REMARK  status: ('A' for Active; 'I' for Inactive)
REMARK    1  A    between atoms: N1_1  and  N2_4
REMARK    2  A    between atoms: C2_6  and  C3_7
REMARK    3  A    between atoms: C3_7  and  C4_8
REMARK    4  A    between atoms: C4_8  and  C5_9
REMARK    5  A    between atoms: C5_9  and  C6_10
REMARK    6  A    between atoms: C6_10  and  C7_11
REMARK    7  A    between atoms: C7_11  and  O1_12
REMARK    8  A    between atoms: C7_11  and  C8_14
REMARK    9  A    between atoms: C8_14  and  C9_15
REMARK   10  A    between atoms: C9_15  and  C10_16
REMARK   11  A    between atoms: C10_16  and  C11_17
REMARK   12  A    between atoms: C11_17  and  C12_18
REMARK   13  A    between atoms: C12_18  and  C13_19
REMARK   14  A    between atoms: C13_19  and  C14_20
REMARK   15  A    between atoms: C20_29  and  C21_30
ROOT
HETATM    1  C3  UNL     1       8.476  25.193  24.590  1.00  0.00     0.056 C
ENDROOT
BRANCH   1   2
HETATM    2  C2  UNL     1       7.636  26.185  23.880  1.00  0.00     0.025 C
HETATM    3  C1  UNL     1       8.011  27.564  23.528  1.00  0.00     0.170 C
HETATM    4  N2  UNL     1       7.579  27.827  22.162  1.00  0.00    -0.201 NA
HETATM    5  C20 UNL     1       6.131  27.782  22.059  1.00  0.00     0.249 C
HETATM    6  O2  UNL     1       5.617  26.735  22.887  1.00  0.00    -0.258 OA
HETATM    7  N3  UNL     1       6.407  25.844  23.519  1.00  0.00    -0.272 N
ATOM      8  H3  UNL     1       6.059  24.907  23.719  1.00  0.00     0.193 HD
BRANCH   4   9
HETATM    9  N1  UNL     1       8.121  28.981  21.642  1.00  0.00    -0.361 NA
ATOM     10  H12 UNL     1       9.140  28.958  21.595  1.00  0.00     0.171 HD
ATOM     11  H11 UNL     1       7.721  29.235  20.739  1.00  0.00     0.171 HD
ENDBRANCH   4   9
BRANCH   5  12
HETATM   12  C21 UNL     1       5.670  27.583  20.630  1.00  0.00     0.033 C
HETATM   13  C22 UNL     1       4.399  26.736  20.714  1.00  0.00     0.009 C
HETATM   14  C23 UNL     1       3.356  27.338  19.816  1.00  0.00     0.001 C
HETATM   15  C24 UNL     1       3.703  26.889  18.390  1.00  0.00     0.000 C
HETATM   16  C25 UNL     1       4.382  27.933  17.600  1.00  0.00     0.000 C
HETATM   17  C26 UNL     1       5.841  28.107  17.814  1.00  0.00     0.000 C
HETATM   18  C27 UNL     1       6.574  26.947  18.364  1.00  0.00     0.001 C
HETATM   19  C28 UNL     1       6.742  26.927  19.852  1.00  0.00     0.009 C
ENDBRANCH   5  12
ENDBRANCH   1   2
BRANCH   1  20
HETATM   20  C4  UNL     1       8.609  25.365  26.051  1.00  0.00     0.006 C
BRANCH  20  21
HETATM   21  C5  UNL     1       7.602  24.703  26.917  1.00  0.00     0.003 C
BRANCH  21  22
HETATM   22  C6  UNL     1       8.234  23.916  28.047  1.00  0.00     0.032 C
BRANCH  22  23
HETATM   23  C7  UNL     1       9.608  23.424  27.611  1.00  0.00     0.118 C
BRANCH  23  24
HETATM   24  O1  UNL     1      10.603  23.673  28.513  1.00  0.00    -0.396 OA
ATOM     25  H1  UNL     1      10.830  24.591  28.598  1.00  0.00     0.210 HD
ENDBRANCH  23  24
BRANCH  23  26
HETATM   26  C8  UNL     1       9.512  22.003  27.138  1.00  0.00     0.032 C
BRANCH  26  27
HETATM   27  C9  UNL     1      10.066  21.734  25.796  1.00  0.00     0.002 C
BRANCH  27  28
HETATM   28  C10 UNL     1       9.106  21.520  24.682  1.00  0.00     0.000 C
BRANCH  28  29
HETATM   29  C11 UNL     1       7.682  21.458  25.097  1.00  0.00     0.000 C
BRANCH  29  30
HETATM   30  C12 UNL     1       6.709  21.207  24.012  1.00  0.00     0.005 C
BRANCH  30  31
HETATM   31  C13 UNL     1       6.322  22.352  23.154  1.00  0.00     0.038 C
BRANCH  31  32
HETATM   32  C14 UNL     1       6.817  22.202  21.740  1.00  0.00    -0.058 A
HETATM   33  C15 UNL     1       6.820  21.032  21.056  1.00  0.00     0.007 A
HETATM   34  C16 UNL     1       7.283  20.983  19.769  1.00  0.00     0.001 A
HETATM   35  C17 UNL     1       7.764  22.086  19.103  1.00  0.00     0.000 A
HETATM   36  C18 UNL     1       7.764  23.279  19.795  1.00  0.00     0.001 A
HETATM   37  C19 UNL     1       7.302  23.339  21.084  1.00  0.00     0.007 A
ENDBRANCH  31  32
ENDBRANCH  30  31
ENDBRANCH  29  30
ENDBRANCH  28  29
ENDBRANCH  27  28
ENDBRANCH  26  27
ENDBRANCH  23  26
ENDBRANCH  22  23
ENDBRANCH  21  22
ENDBRANCH  20  21
ENDBRANCH   1  20
TORSDOF 15
ENDMDL