MODEL 4
REMARK VINA RESULT: -8.345738188      2.617      5.795
REMARK  15 active torsions:
REMARK  status: ('A' for Active; 'I' for Inactive)
REMARK    1  A    between atoms: N1_1  and  C1_5
REMARK    2  A    between atoms: C1_5  and  C2_6
REMARK    3  A    between atoms: C2_6  and  C3_7
REMARK    4  A    between atoms: C3_7  and  C4_8
REMARK    5  A    between atoms: C4_8  and  C5_9
REMARK    6  A    between atoms: C5_9  and  C6_10
REMARK    7  A    between atoms: C6_10  and  C7_11
REMARK    8  A    between atoms: C7_11  and  C8_12
REMARK    9  A    between atoms: C12_16  and  C13_17
REMARK   10  A    between atoms: C13_17  and  C14_18
REMARK   11  A    between atoms: C14_18  and  C15_19
REMARK   12  A    between atoms: C15_19  and  C16_20
REMARK   13  A    between atoms: C16_20  and  N2_21
REMARK   14  A    between atoms: N2_21  and  C17_23
REMARK   15  A    between atoms: C21_29  and  C22_30
ROOT
HETATM    1  C16 UNL     1       8.193  25.812  25.305  1.00  0.00     0.121 C
ENDROOT
BRANCH   1   2
HETATM    2  C15 UNL     1       8.467  24.825  24.203  1.00  0.00     0.020 C
BRANCH   2   3
HETATM    3  C14 UNL     1       7.266  24.578  23.359  1.00  0.00     0.006 C
BRANCH   3   4
HETATM    4  C13 UNL     1       7.449  23.704  22.171  1.00  0.00     0.038 C
BRANCH   4   5
HETATM    5  C12 UNL     1       7.893  24.369  20.945  1.00  0.00    -0.058 A
HETATM    6  C11 UNL     1       9.200  24.410  20.554  1.00  0.00     0.007 A
HETATM    7  C10 UNL     1       9.622  25.034  19.392  1.00  0.00     0.001 A
HETATM    8  C9  UNL     1       8.702  25.646  18.582  1.00  0.00     0.007 A
HETATM    9  C8  UNL     1       7.373  25.629  18.940  1.00  0.00    -0.058 A
HETATM   10  C29 UNL     1       6.971  24.991  20.120  1.00  0.00     0.014 A
BRANCH   9  11
HETATM   11  C7  UNL     1       6.359  26.279  18.088  1.00  0.00     0.038 C
BRANCH  11  12
HETATM   12  C6  UNL     1       5.026  26.474  18.741  1.00  0.00     0.005 C
BRANCH  12  13
HETATM   13  C5  UNL     1       5.027  27.708  19.596  1.00  0.00     0.000 C
BRANCH  13  14
HETATM   14  C4  UNL     1       4.717  27.465  21.043  1.00  0.00     0.000 C
BRANCH  14  15
HETATM   15  C3  UNL     1       5.814  28.033  21.908  1.00  0.00     0.002 C
BRANCH  15  16
HETATM   16  C2  UNL     1       6.902  28.626  21.028  1.00  0.00     0.027 C
BRANCH  16  17
HETATM   17  C1  UNL     1       8.290  28.303  21.536  1.00  0.00     0.229 C
BRANCH  17  18
HETATM   18  N1  UNL     1       8.264  28.492  22.987  1.00  0.00    -0.079 N
ATOM     19  H13 UNL     1       8.730  29.348  23.288  1.00  0.00     0.274 HD
ATOM     20  H12 UNL     1       7.336  28.715  23.346  1.00  0.00     0.274 HD
ATOM     21  H11 UNL     1       8.664  27.650  23.402  1.00  0.00     0.274 HD
ENDBRANCH  17  18
ENDBRANCH  16  17
ENDBRANCH  15  16
ENDBRANCH  14  15
ENDBRANCH  13  14
ENDBRANCH  12  13
ENDBRANCH  11  12
ENDBRANCH   9  11
ENDBRANCH   4   5
ENDBRANCH   3   4
ENDBRANCH   2   3
ENDBRANCH   1   2
BRANCH   1  22
HETATM   22  N2  UNL     1       8.650  25.366  26.609  1.00  0.00    -0.376 N
ATOM     23  H2  UNL     1       9.367  25.910  27.090  1.00  0.00     0.161 HD
BRANCH  22  24
HETATM   24  C17 UNL     1       8.141  24.204  27.240  1.00  0.00     0.115 A
HETATM   25  N3  UNL     1       6.803  24.109  27.329  1.00  0.00    -0.352 N
HETATM   26  C18 UNL     1       6.176  23.021  27.770  1.00  0.00     0.089 A
ATOM     27  H3  UNL     1       6.241  24.910  27.043  1.00  0.00     0.166 HD
HETATM   28  C19 UNL     1       6.910  21.927  28.162  1.00  0.00     0.018 A
HETATM   29  C20 UNL     1       8.271  22.002  28.084  1.00  0.00     0.020 A
HETATM   30  C21 UNL     1       8.921  23.162  27.616  1.00  0.00     0.052 A
BRANCH  30  31
HETATM   31  C22 UNL     1      10.386  23.168  27.712  1.00  0.00     0.120 A
HETATM   32  N4  UNL     1      11.194  22.338  26.980  1.00  0.00    -0.340 N
HETATM   33  C23 UNL     1      12.476  22.606  27.234  1.00  0.00     0.060 A
ATOM     34  H4  UNL     1      10.864  21.621  26.334  1.00  0.00     0.167 HD
HETATM   35  C24 UNL     1      13.682  22.073  26.771  1.00  0.00     0.032 A
HETATM   36  C28 UNL     1      12.462  23.627  28.148  1.00  0.00     0.060 A
HETATM   37  C25 UNL     1      14.866  22.588  27.245  1.00  0.00     0.002 A
HETATM   38  C26 UNL     1      14.831  23.612  28.161  1.00  0.00     0.002 A
HETATM   39  C27 UNL     1      13.667  24.153  28.632  1.00  0.00     0.032 A
HETATM   40  N5  UNL     1      11.182  23.930  28.406  1.00  0.00    -0.340 N
ATOM     41  H5  UNL     1      10.875  24.655  29.054  1.00  0.00     0.167 HD
ENDBRANCH  30  31
ENDBRANCH  22  24
ENDBRANCH   1  22
TORSDOF 15
ENDMDL