MODEL 4
REMARK VINA RESULT: -9.649905438      2.702      5.663
REMARK  17 active torsions:
REMARK  status: ('A' for Active; 'I' for Inactive)
REMARK    1  A    between atoms: N1_1  and  C1_4
REMARK    2  A    between atoms: C2_7  and  N3_8
REMARK    3  A    between atoms: N3_8  and  C3_10
REMARK    4  A    between atoms: C3_10  and  C4_11
REMARK    5  A    between atoms: C10_20  and  N6_21
REMARK    6  A    between atoms: N6_21  and  C11_23
REMARK    7  A    between atoms: C14_26  and  C15_27
REMARK    8  A    between atoms: C15_27  and  C16_28
REMARK    9  A    between atoms: C16_28  and  C17_29
REMARK   10  A    between atoms: C17_29  and  C18_30
REMARK   11  A    between atoms: C18_30  and  O1_31
REMARK   12  A    between atoms: O1_31  and  C19_32
REMARK   13  A    between atoms: C19_32  and  C20_33
REMARK       I    between atoms: C20_33  and  N7_35
REMARK   14  A    between atoms: N7_35  and  C21_37
REMARK   15  A    between atoms: C24_42  and  C25_43
REMARK   16  A    between atoms: C25_43  and  O3_44
REMARK   17  A    between atoms: C25_43  and  O4_46
ROOT
HETATM    1  C11 UNL     1      89.692  33.791  41.962  1.00  0.00     0.049 A
HETATM    2  C12 UNL     1      90.878  33.643  42.648  1.00  0.00     0.030 A
HETATM    3  C13 UNL     1      91.424  34.715  43.366  1.00  0.00     0.009 A
HETATM    4  C14 UNL     1      90.790  35.928  43.396  1.00  0.00    -0.058 A
HETATM    5  C27 UNL     1      89.611  36.090  42.718  1.00  0.00     0.009 A
HETATM    6  C28 UNL     1      89.080  35.029  42.015  1.00  0.00     0.030 A
ENDROOT
BRANCH   1   7
HETATM    7  N6  UNL     1      89.101  32.731  41.227  1.00  0.00    -0.191 N
ATOM      8  H6  UNL     1      89.446  32.519  40.290  1.00  0.00     0.184 HD
BRANCH   7   9
HETATM    9  C10 UNL     1      88.147  32.039  41.715  1.00  0.00     0.711 A
HETATM   10  N5  UNL     1      86.890  32.505  41.702  1.00  0.00    -0.021 N
HETATM   11  C2  UNL     1      85.857  31.811  42.212  1.00  0.00     0.707 A
ATOM     12  H5  UNL     1      86.710  33.421  41.289  1.00  0.00     0.203 HD
HETATM   13  N2  UNL     1      86.110  30.610  42.750  1.00  0.00    -0.022 N
HETATM   14  C1  UNL     1      87.347  30.107  42.782  1.00  0.00     0.705 A
ATOM     15  H2  UNL     1      85.341  30.067  43.143  1.00  0.00     0.203 HD
HETATM   16  N9  UNL     1      88.376  30.835  42.258  1.00  0.00    -0.021 N
ATOM     17  H9  UNL     1      89.326  30.460  42.278  1.00  0.00     0.203 HD
BRANCH  11  18
HETATM   18  N3  UNL     1      84.681  32.328  42.162  1.00  0.00    -0.221 N
ATOM     19  H3  UNL     1      83.905  31.774  41.801  1.00  0.00     0.178 HD
BRANCH  18  20
HETATM   20  C3  UNL     1      84.441  33.682  42.607  1.00  0.00     0.176 C
BRANCH  20  21
HETATM   21  C4  UNL     1      83.566  34.405  41.656  1.00  0.00    -0.040 A
HETATM   22  C5  UNL     1      82.474  35.063  42.130  1.00  0.00     0.011 A
HETATM   23  C6  UNL     1      81.627  35.751  41.300  1.00  0.00     0.027 A
HETATM   24  C7  UNL     1      81.913  35.758  39.960  1.00  0.00     0.046 A
HETATM   25  N4  UNL     1      81.053  36.462  39.074  1.00  0.00    -0.102 NA
HETATM   26  C8  UNL     1      83.004  35.102  39.470  1.00  0.00     0.027 A
HETATM   27  C9  UNL     1      83.847  34.413  40.327  1.00  0.00     0.011 A
ENDBRANCH  20  21
ENDBRANCH  18  20
ENDBRANCH  11  18
BRANCH  14  28
HETATM   28  N1  UNL     1      87.547  28.950  43.308  1.00  0.00    -0.234 N
ATOM     29  H12 UNL     1      87.520  28.100  42.744  1.00  0.00     0.174 HD
ATOM     30  H11 UNL     1      87.738  28.879  44.308  1.00  0.00     0.174 HD
ENDBRANCH  14  28
ENDBRANCH   7   9
ENDBRANCH   1   7
BRANCH   4  31
HETATM   31  C15 UNL     1      91.364  37.050  44.152  1.00  0.00     0.038 C
BRANCH  31  32
HETATM   32  C16 UNL     1      90.260  37.922  44.706  1.00  0.00     0.007 C
BRANCH  32  33
HETATM   33  C17 UNL     1      89.924  37.625  46.140  1.00  0.00     0.027 C
BRANCH  33  34
HETATM   34  C18 UNL     1      91.173  37.003  46.762  1.00  0.00     0.168 C
BRANCH  34  35
HETATM   35  O1  UNL     1      90.901  35.957  47.590  1.00  0.00    -0.382 OA
BRANCH  35  36
HETATM   36  C19 UNL     1      91.012  34.696  47.093  1.00  0.00     0.270 C
BRANCH  36  37
HETATM   37  C20 UNL     1      90.328  33.645  47.848  1.00  0.00     0.245 C
HETATM   38  O2  UNL     1      90.570  33.615  49.106  1.00  0.00    -0.271 OA
HETATM   39  N7  UNL     1      89.448  32.673  47.377  1.00  0.00    -0.325 N
ATOM     40  H7  UNL     1      89.870  31.787  47.099  1.00  0.00     0.169 HD
BRANCH  39  41
HETATM   41  C21 UNL     1      88.182  32.751  47.251  1.00  0.00     0.038 A
HETATM   42  C22 UNL     1      87.643  32.824  45.977  1.00  0.00     0.046 A
HETATM   43  C23 UNL     1      86.267  32.911  45.809  1.00  0.00     0.090 A
HETATM   44  N8  UNL     1      85.410  32.926  46.861  1.00  0.00    -0.365 N
HETATM   45  C24 UNL     1      85.919  32.855  48.104  1.00  0.00     0.066 A
ATOM     46  H8  UNL     1      84.404  32.989  46.712  1.00  0.00     0.165 HD
HETATM   47  C26 UNL     1      87.287  32.768  48.303  1.00  0.00     0.059 A
BRANCH  45  48
HETATM   48  C25 UNL     1      84.994  32.870  49.269  1.00  0.00     0.305 C
BRANCH  48  49
HETATM   49  O3  UNL     1      84.677  34.189  49.595  1.00  0.00    -0.366 OA
ATOM     50  H3  UNL     1      85.094  34.422  50.416  1.00  0.00     0.213 HD
ENDBRANCH  48  49
BRANCH  48  51
HETATM   51  O4  UNL     1      83.870  32.098  49.052  1.00  0.00    -0.366 OA
ATOM     52  H4  UNL     1      83.875  31.303  49.570  1.00  0.00     0.213 HD
ENDBRANCH  48  51
ENDBRANCH  45  48
ENDBRANCH  39  41
ENDBRANCH  36  37
ENDBRANCH  35  36
ENDBRANCH  34  35
ENDBRANCH  33  34
ENDBRANCH  32  33
ENDBRANCH  31  32
ENDBRANCH   4  31
TORSDOF 17
ENDMDL