MODEL 3
REMARK VINA RESULT: -10.189157693      2.047      2.860
REMARK  13 active torsions:
REMARK  status: ('A' for Active; 'I' for Inactive)
REMARK    1  A    between atoms: C4_4  and  N1_5
REMARK    2  A    between atoms: N1_5  and  C5_7
REMARK    3  A    between atoms: C8_10  and  C9_11
REMARK       I    between atoms: C9_11  and  N2_13
REMARK    4  A    between atoms: N2_13  and  C10_15
REMARK    5  A    between atoms: C10_15  and  C11_16
REMARK    6  A    between atoms: C11_16  and  N3_17
REMARK    7  A    between atoms: C16_24  and  N5_25
REMARK    8  A    between atoms: N5_25  and  C17_27
REMARK    9  A    between atoms: C17_27  and  C18_28
REMARK   10  A    between atoms: C18_28  and  C19_29
REMARK   11  A    between atoms: C22_32  and  C23_33
REMARK   12  A    between atoms: C23_33  and  N6_35
REMARK   13  A    between atoms: C23_33  and  C25_39
ROOT
HETATM    1  N5  UNL     1      81.397  31.889  39.660  1.00  0.00    -0.226 N
ATOM      2  H5  UNL     1      80.422  31.590  39.650  1.00  0.00     0.177 HD
ENDROOT
BRANCH   1   3
HETATM    3  C16 UNL     1      81.676  33.028  40.194  1.00  0.00     0.679 A
HETATM    4  N4  UNL     1      82.283  33.117  41.399  1.00  0.00    -0.177 N
HETATM    5  C4  UNL     1      82.584  34.284  41.978  1.00  0.00     0.123 A
ATOM      6  H4  UNL     1      82.522  32.255  41.889  1.00  0.00     0.186 HD
HETATM    7  C3  UNL     1      82.271  35.458  41.338  1.00  0.00     0.074 A
HETATM    8  C2  UNL     1      81.649  35.405  40.104  1.00  0.00     0.026 A
HETATM    9  C1  UNL     1      81.276  36.623  39.339  1.00  0.00     0.069 C
HETATM   10  N12 UNL     1      81.381  34.191  39.592  1.00  0.00    -0.196 N
ATOM     11  H12 UNL     1      80.923  34.151  38.681  1.00  0.00     0.184 HD
BRANCH   5  12
HETATM   12  N1  UNL     1      83.165  34.301  43.129  1.00  0.00    -0.342 N
ATOM     13  H1  UNL     1      82.605  34.486  43.962  1.00  0.00     0.167 HD
BRANCH  12  14
HETATM   14  C5  UNL     1      84.553  34.073  43.272  1.00  0.00     0.033 A
HETATM   15  C6  UNL     1      85.447  34.323  42.270  1.00  0.00     0.030 A
HETATM   16  C7  UNL     1      86.804  34.096  42.419  1.00  0.00     0.019 A
HETATM   17  C8  UNL     1      87.310  33.605  43.596  1.00  0.00     0.032 A
HETATM   18  C14 UNL     1      86.407  33.347  44.623  1.00  0.00     0.019 A
HETATM   19  C15 UNL     1      85.050  33.581  44.453  1.00  0.00     0.030 A
BRANCH  17  20
HETATM   20  C9  UNL     1      88.724  33.352  43.785  1.00  0.00     0.251 C
HETATM   21  O1  UNL     1      89.077  32.125  43.784  1.00  0.00    -0.268 OA
HETATM   22  N2  UNL     1      89.696  34.366  43.963  1.00  0.00    -0.352 N
ATOM     23  H2  UNL     1      89.388  35.339  43.962  1.00  0.00     0.163 HD
BRANCH  22  24
HETATM   24  C10 UNL     1      91.090  34.091  44.145  1.00  0.00     0.167 C
BRANCH  24  25
HETATM   25  C11 UNL     1      91.868  35.326  44.405  1.00  0.00     0.076 C
BRANCH  25  26
HETATM   26  N3  UNL     1      91.579  36.006  45.599  1.00  0.00    -0.400 N
HETATM   27  C12 UNL     1      91.336  37.393  45.560  1.00  0.00     0.148 C
HETATM   28  C13 UNL     1      91.491  35.317  46.813  1.00  0.00     0.148 C
ENDBRANCH  25  26
ENDBRANCH  24  25
ENDBRANCH  22  24
ENDBRANCH  17  20
ENDBRANCH  12  14
ENDBRANCH   5  12
ENDBRANCH   1   3
BRANCH   1  29
HETATM   29  C17 UNL     1      82.384  31.009  39.075  1.00  0.00     0.144 C
BRANCH  29  30
HETATM   30  C18 UNL     1      82.408  29.730  39.864  1.00  0.00     0.077 C
BRANCH  30  31
HETATM   31  C19 UNL     1      82.083  28.543  39.042  1.00  0.00     0.010 A
HETATM   32  C20 UNL     1      82.913  27.430  38.987  1.00  0.00     0.025 A
HETATM   33  C21 UNL     1      82.622  26.319  38.225  1.00  0.00     0.013 A
HETATM   34  C22 UNL     1      81.463  26.307  37.485  1.00  0.00     0.000 A
HETATM   35  C27 UNL     1      80.649  27.421  37.553  1.00  0.00     0.098 A
HETATM   36  N11 UNL     1      80.956  28.495  38.306  1.00  0.00    -0.368 N
ATOM     37  H11 UNL     1      80.319  29.291  38.319  1.00  0.00     0.165 HD
BRANCH  34  38
HETATM   38  C23 UNL     1      81.093  25.135  36.644  1.00  0.00     0.207 C
HETATM   39  C24 UNL     1      82.139  24.085  36.854  1.00  0.00     0.060 C
BRANCH  38  40
HETATM   40  N6  UNL     1      79.822  24.593  37.091  1.00  0.00    -0.059 N
ATOM     41  H63 UNL     1      79.841  24.333  38.077  1.00  0.00     0.276 HD
ATOM     42  H62 UNL     1      79.097  25.308  37.141  1.00  0.00     0.276 HD
ATOM     43  H61 UNL     1      79.553  23.813  36.492  1.00  0.00     0.276 HD
ENDBRANCH  38  40
BRANCH  38  44
HETATM   44  C25 UNL     1      80.963  25.471  35.225  1.00  0.00     0.153 A
HETATM   45  N7  UNL     1      81.992  25.773  34.415  1.00  0.00    -0.272 N
HETATM   46  N8  UNL     1      81.553  26.028  33.209  1.00  0.00    -0.131 N
ATOM     47  H7  UNL     1      82.971  25.799  34.699  1.00  0.00     0.189 HD
HETATM   48  C26 UNL     1      80.231  25.898  33.205  1.00  0.00     0.692 A
ATOM     49  H8  UNL     1      82.129  26.283  32.407  1.00  0.00     0.205 HD
HETATM   50  N9  UNL     1      79.440  26.069  32.196  1.00  0.00    -0.233 N
HETATM   51  N10 UNL     1      79.859  25.556  34.439  1.00  0.00    -0.175 N
ATOM     52  H92 UNL     1      79.724  26.331  31.252  1.00  0.00     0.174 HD
ATOM     53  H91 UNL     1      78.425  25.970  32.192  1.00  0.00     0.174 HD
ATOM     54  H10 UNL     1      78.900  25.385  34.743  1.00  0.00     0.185 HD
ENDBRANCH  38  44
ENDBRANCH  34  38
ENDBRANCH  30  31
ENDBRANCH  29  30
ENDBRANCH   1  29
TORSDOF 13
ENDMDL