MODEL 1
REMARK VINA RESULT: -8.773623151      0.000      0.000
REMARK  14 active torsions:
REMARK  status: ('A' for Active; 'I' for Inactive)
REMARK    1  A    between atoms: C3_6  and  N3_7
REMARK    2  A    between atoms: C4_12  and  N5_13
REMARK    3  A    between atoms: C5_16  and  C6_17
REMARK       I    between atoms: C6_17  and  N6_19
REMARK    4  A    between atoms: N6_19  and  C7_21
REMARK    5  A    between atoms: C7_21  and  C8_22
REMARK    6  A    between atoms: C8_22  and  C9_23
REMARK    7  A    between atoms: C9_23  and  N7_24
REMARK    8  A    between atoms: N7_24  and  C10_25
REMARK    9  A    between atoms: N7_24  and  S1_36
REMARK   10  A    between atoms: C13_28  and  C14_29
REMARK   11  A    between atoms: S1_36  and  C17_39
REMARK   12  A    between atoms: C20_42  and  C21_43
REMARK   13  A    between atoms: C21_43  and  C22_44
REMARK   14  A    between atoms: C22_44  and  N10_45
ROOT
HETATM    1  N1  UNL     1      89.408  34.570  48.411  1.00  0.00    -0.190 NA
HETATM    2  C1  UNL     1      88.948  33.810  49.168  1.00  0.00     0.119 C
HETATM    3  C2  UNL     1      88.416  32.858  50.093  1.00  0.00     0.149 A
HETATM    4  N2  UNL     1      89.162  32.508  51.165  1.00  0.00    -0.181 N
ATOM      5  H2  UNL     1      90.064  32.964  51.303  1.00  0.00     0.185 HD
HETATM    6  C3  UNL     1      88.768  31.591  52.052  1.00  0.00     0.678 A
HETATM    7  N4  UNL     1      87.601  30.983  51.900  1.00  0.00    -0.176 N
ATOM      8  H4  UNL     1      87.307  30.283  52.581  1.00  0.00     0.186 HD
HETATM    9  C4  UNL     1      86.780  31.276  50.842  1.00  0.00     0.133 A
HETATM   10  C5  UNL     1      87.188  32.224  49.926  1.00  0.00     0.114 A
ENDROOT
BRANCH  10  11
HETATM   11  C6  UNL     1      86.329  32.610  48.834  1.00  0.00     0.258 C
HETATM   12  O1  UNL     1      85.375  33.415  49.067  1.00  0.00    -0.267 OA
HETATM   13  N6  UNL     1      86.456  32.175  47.503  1.00  0.00    -0.357 N
ATOM     14  H6  UNL     1      87.214  31.539  47.254  1.00  0.00     0.162 HD
BRANCH  13  15
HETATM   15  C7  UNL     1      85.515  32.622  46.461  1.00  0.00     0.124 C
BRANCH  15  16
HETATM   16  C8  UNL     1      86.279  33.189  45.317  1.00  0.00     0.041 C
BRANCH  16  17
HETATM   17  C9  UNL     1      86.740  32.192  44.322  1.00  0.00     0.143 C
BRANCH  17  18
HETATM   18  N7  UNL     1      86.879  32.671  42.972  1.00  0.00    -0.272 N
BRANCH  18  19
HETATM   19  C10 UNL     1      85.629  32.948  42.297  1.00  0.00     0.045 A
HETATM   20  C11 UNL     1      85.134  34.231  42.188  1.00  0.00     0.031 A
HETATM   21  C12 UNL     1      83.958  34.512  41.556  1.00  0.00     0.017 A
HETATM   22  C13 UNL     1      83.221  33.466  40.993  1.00  0.00     0.005 A
HETATM   23  C15 UNL     1      83.696  32.188  41.091  1.00  0.00     0.017 A
HETATM   24  C16 UNL     1      84.905  31.938  41.746  1.00  0.00     0.031 A
BRANCH  22  25
HETATM   25  C14 UNL     1      81.972  33.719  40.315  1.00  0.00     0.120 C
HETATM   26  N8  UNL     1      80.929  33.022  40.584  1.00  0.00    -0.387 N
ATOM     27  H82 UNL     1      80.995  32.284  41.286  1.00  0.00     0.157 HD
ATOM     28  H81 UNL     1      80.046  33.201  40.104  1.00  0.00     0.157 HD
HETATM   29  N9  UNL     1      81.881  34.738  39.346  1.00  0.00    -0.082 NA
ENDBRANCH  22  25
ENDBRANCH  18  19
BRANCH  18  30
HETATM   30  S1  UNL     1      88.377  32.914  42.193  1.00  0.00     0.265 S
HETATM   31  O2  UNL     1      89.204  31.683  42.223  1.00  0.00    -0.200 OA
HETATM   32  O3  UNL     1      88.228  33.337  40.769  1.00  0.00    -0.200 OA
BRANCH  30  33
HETATM   33  C17 UNL     1      89.302  34.151  43.064  1.00  0.00     0.080 A
HETATM   34  C18 UNL     1      90.137  33.792  44.099  1.00  0.00     0.026 A
HETATM   35  C19 UNL     1      90.876  34.730  44.803  1.00  0.00     0.009 A
HETATM   36  C20 UNL     1      90.796  36.069  44.483  1.00  0.00    -0.057 A
HETATM   37  C23 UNL     1      89.959  36.424  43.447  1.00  0.00     0.009 A
HETATM   38  C24 UNL     1      89.220  35.488  42.743  1.00  0.00     0.026 A
BRANCH  36  39
HETATM   39  C21 UNL     1      91.567  37.114  45.206  1.00  0.00     0.065 C
BRANCH  39  40
HETATM   40  C22 UNL     1      91.685  36.732  46.662  1.00  0.00     0.234 C
BRANCH  40  41
HETATM   41  N10 UNL     1      90.450  37.116  47.317  1.00  0.00    -0.079 N
ATOM     42 3H10 UNL     1      90.323  38.127  47.365  1.00  0.00     0.274 HD
ATOM     43 2H10 UNL     1      89.622  36.905  46.760  1.00  0.00     0.274 HD
ATOM     44 1H10 UNL     1      90.436  36.670  48.234  1.00  0.00     0.274 HD
ENDBRANCH  40  41
ENDBRANCH  39  40
ENDBRANCH  36  39
ENDBRANCH  30  33
ENDBRANCH  18  30
ENDBRANCH  17  18
ENDBRANCH  16  17
ENDBRANCH  15  16
ENDBRANCH  13  15
ENDBRANCH  10  11
BRANCH   6  45
HETATM   45  N3  UNL     1      89.529  31.299  53.060  1.00  0.00    -0.234 N
ATOM     46  H32 UNL     1      90.250  31.952  53.366  1.00  0.00     0.174 HD
ATOM     47  H31 UNL     1      89.407  30.412  53.549  1.00  0.00     0.174 HD
ENDBRANCH   6  45
BRANCH   9  48
HETATM   48  N5  UNL     1      85.696  30.648  50.816  1.00  0.00    -0.384 N
ATOM     49  H52 UNL     1      84.871  30.857  51.379  1.00  0.00     0.157 HD
ATOM     50  H51 UNL     1      85.668  29.855  50.176  1.00  0.00     0.157 HD
ENDBRANCH   9  48
TORSDOF 14
ENDMDL