MODEL 4
REMARK VINA RESULT: -9.859707743      3.217      5.249
REMARK  13 active torsions:
REMARK  status: ('A' for Active; 'I' for Inactive)
REMARK    1  A    between atoms: C2_2  and  O1_3
REMARK    2  A    between atoms: C5_11  and  O2_12
REMARK    3  A    between atoms: O2_12  and  C6_13
REMARK    4  A    between atoms: C6_13  and  C7_14
REMARK    5  A    between atoms: C7_14  and  C8_15
REMARK    6  A    between atoms: C8_15  and  C9_16
REMARK    7  A    between atoms: C9_16  and  C10_17
REMARK    8  A    between atoms: C10_17  and  N3_18
REMARK    9  A    between atoms: C14_25  and  N5_26
REMARK   10  A    between atoms: N5_26  and  C15_28
REMARK   11  A    between atoms: C23_42  and  C24_43
REMARK   12  A    between atoms: C24_43  and  O3_44
REMARK   13  A    between atoms: C24_43  and  C25_46
ROOT
HETATM    1  C6  UNL     1      89.649  38.424  44.219  1.00  0.00     0.178 C
ENDROOT
BRANCH   1   2
HETATM    2  O2  UNL     1      90.194  37.585  43.256  1.00  0.00    -0.322 OA
BRANCH   2   3
HETATM    3  C5  UNL     1      90.209  36.218  43.252  1.00  0.00     0.224 A
HETATM    4  N2  UNL     1      91.223  35.466  42.862  1.00  0.00    -0.319 N
HETATM    5  C4  UNL     1      90.850  34.185  43.007  1.00  0.00     0.078 A
ATOM      6  H2  UNL     1      92.122  35.798  42.514  1.00  0.00     0.169 HD
HETATM    7  C3  UNL     1      91.559  33.125  42.740  1.00  0.00     0.118 A
HETATM    8  C22 UNL     1      89.581  34.129  43.496  1.00  0.00     0.077 A
HETATM    9  N1  UNL     1      91.033  31.856  42.945  1.00  0.00    -0.362 N
HETATM   10  C2  UNL     1      89.685  31.682  43.473  1.00  0.00     0.161 A
ATOM     11  H1  UNL     1      91.598  31.035  42.724  1.00  0.00     0.162 HD
HETATM   12  C1  UNL     1      88.940  30.970  42.345  1.00  0.00     0.077 C
HETATM   13  C23 UNL     1      88.959  32.927  43.744  1.00  0.00     0.061 A
HETATM   14  N8  UNL     1      89.181  35.398  43.650  1.00  0.00    -0.319 N
ATOM     15  H8  UNL     1      88.272  35.702  44.002  1.00  0.00     0.169 HD
BRANCH  10  16
HETATM   16  O1  UNL     1      89.866  30.875  44.586  1.00  0.00    -0.367 OA
ATOM     17  H1  UNL     1      89.393  30.053  44.523  1.00  0.00     0.213 HD
ENDBRANCH  10  16
BRANCH  13  18
HETATM   18  C24 UNL     1      87.591  32.988  44.220  1.00  0.00     0.105 C
BRANCH  18  19
HETATM   19  O3  UNL     1      87.416  32.597  45.466  1.00  0.00    -0.358 OA
ATOM     20  H3  UNL     1      86.584  32.842  45.852  1.00  0.00     0.217 HD
ENDBRANCH  18  19
BRANCH  18  21
HETATM   21  C25 UNL     1      86.369  33.403  43.567  1.00  0.00     0.066 A
HETATM   22  C26 UNL     1      85.093  33.643  43.975  1.00  0.00     0.034 A
HETATM   23  C27 UNL     1      84.307  34.080  42.891  1.00  0.00     0.019 A
HETATM   24  C28 UNL     1      85.161  34.087  41.837  1.00  0.00     0.088 A
HETATM   25  N9  UNL     1      86.377  33.692  42.217  1.00  0.00    -0.364 N
ATOM     26  H9  UNL     1      87.188  33.615  41.603  1.00  0.00     0.165 HD
ENDBRANCH  18  21
ENDBRANCH  13  18
ENDBRANCH   2   3
ENDBRANCH   1   2
BRANCH   1  27
HETATM   27  C7  UNL     1      90.386  38.427  45.490  1.00  0.00     0.027 C
BRANCH  27  28
HETATM   28  C8  UNL     1      90.113  37.403  46.494  1.00  0.00     0.004 C
BRANCH  28  29
HETATM   29  C9  UNL     1      91.119  36.394  46.833  1.00  0.00     0.020 C
BRANCH  29  30
HETATM   30  C10 UNL     1      90.659  34.983  46.922  1.00  0.00     0.138 C
BRANCH  30  31
HETATM   31  N3  UNL     1      91.323  34.301  48.028  1.00  0.00    -0.226 N
HETATM   32  C11 UNL     1      90.771  33.865  49.092  1.00  0.00     0.681 A
HETATM   33  N4  UNL     1      91.598  33.258  50.009  1.00  0.00    -0.176 N
HETATM   34  N6  UNL     1      89.470  33.904  49.404  1.00  0.00    -0.176 N
HETATM   35  C12 UNL     1      91.131  32.734  51.153  1.00  0.00     0.127 A
ATOM     36  H4  UNL     1      92.597  33.204  49.813  1.00  0.00     0.186 HD
HETATM   37  C13 UNL     1      89.799  32.784  51.453  1.00  0.00     0.032 A
HETATM   38  N7  UNL     1      91.786  32.067  52.236  1.00  0.00    -0.375 N
HETATM   39  C14 UNL     1      88.937  33.399  50.528  1.00  0.00     0.127 A
HETATM   40  C20 UNL     1      89.549  32.147  52.758  1.00  0.00     0.066 C
HETATM   41  C21 UNL     1      90.803  31.374  53.037  1.00  0.00     0.126 C
ATOM     42  H7  UNL     1      92.790  32.078  52.415  1.00  0.00     0.161 HD
ATOM     43  H6  UNL     1      88.838  34.350  48.740  1.00  0.00     0.186 HD
ATOM     44  H3  UNL     1      92.330  34.159  47.941  1.00  0.00     0.177 HD
BRANCH  39  45
HETATM   45  N5  UNL     1      87.708  33.425  50.813  1.00  0.00    -0.371 N
ATOM     46  H5  UNL     1      87.425  34.011  51.598  1.00  0.00     0.161 HD
BRANCH  45  47
HETATM   47  C15 UNL     1      86.692  32.716  50.143  1.00  0.00     0.083 C
HETATM   48  C16 UNL     1      85.393  33.446  49.946  1.00  0.00     0.025 C
HETATM   49  C17 UNL     1      84.455  32.272  49.639  1.00  0.00     0.002 C
HETATM   50  C18 UNL     1      84.962  31.143  50.502  1.00  0.00     0.002 C
HETATM   51  C19 UNL     1      86.263  31.577  51.097  1.00  0.00     0.025 C
ENDBRANCH  45  47
ENDBRANCH  39  45
ENDBRANCH  30  31
ENDBRANCH  29  30
ENDBRANCH  28  29
ENDBRANCH  27  28
ENDBRANCH   1  27
TORSDOF 13
ENDMDL