MODEL 4
REMARK VINA RESULT: -9.384111962      4.798     11.607
REMARK  13 active torsions:
REMARK  status: ('A' for Active; 'I' for Inactive)
REMARK       I    between atoms: N1_2  and  C2_4
REMARK    1  A    between atoms: C2_4  and  C3_6
REMARK    2  A    between atoms: C5_8  and  N2_9
REMARK       I    between atoms: N2_9  and  C6_11
REMARK    3  A    between atoms: C8_14  and  O3_15
REMARK    4  A    between atoms: C9_17  and  N3_18
REMARK    5  A    between atoms: N3_18  and  C10_20
REMARK    6  A    between atoms: C12_22  and  N4_23
REMARK    7  A    between atoms: N4_23  and  C13_24
REMARK    8  A    between atoms: C13_24  and  C14_25
REMARK    9  A    between atoms: C14_25  and  N5_26
REMARK   10  A    between atoms: N7_35  and  C21_37
REMARK   11  A    between atoms: C21_37  and  C22_38
REMARK   12  A    between atoms: C22_38  and  C23_39
REMARK   13  A    between atoms: C23_39  and  N8_40
ROOT
HETATM    1  C10 UNL     1      82.277  29.608  39.954  1.00  0.00     0.126 A
HETATM    2  C11 UNL     1      81.454  29.135  38.952  1.00  0.00     0.113 A
HETATM    3  C12 UNL     1      81.630  27.886  38.341  1.00  0.00     0.190 A
HETATM    4  N6  UNL     1      82.690  27.159  38.813  1.00  0.00    -0.165 N
ATOM      5  H6  UNL     1      82.860  26.242  38.400  1.00  0.00     0.187 HD
HETATM    6  C20 UNL     1      83.510  27.567  39.772  1.00  0.00     0.682 A
HETATM    7  N7  UNL     1      84.514  26.900  40.215  1.00  0.00    -0.226 N
ATOM      8  H7  UNL     1      85.078  27.315  40.958  1.00  0.00     0.177 HD
HETATM    9  N11 UNL     1      83.275  28.810  40.328  1.00  0.00    -0.177 N
ATOM     10  H11 UNL     1      83.900  29.134  41.066  1.00  0.00     0.186 HD
ENDROOT
BRANCH   1  11
HETATM   11  N3  UNL     1      82.033  30.893  40.437  1.00  0.00    -0.340 N
ATOM     12  H3  UNL     1      81.121  31.001  40.880  1.00  0.00     0.167 HD
BRANCH  11  13
HETATM   13  C9  UNL     1      82.808  32.069  40.426  1.00  0.00     0.070 A
HETATM   14  C8  UNL     1      82.254  33.298  40.105  1.00  0.00     0.119 A
HETATM   15  C5  UNL     1      82.919  34.511  40.190  1.00  0.00     0.071 A
HETATM   16  C4  UNL     1      84.218  34.508  40.621  1.00  0.00     0.049 A
HETATM   17  C3  UNL     1      84.828  33.311  40.956  1.00  0.00     0.036 A
HETATM   18  C25 UNL     1      84.114  32.108  40.855  1.00  0.00     0.049 A
BRANCH  14  19
HETATM   19  O3  UNL     1      80.949  33.352  39.663  1.00  0.00    -0.356 OA
ATOM     20  H3  UNL     1      80.756  32.866  38.871  1.00  0.00     0.218 HD
ENDBRANCH  14  19
BRANCH  15  21
HETATM   21  N2  UNL     1      82.279  35.723  39.845  1.00  0.00    -0.325 N
HETATM   22  C6  UNL     1      82.339  36.482  38.694  1.00  0.00     0.218 C
HETATM   23  C7  UNL     1      81.515  37.765  38.643  1.00  0.00     0.117 C
HETATM   24  O2  UNL     1      83.026  36.188  37.689  1.00  0.00    -0.274 OA
ATOM     25  H2  UNL     1      81.668  36.101  40.570  1.00  0.00     0.169 HD
ENDBRANCH  15  21
BRANCH  17  26
HETATM   26  C2  UNL     1      86.205  33.281  41.422  1.00  0.00     0.251 C
HETATM   27  N1  UNL     1      86.779  32.037  41.808  1.00  0.00    -0.361 N
HETATM   28  C1  UNL     1      88.167  31.966  42.281  1.00  0.00     0.149 C
ATOM     29  H1  UNL     1      86.221  31.185  41.755  1.00  0.00     0.162 HD
HETATM   30  O1  UNL     1      86.922  34.309  41.503  1.00  0.00    -0.268 OA
ENDBRANCH  17  26
ENDBRANCH  11  13
ENDBRANCH   1  11
BRANCH   3  31
HETATM   31  N4  UNL     1      80.879  27.528  37.483  1.00  0.00    -0.428 NA
BRANCH  31  32
HETATM   32  C13 UNL     1      80.076  27.089  36.523  1.00  0.00     0.250 C
BRANCH  32  33
HETATM   33  C14 UNL     1      80.315  25.577  36.306  1.00  0.00     0.305 C
BRANCH  33  34
HETATM   34  N5  UNL     1      80.496  25.371  34.871  1.00  0.00     0.091 N
HETATM   35  C15 UNL     1      80.595  23.977  34.639  1.00  0.00     0.272 C
HETATM   36  C16 UNL     1      80.057  23.421  33.382  1.00  0.00     0.030 C
HETATM   37  C17 UNL     1      79.097  24.280  32.619  1.00  0.00     0.003 C
HETATM   38  C18 UNL     1      79.537  25.738  32.689  1.00  0.00     0.030 C
HETATM   39  C19 UNL     1      79.526  26.113  34.131  1.00  0.00     0.272 C
ENDBRANCH  33  34
ENDBRANCH  32  33
ENDBRANCH  31  32
ENDBRANCH   3  31
BRANCH   7  40
HETATM   40  C21 UNL     1      84.886  25.616  39.729  1.00  0.00     0.139 C
BRANCH  40  41
HETATM   41  C22 UNL     1      85.874  25.742  38.562  1.00  0.00     0.040 C
BRANCH  41  42
HETATM   42  C23 UNL     1      85.312  24.863  37.468  1.00  0.00     0.123 C
BRANCH  42  43
HETATM   43  N8  UNL     1      86.432  24.369  36.682  1.00  0.00    -0.367 N
HETATM   44  C24 UNL     1      86.364  24.411  35.406  1.00  0.00     0.196 C
HETATM   45  N9  UNL     1      87.434  23.940  34.611  1.00  0.00    -0.067 NA
HETATM   46  N10 UNL     1      85.220  24.930  34.777  1.00  0.00    -0.067 NA
ATOM     47  H8  UNL     1      87.261  23.994  37.144  1.00  0.00     0.161 HD
ENDBRANCH  42  43
ENDBRANCH  41  42
ENDBRANCH  40  41
ENDBRANCH   7  40
TORSDOF 13
ENDMDL