MODEL 1
REMARK VINA RESULT: -8.251321184      0.000      0.000
REMARK  13 active torsions:
REMARK  status: ('A' for Active; 'I' for Inactive)
REMARK    1  A    between atoms: N1_1  and  C1_5
REMARK    2  A    between atoms: C1_5  and  C2_6
REMARK    3  A    between atoms: C2_6  and  C3_7
REMARK    4  A    between atoms: C19_30  and  C20_31
REMARK    5  A    between atoms: C20_31  and  N5_32
REMARK    6  A    between atoms: N5_32  and  C21_35
REMARK    7  A    between atoms: C21_35  and  C22_36
REMARK    8  A    between atoms: C22_36  and  C23_37
REMARK    9  A    between atoms: C23_37  and  C24_38
REMARK   10  A    between atoms: C24_38  and  N6_39
REMARK   11  A    between atoms: N6_39  and  C25_42
REMARK   12  A    between atoms: C25_42  and  C26_43
REMARK   13  A    between atoms: C26_43  and  O1_44
ROOT
HETATM    1  C3  UNL     1      87.975  32.458  47.951  1.00  0.00     0.013 C
HETATM    2  C4  UNL     1      88.264  33.811  47.366  1.00  0.00     0.026 C
HETATM    3  C5  UNL     1      89.562  34.362  47.961  1.00  0.00     0.114 C
HETATM    4  N2  UNL     1      90.664  34.301  47.052  1.00  0.00    -0.421 N
ATOM      5  H2  UNL     1      91.440  33.651  47.185  1.00  0.00     0.153 HD
HETATM    6  C6  UNL     1      90.611  35.203  45.949  1.00  0.00     0.115 C
HETATM    7  C7  UNL     1      91.843  36.113  46.031  1.00  0.00     0.046 C
HETATM    8  C8  UNL     1      91.971  36.772  44.678  1.00  0.00     0.234 C
HETATM    9  N3  UNL     1      90.951  36.363  43.758  1.00  0.00    -0.075 N
ATOM     10  H31 UNL     1      90.392  37.162  43.456  1.00  0.00     0.277 HD
ATOM     11  H32 UNL     1      90.227  35.824  44.234  1.00  0.00     0.277 HD
HETATM   12  C9  UNL     1      91.466  35.641  42.627  1.00  0.00     0.237 C
HETATM   13  C10 UNL     1      90.336  35.058  41.776  1.00  0.00     0.071 C
HETATM   14  C11 UNL     1      90.412  33.552  41.969  1.00  0.00     0.057 C
HETATM   15  N4  UNL     1      89.564  32.787  41.158  1.00  0.00    -0.398 N
ATOM     16  H4  UNL     1      89.526  32.942  40.151  1.00  0.00     0.158 HD
HETATM   17  C12 UNL     1      88.749  31.782  41.777  1.00  0.00     0.158 C
HETATM   18  C13 UNL     1      87.580  32.493  42.407  1.00  0.00    -0.031 A
HETATM   19  C14 UNL     1      86.997  33.465  41.574  1.00  0.00     0.009 A
HETATM   20  C15 UNL     1      85.926  34.214  41.966  1.00  0.00     0.002 A
HETATM   21  C16 UNL     1      85.424  33.991  43.217  1.00  0.00     0.017 A
HETATM   22  C17 UNL     1      85.985  33.038  44.047  1.00  0.00     0.041 A
HETATM   23  C18 UNL     1      87.087  32.253  43.669  1.00  0.00    -0.011 A
HETATM   24  C19 UNL     1      87.698  31.174  44.561  1.00  0.00     0.137 C
HETATM   25  N7  UNL     1      87.928  31.684  45.777  1.00  0.00    -0.405 N
ATOM     26  H7  UNL     1      88.703  32.346  45.808  1.00  0.00     0.154 HD
HETATM   27  C27 UNL     1      87.307  31.482  47.009  1.00  0.00     0.099 C
HETATM   28  C28 UNL     1      85.844  31.446  47.072  1.00  0.00     0.148 C
HETATM   29  N8  UNL     1      85.194  32.615  46.520  1.00  0.00    -0.355 N
ATOM     30  H8  UNL     1      84.681  33.146  47.223  1.00  0.00     0.162 HD
HETATM   31  C29 UNL     1      85.103  33.197  45.224  1.00  0.00     0.252 C
HETATM   32  O2  UNL     1      84.123  33.961  45.054  1.00  0.00    -0.268 OA
ENDROOT
BRANCH  24  33
HETATM   33  C20 UNL     1      86.858  29.980  44.256  1.00  0.00     0.261 C
BRANCH  33  34
HETATM   34  N5  UNL     1      87.214  29.194  43.127  1.00  0.00    -0.073 N
ATOM     35  H52 UNL     1      87.722  29.740  42.430  1.00  0.00     0.277 HD
ATOM     36  H51 UNL     1      87.943  28.517  43.350  1.00  0.00     0.277 HD
BRANCH  34  37
HETATM   37  C21 UNL     1      86.042  28.560  42.564  1.00  0.00     0.232 C
BRANCH  37  38
HETATM   38  C22 UNL     1      85.031  29.510  41.995  1.00  0.00     0.029 C
BRANCH  38  39
HETATM   39  C23 UNL     1      83.722  28.789  41.689  1.00  0.00     0.029 C
BRANCH  39  40
HETATM   40  C24 UNL     1      83.119  29.428  40.466  1.00  0.00     0.232 C
BRANCH  40  41
HETATM   41  N6  UNL     1      82.415  30.633  40.825  1.00  0.00    -0.073 N
ATOM     42  H62 UNL     1      81.485  30.438  41.196  1.00  0.00     0.277 HD
ATOM     43  H61 UNL     1      82.814  31.077  41.653  1.00  0.00     0.277 HD
BRANCH  41  44
HETATM   44  C25 UNL     1      82.372  31.523  39.703  1.00  0.00     0.258 C
BRANCH  44  45
HETATM   45  C26 UNL     1      81.985  32.908  40.206  1.00  0.00     0.191 C
BRANCH  45  46
HETATM   46  O1  UNL     1      80.861  32.838  41.014  1.00  0.00    -0.399 OA
ATOM     47  H1  UNL     1      81.012  33.287  41.837  1.00  0.00     0.209 HD
ENDBRANCH  45  46
ENDBRANCH  44  45
ENDBRANCH  41  44
ENDBRANCH  40  41
ENDBRANCH  39  40
ENDBRANCH  38  39
ENDBRANCH  37  38
ENDBRANCH  34  37
ENDBRANCH  33  34
ENDBRANCH  24  33
BRANCH   1  48
HETATM   48  C2  UNL     1      87.670  32.385  49.376  1.00  0.00     0.034 C
BRANCH  48  49
HETATM   49  C1  UNL     1      87.065  33.527  50.086  1.00  0.00     0.230 C
BRANCH  49  50
HETATM   50  N1  UNL     1      85.625  33.636  49.881  1.00  0.00    -0.079 N
ATOM     51  H13 UNL     1      85.351  33.210  48.996  1.00  0.00     0.274 HD
ATOM     52  H12 UNL     1      85.120  33.026  50.525  1.00  0.00     0.274 HD
ATOM     53  H11 UNL     1      85.280  34.593  49.944  1.00  0.00     0.274 HD
ENDBRANCH  49  50
ENDBRANCH  48  49
ENDBRANCH   1  48
TORSDOF 13
ENDMDL