MODEL 4
REMARK VINA RESULT: -8.681900036      2.869      4.304
REMARK  13 active torsions:
REMARK  status: ('A' for Active; 'I' for Inactive)
REMARK    1  A    between atoms: C2_2  and  C3_3
REMARK    2  A    between atoms: C4_4  and  C5_5
REMARK    3  A    between atoms: C5_5  and  N1_6
REMARK    4  A    between atoms: N1_6  and  C6_7
REMARK    5  A    between atoms: N1_6  and  C8_10
REMARK    6  A    between atoms: C6_7  and  C7_8
REMARK    7  A    between atoms: C8_10  and  C9_11
REMARK    8  A    between atoms: C9_11  and  C10_12
REMARK    9  A    between atoms: C10_12  and  C11_13
REMARK   10  A    between atoms: C13_21  and  N4_22
REMARK   11  A    between atoms: C16_30  and  C17_31
REMARK   12  A    between atoms: C17_31  and  C18_32
REMARK   13  A    between atoms: C23_40  and  N7_41
ROOT
HETATM    1  C3  UNL     1      87.852  32.787  46.144  1.00  0.00    -0.023 A
HETATM    2  C4  UNL     1      88.334  33.121  47.418  1.00  0.00     0.056 A
HETATM    3  N2  UNL     1      89.161  34.160  47.522  1.00  0.00    -0.340 N
ATOM      4  H2  UNL     1      89.513  34.409  48.447  1.00  0.00     0.167 HD
HETATM    5  C12 UNL     1      89.551  34.888  46.485  1.00  0.00     0.138 A
HETATM    6  N3  UNL     1      90.394  35.925  46.678  1.00  0.00    -0.176 N
ATOM      7  H3  UNL     1      90.721  36.138  47.620  1.00  0.00     0.186 HD
HETATM    8  C13 UNL     1      90.806  36.676  45.655  1.00  0.00     0.680 A
HETATM    9  N5  UNL     1      90.358  36.369  44.431  1.00  0.00    -0.155 N
ATOM     10  H5  UNL     1      90.666  36.934  43.640  1.00  0.00     0.187 HD
HETATM   11  C14 UNL     1      89.502  35.324  44.199  1.00  0.00     0.274 A
HETATM   12  O3  UNL     1      89.189  35.178  43.032  1.00  0.00    -0.267 OA
HETATM   13  C15 UNL     1      89.080  34.562  45.225  1.00  0.00     0.084 A
HETATM   14  C16 UNL     1      88.205  33.489  44.995  1.00  0.00    -0.026 A
ENDROOT
BRANCH  14  15
HETATM   15  C17 UNL     1      87.721  33.124  43.679  1.00  0.00     0.078 C
BRANCH  15  16
HETATM   16  C18 UNL     1      86.370  33.535  43.268  1.00  0.00    -0.052 A
HETATM   17  C19 UNL     1      85.375  33.616  44.214  1.00  0.00     0.008 A
HETATM   18  C20 UNL     1      84.092  34.009  43.912  1.00  0.00     0.020 A
HETATM   19  C21 UNL     1      83.766  34.338  42.621  1.00  0.00     0.060 A
HETATM   20  C22 UNL     1      82.470  34.741  42.279  1.00  0.00     0.272 A
HETATM   21  C24 UNL     1      84.753  34.258  41.673  1.00  0.00     0.065 A
HETATM   22  O4  UNL     1      81.631  34.785  43.208  1.00  0.00    -0.267 OA
HETATM   23  N6  UNL     1      82.172  35.059  41.009  1.00  0.00    -0.156 N
HETATM   24  C23 UNL     1      83.150  34.976  40.093  1.00  0.00     0.679 A
ATOM     25  H6  UNL     1      81.231  35.355  40.748  1.00  0.00     0.187 HD
HETATM   26  N8  UNL     1      84.401  34.593  40.391  1.00  0.00    -0.191 N
ATOM     27  H8  UNL     1      85.102  34.550  39.652  1.00  0.00     0.184 HD
HETATM   28  C25 UNL     1      86.028  33.867  41.978  1.00  0.00     0.038 A
BRANCH  24  29
HETATM   29  N7  UNL     1      82.828  35.291  38.874  1.00  0.00    -0.234 N
ATOM     30  H72 UNL     1      82.079  35.960  38.692  1.00  0.00     0.174 HD
ATOM     31  H71 UNL     1      83.360  34.836  38.133  1.00  0.00     0.174 HD
ENDBRANCH  24  29
ENDBRANCH  15  16
ENDBRANCH  14  15
BRANCH   1  32
HETATM   32  C2  UNL     1      86.928  31.661  46.099  1.00  0.00     0.037 C
HETATM   33  C1  UNL     1      87.661  30.445  45.560  1.00  0.00     0.010 C
ENDBRANCH   1  32
BRANCH   2  34
HETATM   34  C5  UNL     1      88.000  32.338  48.632  1.00  0.00     0.120 C
BRANCH  34  35
HETATM   35  N1  UNL     1      87.259  33.039  49.591  1.00  0.00    -0.367 N
BRANCH  35  36
HETATM   36  C6  UNL     1      85.939  33.422  49.390  1.00  0.00     0.074 C
BRANCH  36  37
HETATM   37  C7  UNL     1      84.915  32.630  50.191  1.00  0.00     0.130 C
HETATM   38  S1  UNL     1      84.271  31.358  49.034  1.00  0.00    -0.092 SA
ENDBRANCH  36  37
ENDBRANCH  35  36
BRANCH  35  39
HETATM   39  C8  UNL     1      87.889  33.407  50.812  1.00  0.00     0.128 C
BRANCH  39  40
HETATM   40  C9  UNL     1      88.943  32.461  51.270  1.00  0.00     0.031 C
BRANCH  40  41
HETATM   41  C10 UNL     1      90.259  33.126  51.478  1.00  0.00     0.114 C
BRANCH  41  42
HETATM   42  C11 UNL     1      91.235  32.868  50.405  1.00  0.00     0.172 C
HETATM   43  O1  UNL     1      91.329  33.540  49.363  1.00  0.00    -0.648 OA
HETATM   44  O2  UNL     1      92.119  31.774  50.590  1.00  0.00    -0.648 OA
ENDBRANCH  41  42
ENDBRANCH  40  41
ENDBRANCH  39  40
ENDBRANCH  35  39
ENDBRANCH  34  35
ENDBRANCH   2  34
BRANCH   8  45
HETATM   45  N4  UNL     1      91.619  37.683  45.817  1.00  0.00    -0.234 N
ATOM     46  H42 UNL     1      92.137  38.051  45.020  1.00  0.00     0.174 HD
ATOM     47  H41 UNL     1      91.761  38.126  46.725  1.00  0.00     0.174 HD
ENDBRANCH   8  45
TORSDOF 13
ENDMDL