MODEL 4
REMARK VINA RESULT: -9.249998844      1.433      1.973
REMARK  15 active torsions:
REMARK  status: ('A' for Active; 'I' for Inactive)
REMARK    1  A    between atoms: C2_2  and  N1_3
REMARK       I    between atoms: N1_3  and  C3_5
REMARK    2  A    between atoms: C3_5  and  C4_7
REMARK    3  A    between atoms: C4_7  and  N2_8
REMARK    4  A    between atoms: N2_8  and  C5_10
REMARK    5  A    between atoms: C6_13  and  N4_14
REMARK    6  A    between atoms: N4_14  and  C7_16
REMARK    7  A    between atoms: C7_16  and  C8_17
REMARK    8  A    between atoms: C8_17  and  C9_18
REMARK    9  A    between atoms: C9_18  and  C10_19
REMARK   10  A    between atoms: C12_23  and  N6_24
REMARK   11  A    between atoms: C14_34  and  N10_35
REMARK   12  A    between atoms: N10_35  and  C15_37
REMARK   13  A    between atoms: N11_44  and  C22_45
REMARK   14  A    between atoms: C22_45  and  C23_46
REMARK   15  A    between atoms: C23_46  and  O2_47
ROOT
HETATM    1  C5  UNL     1      81.972  32.437  40.075  1.00  0.00     0.148 A
HETATM    2  N3  UNL     1      81.452  31.272  39.600  1.00  0.00    -0.175 N
ATOM      3  H3  UNL     1      80.614  31.302  39.019  1.00  0.00     0.186 HD
HETATM    4  C6  UNL     1      82.010  30.091  39.876  1.00  0.00     0.681 A
HETATM    5  N8  UNL     1      83.129  30.080  40.653  1.00  0.00    -0.174 N
ATOM      6  H8  UNL     1      83.567  29.185  40.872  1.00  0.00     0.186 HD
HETATM    7  C13 UNL     1      83.672  31.197  41.140  1.00  0.00     0.167 A
HETATM    8  N9  UNL     1      84.759  31.457  41.923  1.00  0.00    -0.174 N
ATOM      9  H9  UNL     1      85.389  30.746  42.294  1.00  0.00     0.186 HD
HETATM   10  C14 UNL     1      84.884  32.766  42.137  1.00  0.00     0.680 A
HETATM   11  N12 UNL     1      83.851  33.334  41.473  1.00  0.00    -0.184 N
ATOM     12  H12 UNL     1      83.672  34.338  41.445  1.00  0.00     0.184 HD
HETATM   13  C25 UNL     1      83.103  32.430  40.862  1.00  0.00     0.138 A
ENDROOT
BRANCH   4  14
HETATM   14  N4  UNL     1      81.577  28.956  39.464  1.00  0.00    -0.226 N
ATOM     15  H4  UNL     1      81.758  28.126  40.029  1.00  0.00     0.177 HD
BRANCH  14  16
HETATM   16  C7  UNL     1      80.849  28.811  38.241  1.00  0.00     0.138 C
BRANCH  16  17
HETATM   17  C8  UNL     1      81.307  27.525  37.596  1.00  0.00     0.026 C
BRANCH  17  18
HETATM   18  C9  UNL     1      80.256  26.753  36.895  1.00  0.00     0.060 C
BRANCH  18  19
HETATM   19  C10 UNL     1      80.501  26.446  35.472  1.00  0.00     0.042 A
HETATM   20  C11 UNL     1      81.695  26.193  34.834  1.00  0.00     0.131 A
HETATM   21  N5  UNL     1      81.402  25.950  33.552  1.00  0.00    -0.200 N
HETATM   22  C12 UNL     1      80.078  26.039  33.359  1.00  0.00     0.675 A
ATOM     23  H5  UNL     1      82.086  25.728  32.827  1.00  0.00     0.183 HD
HETATM   24  N7  UNL     1      79.520  26.343  34.526  1.00  0.00    -0.195 N
ATOM     25  H7  UNL     1      78.521  26.477  34.689  1.00  0.00     0.184 HD
BRANCH  22  26
HETATM   26  N6  UNL     1      79.422  25.868  32.248  1.00  0.00    -0.234 N
ATOM     27  H62 UNL     1      79.686  25.209  31.515  1.00  0.00     0.174 HD
ATOM     28  H61 UNL     1      78.574  26.346  31.945  1.00  0.00     0.174 HD
ENDBRANCH  22  26
ENDBRANCH  18  19
ENDBRANCH  17  18
ENDBRANCH  16  17
ENDBRANCH  14  16
ENDBRANCH   4  14
BRANCH   1  29
HETATM   29  N2  UNL     1      81.377  33.510  39.768  1.00  0.00    -0.365 N
ATOM     30  H2  UNL     1      80.673  33.405  39.038  1.00  0.00     0.161 HD
BRANCH  29  31
HETATM   31  C4  UNL     1      81.515  34.829  40.257  1.00  0.00     0.224 C
BRANCH  31  32
HETATM   32  C3  UNL     1      82.009  35.787  39.238  1.00  0.00     0.235 C
HETATM   33  N1  UNL     1      81.231  36.918  38.909  1.00  0.00    -0.360 N
ATOM     34  H1  UNL     1      80.333  37.077  39.368  1.00  0.00     0.162 HD
HETATM   35  O1  UNL     1      83.117  35.535  38.710  1.00  0.00    -0.272 OA
BRANCH  33  36
HETATM   36  C2  UNL     1      81.722  37.853  37.909  1.00  0.00     0.118 C
HETATM   37  C1  UNL     1      81.845  39.255  38.464  1.00  0.00     0.026 C
ENDBRANCH  33  36
ENDBRANCH  31  32
ENDBRANCH  29  31
ENDBRANCH   1  29
BRANCH  10  38
HETATM   38  N10 UNL     1      85.850  33.482  42.896  1.00  0.00    -0.221 N
ATOM     39  H10 UNL     1      85.530  34.305  43.406  1.00  0.00     0.178 HD
BRANCH  38  40
HETATM   40  C15 UNL     1      87.231  33.140  43.000  1.00  0.00     0.103 C
HETATM   41  C16 UNL     1      88.032  33.336  41.739  1.00  0.00     0.061 C
HETATM   42  C17 UNL     1      89.481  32.996  41.993  1.00  0.00     0.225 C
HETATM   43  C18 UNL     1      89.580  31.650  42.686  1.00  0.00     0.038 C
HETATM   44  N11 UNL     1      90.105  33.859  42.972  1.00  0.00     0.100 N
HETATM   45  C19 UNL     1      89.474  32.008  44.155  1.00  0.00     0.038 C
HETATM   46  C20 UNL     1      89.371  33.540  44.156  1.00  0.00     0.225 C
HETATM   47  C21 UNL     1      87.930  33.943  44.095  1.00  0.00     0.061 C
BRANCH  44  48
HETATM   48  C22 UNL     1      90.129  35.229  42.613  1.00  0.00     0.299 C
BRANCH  48  49
HETATM   49  C23 UNL     1      91.489  35.798  42.993  1.00  0.00     0.197 C
BRANCH  49  50
HETATM   50  O2  UNL     1      91.394  37.152  43.312  1.00  0.00    -0.394 OA
HETATM   51  C24 UNL     1      90.667  37.262  44.496  1.00  0.00     0.201 C
ENDBRANCH  49  50
ENDBRANCH  48  49
ENDBRANCH  44  48
ENDBRANCH  38  40
ENDBRANCH  10  38
TORSDOF 15
ENDMDL