MODEL 1
REMARK VINA RESULT: -8.804858501      0.000      0.000
REMARK  15 active torsions:
REMARK  status: ('A' for Active; 'I' for Inactive)
REMARK    1  A    between atoms: C2_2  and  N1_3
REMARK    2  A    between atoms: N1_3  and  C3_6
REMARK    3  A    between atoms: C3_6  and  C4_7
REMARK    4  A    between atoms: C4_7  and  C5_8
REMARK    5  A    between atoms: C5_8  and  N2_9
REMARK    6  A    between atoms: N2_9  and  C6_10
REMARK       I    between atoms: N2_9  and  C13_17
REMARK    7  A    between atoms: C6_10  and  C7_11
REMARK       I    between atoms: C13_17  and  N3_19
REMARK    8  A    between atoms: N3_19  and  N4_21
REMARK       I    between atoms: N4_21  and  C14_23
REMARK    9  A    between atoms: C14_23  and  C15_25
REMARK   10  A    between atoms: C16_26  and  O3_27
REMARK   11  A    between atoms: C20_34  and  N6_35
REMARK   12  A    between atoms: N6_35  and  C21_37
REMARK   13  A    between atoms: C21_37  and  C22_38
REMARK   14  A    between atoms: C22_38  and  C23_39
REMARK   15  A    between atoms: C23_39  and  N7_40
ROOT
HETATM    1  C15 UNL     1      82.108  28.708  38.907  1.00  0.00     0.111 A
HETATM    2  C16 UNL     1      82.671  27.476  38.689  1.00  0.00     0.107 A
HETATM    3  C18 UNL     1      82.028  26.432  38.013  1.00  0.00     0.111 A
HETATM    4  C19 UNL     1      82.598  25.210  37.775  1.00  0.00     0.276 A
HETATM    5  O4  UNL     1      83.743  24.949  38.165  1.00  0.00    -0.267 OA
HETATM    6  N5  UNL     1      81.920  24.269  37.107  1.00  0.00    -0.155 N
ATOM      7  H5  UNL     1      82.347  23.358  36.933  1.00  0.00     0.187 HD
HETATM    8  C20 UNL     1      80.669  24.527  36.663  1.00  0.00     0.682 A
HETATM    9  N8  UNL     1      80.089  25.730  36.887  1.00  0.00    -0.175 N
ATOM     10  H8  UNL     1      79.143  25.900  36.543  1.00  0.00     0.186 HD
HETATM   11  C24 UNL     1      80.731  26.705  37.552  1.00  0.00     0.141 A
HETATM   12  N9  UNL     1      80.157  27.902  37.758  1.00  0.00    -0.327 N
ATOM     13  H9  UNL     1      79.212  28.067  37.413  1.00  0.00     0.169 HD
HETATM   14  C25 UNL     1      80.798  28.882  38.405  1.00  0.00     0.119 A
HETATM   15  N10 UNL     1      80.214  30.015  38.580  1.00  0.00    -0.385 N
ATOM     16 1H10 UNL     1      79.268  30.140  38.218  1.00  0.00     0.157 HD
ATOM     17 2H10 UNL     1      80.702  30.762  39.073  1.00  0.00     0.157 HD
ENDROOT
BRANCH   1  18
HETATM   18  C14 UNL     1      82.766  29.842  39.513  1.00  0.00     0.276 C
HETATM   19  N4  UNL     1      83.064  30.085  40.845  1.00  0.00    -0.262 N
ATOM     20  H4  UNL     1      82.808  29.398  41.554  1.00  0.00     0.190 HD
HETATM   21  O2  UNL     1      83.135  30.768  38.688  1.00  0.00    -0.266 OA
BRANCH  19  22
HETATM   22  N3  UNL     1      83.718  31.273  41.227  1.00  0.00    -0.249 N
HETATM   23  C13 UNL     1      84.904  31.254  41.996  1.00  0.00     0.337 C
HETATM   24  N2  UNL     1      85.525  32.474  42.357  1.00  0.00    -0.333 N
HETATM   25  O1  UNL     1      85.388  30.128  42.346  1.00  0.00    -0.245 OA
ATOM     26  H3  UNL     1      83.326  32.170  40.942  1.00  0.00     0.192 HD
BRANCH  24  27
HETATM   27  C5  UNL     1      84.907  33.723  41.997  1.00  0.00     0.129 C
BRANCH  27  28
HETATM   28  C4  UNL     1      83.832  34.204  42.909  1.00  0.00     0.047 C
BRANCH  28  29
HETATM   29  C3  UNL     1      82.664  34.810  42.154  1.00  0.00     0.234 C
BRANCH  29  30
HETATM   30  N1  UNL     1      81.599  33.875  41.939  1.00  0.00    -0.075 N
ATOM     31  H12 UNL     1      80.806  34.023  42.563  1.00  0.00     0.277 HD
ATOM     32  H11 UNL     1      81.831  32.929  42.243  1.00  0.00     0.277 HD
BRANCH  30  33
HETATM   33  C2  UNL     1      81.237  33.948  40.531  1.00  0.00     0.228 C
HETATM   34  C1  UNL     1      81.403  35.350  39.980  1.00  0.00     0.034 C
ENDBRANCH  30  33
ENDBRANCH  29  30
ENDBRANCH  28  29
ENDBRANCH  27  28
ENDBRANCH  24  27
BRANCH  24  35
HETATM   35  C6  UNL     1      86.749  32.445  43.099  1.00  0.00     0.132 C
BRANCH  35  36
HETATM   36  C7  UNL     1      87.378  33.777  43.342  1.00  0.00     0.004 C
HETATM   37  C8  UNL     1      88.451  34.163  42.356  1.00  0.00     0.006 C
HETATM   38  C9  UNL     1      89.099  35.490  42.786  1.00  0.00     0.000 C
HETATM   39  C10 UNL     1      89.920  35.181  44.004  1.00  0.00     0.000 C
HETATM   40  C11 UNL     1      89.363  34.097  44.845  1.00  0.00     0.000 C
HETATM   41  C12 UNL     1      87.884  33.882  44.768  1.00  0.00     0.006 C
ENDBRANCH  35  36
ENDBRANCH  24  35
ENDBRANCH  19  22
ENDBRANCH   1  18
BRANCH   2  42
HETATM   42  O3  UNL     1      83.952  27.229  39.171  1.00  0.00    -0.354 OA
HETATM   43  C17 UNL     1      84.005  26.885  40.574  1.00  0.00     0.210 C
ENDBRANCH   2  42
BRANCH   8  44
HETATM   44  N6  UNL     1      80.024  23.636  36.029  1.00  0.00    -0.226 N
ATOM     45  H6  UNL     1      79.295  23.107  36.508  1.00  0.00     0.177 HD
BRANCH  44  46
HETATM   46  C21 UNL     1      80.305  23.362  34.654  1.00  0.00     0.139 C
BRANCH  46  47
HETATM   47  C22 UNL     1      79.439  24.228  33.762  1.00  0.00     0.047 C
BRANCH  47  48
HETATM   48  C23 UNL     1      80.236  25.298  33.070  1.00  0.00     0.231 C
BRANCH  48  49
HETATM   49  N7  UNL     1      79.425  26.112  32.191  1.00  0.00    -0.079 N
ATOM     50  H73 UNL     1      79.973  26.870  31.783  1.00  0.00     0.274 HD
ATOM     51  H72 UNL     1      79.185  25.605  31.339  1.00  0.00     0.274 HD
ATOM     52  H71 UNL     1      78.589  26.471  32.653  1.00  0.00     0.274 HD
ENDBRANCH  48  49
ENDBRANCH  47  48
ENDBRANCH  46  47
ENDBRANCH  44  46
ENDBRANCH   8  44
TORSDOF 15
ENDMDL