MODEL 3
REMARK VINA RESULT: -9.483200295      2.501     13.229
REMARK  14 active torsions:
REMARK  status: ('A' for Active; 'I' for Inactive)
REMARK    1  A    between atoms: N1_1  and  C1_4
REMARK    2  A    between atoms: C2_11  and  N5_12
REMARK    3  A    between atoms: N5_12  and  S1_14
REMARK    4  A    between atoms: S1_14  and  C3_17
REMARK    5  A    between atoms: C6_20  and  N6_21
REMARK    6  A    between atoms: N6_21  and  C7_23
REMARK    7  A    between atoms: C7_23  and  C8_24
REMARK    8  A    between atoms: C8_24  and  N7_25
REMARK    9  A    between atoms: N7_25  and  C9_28
REMARK   10  A    between atoms: C9_28  and  C10_29
REMARK   11  A    between atoms: C10_29  and  C11_30
REMARK   12  A    between atoms: C14_33  and  N8_34
REMARK   13  A    between atoms: N8_34  and  S2_36
REMARK   14  A    between atoms: S2_36  and  C15_39
ROOT
HETATM    1  C7  UNL     1      82.301  34.760  41.506  1.00  0.00     0.147 C
ENDROOT
BRANCH   1   2
HETATM    2  N6  UNL     1      83.027  33.978  42.431  1.00  0.00    -0.388 N
ATOM      3  H6  UNL     1      82.477  33.358  43.025  1.00  0.00     0.159 HD
BRANCH   2   4
HETATM    4  C6  UNL     1      84.429  33.954  42.631  1.00  0.00     0.028 A
HETATM    5  C5  UNL     1      85.370  34.254  41.678  1.00  0.00     0.030 A
HETATM    6  C4  UNL     1      86.742  34.251  41.978  1.00  0.00     0.027 A
HETATM    7  C3  UNL     1      87.216  33.950  43.236  1.00  0.00     0.080 A
HETATM    8  C21 UNL     1      86.286  33.649  44.189  1.00  0.00     0.027 A
HETATM    9  C20 UNL     1      84.939  33.650  43.903  1.00  0.00     0.030 A
BRANCH   7  10
HETATM   10  S1  UNL     1      88.942  33.984  43.570  1.00  0.00     0.264 S
HETATM   11  O1  UNL     1      89.039  33.660  45.081  1.00  0.00    -0.200 OA
HETATM   12  O2  UNL     1      89.594  32.827  42.833  1.00  0.00    -0.200 OA
BRANCH  10  13
HETATM   13  N5  UNL     1      89.704  35.432  43.296  1.00  0.00    -0.262 N
ATOM     14  H5  UNL     1      89.089  36.229  43.463  1.00  0.00     0.180 HD
BRANCH  13  15
HETATM   15  C2  UNL     1      90.864  35.789  42.931  1.00  0.00     0.176 A
HETATM   16  C1  UNL     1      91.788  35.234  42.065  1.00  0.00     0.162 A
HETATM   17  N2  UNL     1      92.868  36.047  42.083  1.00  0.00    -0.268 N
HETATM   18  N3  UNL     1      92.637  37.048  42.905  1.00  0.00    -0.239 N
ATOM     19  H2  UNL     1      93.724  35.907  41.546  1.00  0.00     0.190 HD
HETATM   20  N4  UNL     1      91.450  36.925  43.429  1.00  0.00    -0.267 N
ATOM     21  H3  UNL     1      93.289  37.807  43.102  1.00  0.00     0.208 HD
ATOM     22  H4  UNL     1      91.027  37.567  44.099  1.00  0.00     0.190 HD
BRANCH  16  23
HETATM   23  N1  UNL     1      91.642  34.159  41.383  1.00  0.00    -0.381 N
ATOM     24  H12 UNL     1      92.385  33.531  41.075  1.00  0.00     0.157 HD
ATOM     25  H11 UNL     1      90.767  33.762  41.041  1.00  0.00     0.157 HD
ENDBRANCH  16  23
ENDBRANCH  13  15
ENDBRANCH  10  13
ENDBRANCH   7  10
ENDBRANCH   2   4
ENDBRANCH   1   2
BRANCH   1  26
HETATM   26  C8  UNL     1      81.120  34.136  40.825  1.00  0.00     0.251 C
BRANCH  26  27
HETATM   27  N7  UNL     1      81.258  32.681  40.868  1.00  0.00    -0.073 N
ATOM     28  H72 UNL     1      81.651  32.365  41.755  1.00  0.00     0.277 HD
ATOM     29  H71 UNL     1      80.352  32.217  40.929  1.00  0.00     0.277 HD
BRANCH  27  30
HETATM   30  C9  UNL     1      82.021  32.208  39.752  1.00  0.00     0.238 C
BRANCH  30  31
HETATM   31  C10 UNL     1      82.754  30.931  40.070  1.00  0.00     0.084 C
BRANCH  31  32
HETATM   32  C11 UNL     1      82.130  29.767  39.437  1.00  0.00     0.010 A
HETATM   33  C12 UNL     1      82.759  28.542  39.395  1.00  0.00     0.027 A
HETATM   34  C13 UNL     1      82.208  27.448  38.781  1.00  0.00     0.033 A
HETATM   35  C14 UNL     1      80.952  27.557  38.162  1.00  0.00     0.058 A
HETATM   36  C19 UNL     1      80.346  28.788  38.218  1.00  0.00     0.118 A
HETATM   37  N10 UNL     1      80.927  29.828  38.831  1.00  0.00    -0.367 N
ATOM     38  H10 UNL     1      80.430  30.718  38.841  1.00  0.00     0.165 HD
BRANCH  35  39
HETATM   39  N8  UNL     1      80.392  26.432  37.509  1.00  0.00    -0.279 N
ATOM     40  H8  UNL     1      79.937  25.702  38.058  1.00  0.00     0.179 HD
BRANCH  39  41
HETATM   41  S2  UNL     1      80.474  26.292  35.808  1.00  0.00     0.264 S
HETATM   42  O3  UNL     1      79.121  26.576  35.192  1.00  0.00    -0.200 OA
HETATM   43  O4  UNL     1      81.527  27.142  35.209  1.00  0.00    -0.200 OA
BRANCH  41  44
HETATM   44  C15 UNL     1      80.824  24.595  35.447  1.00  0.00     0.096 A
HETATM   45  C16 UNL     1      79.910  23.587  35.314  1.00  0.00     0.043 A
HETATM   46  C17 UNL     1      80.645  22.434  35.032  1.00  0.00     0.089 A
HETATM   47  N9  UNL     1      81.958  22.722  34.993  1.00  0.00    -0.374 N
HETATM   48  C18 UNL     1      82.067  24.038  35.246  1.00  0.00     0.112 A
ATOM     49  H9  UNL     1      82.722  22.071  34.809  1.00  0.00     0.164 HD
ENDBRANCH  41  44
ENDBRANCH  39  41
ENDBRANCH  35  39
ENDBRANCH  31  32
ENDBRANCH  30  31
ENDBRANCH  27  30
ENDBRANCH  26  27
ENDBRANCH   1  26
TORSDOF 14
ENDMDL