MODEL 4
REMARK VINA RESULT: -5.036925033      1.531      1.646
REMARK  1 active torsions:
REMARK  status: ('A' for Active; 'I' for Inactive)
REMARK    1  A    between atoms: C2_2  and  N1_3
ROOT
HETATM    1  C1  UNL     1      29.352  66.909  11.296  1.00  0.00     0.082 C
HETATM    2  C2  UNL     1      29.444  65.602  10.521  1.00  0.00     0.277 C
HETATM    3  N2  UNL     1      30.681  65.624   9.780  1.00  0.00    -0.301 N
ATOM      4  H2  UNL     1      31.467  65.030  10.042  1.00  0.00     0.167 HD
HETATM    5  C3  UNL     1      30.759  66.515   8.658  1.00  0.00     0.337 C
HETATM    6  O1  UNL     1      31.912  66.940   8.320  1.00  0.00    -0.246 OA
HETATM    7  N3  UNL     1      29.577  66.895   7.966  1.00  0.00    -0.249 N
ATOM      8  H3  UNL     1      29.609  67.528   7.166  1.00  0.00     0.192 HD
HETATM    9  N4  UNL     1      28.366  66.365   8.428  1.00  0.00    -0.262 N
ATOM     10  H4  UNL     1      27.496  66.614   7.958  1.00  0.00     0.190 HD
HETATM   11  C4  UNL     1      28.333  65.485   9.543  1.00  0.00     0.292 C
HETATM   12  O2  UNL     1      27.395  64.634   9.699  1.00  0.00    -0.267 OA
ENDROOT
BRANCH   2  13
HETATM   13  N1  UNL     1      29.360  64.496  11.436  1.00  0.00    -0.044 N
ATOM     14  H13 UNL     1      28.833  64.731  12.278  1.00  0.00     0.278 HD
ATOM     15  H12 UNL     1      28.754  63.754  11.088  1.00  0.00     0.278 HD
ATOM     16  H11 UNL     1      30.299  64.159  11.649  1.00  0.00     0.278 HD
ENDBRANCH   2  13
TORSDOF 1
ENDMDL