MODEL 4
REMARK VINA RESULT: -5.210115380      2.296      3.456
REMARK  0 active torsions:
REMARK  status: ('A' for Active; 'I' for Inactive)
ROOT
HETATM    1  N1  UNL     1      31.450  67.179   6.441  1.00  0.00    -0.113 NA
HETATM    2  C1  UNL     1      30.275  66.799   7.112  1.00  0.00     0.135 C
HETATM    3  C2  UNL     1      30.380  66.067   8.198  1.00  0.00     0.117 A
HETATM    4  N2  UNL     1      31.554  65.594   8.806  1.00  0.00    -0.293 N
ATOM      5  H2  UNL     1      32.497  65.770   8.462  1.00  0.00     0.187 HD
HETATM    6  N3  UNL     1      31.250  64.846   9.952  1.00  0.00    -0.263 N
ATOM      7  H3  UNL     1      31.938  64.401  10.560  1.00  0.00     0.190 HD
HETATM    8  C3  UNL     1      29.837  64.802  10.140  1.00  0.00     0.312 A
HETATM    9  O1  UNL     1      29.195  64.228  11.055  1.00  0.00    -0.262 OA
HETATM   10  C4  UNL     1      29.278  65.568   9.040  1.00  0.00     0.269 A
HETATM   11  O2  UNL     1      28.074  65.791   8.808  1.00  0.00    -0.280 OA
ENDROOT
TORSDOF 0
ENDMDL