MODEL 3
REMARK VINA RESULT: -5.886239504      1.350      2.944
REMARK  3 active torsions:
REMARK  status: ('A' for Active; 'I' for Inactive)
REMARK    1  A    between atoms: C2_8  and  N5_9
REMARK    2  A    between atoms: N5_9  and  N6_11
REMARK    3  A    between atoms: N6_11  and  N7_13
ROOT
HETATM    1  C1  UNL     1      29.756  67.039   7.649  1.00  0.00     0.195 C
HETATM    2  N1  UNL     1      30.185  66.058   8.659  1.00  0.00    -0.108 N
HETATM    3  N2  UNL     1      29.427  65.139   9.243  1.00  0.00     0.011 NA
HETATM    4  N3  UNL     1      30.186  64.460  10.086  1.00  0.00    -0.211 N
ATOM      5  H3  UNL     1      29.884  63.689  10.681  1.00  0.00     0.206 HD
HETATM    6  N4  UNL     1      31.398  64.956  10.020  1.00  0.00    -0.117 N
ATOM      7  H4  UNL     1      32.195  64.624  10.563  1.00  0.00     0.207 HD
HETATM    8  C2  UNL     1      31.440  65.965   9.132  1.00  0.00     0.728 A
ENDROOT
BRANCH   8   9
HETATM    9  N5  UNL     1      32.411  66.720   8.759  1.00  0.00    -0.115 N
ATOM     10  H5  UNL     1      32.534  67.612   9.239  1.00  0.00     0.207 HD
BRANCH   9  11
HETATM   11  N6  UNL     1      33.300  66.401   7.747  1.00  0.00    -0.235 N
ATOM     12  H6  UNL     1      34.305  66.494   7.888  1.00  0.00     0.208 HD
BRANCH  11  13
HETATM   13  N7  UNL     1      32.791  65.951   6.536  1.00  0.00    -0.330 N
ATOM     14  H72 UNL     1      31.781  65.924   6.388  1.00  0.00     0.178 HD
ATOM     15  H71 UNL     1      33.447  65.654   5.813  1.00  0.00     0.178 HD
ENDBRANCH  11  13
ENDBRANCH   9  11
ENDBRANCH   8   9
TORSDOF 3
ENDMDL