MODEL 5
REMARK VINA RESULT: -5.040422783      1.362      2.197
REMARK  2 active torsions:
REMARK  status: ('A' for Active; 'I' for Inactive)
REMARK    1  A    between atoms: N1_1  and  C1_4
REMARK    2  A    between atoms: N4_10  and  O1_11
ROOT
HETATM    1  C1  UNL     1      32.321  66.388   8.743  1.00  0.00     0.717 A
HETATM    2  N2  UNL     1      33.238  66.245   7.741  1.00  0.00    -0.129 N
ATOM      3  H2  UNL     1      34.243  66.111   7.852  1.00  0.00     0.205 HD
HETATM    4  N3  UNL     1      32.575  66.312   6.602  1.00  0.00    -0.279 N
ATOM      5  H3  UNL     1      32.982  66.238   5.670  1.00  0.00     0.188 HD
HETATM    6  C2  UNL     1      31.273  66.495   6.878  1.00  0.00     0.249 A
HETATM    7  N4  UNL     1      31.095  66.544   8.208  1.00  0.00    -0.046 N
ENDROOT
BRANCH   1   8
HETATM    8  N1  UNL     1      32.613  66.373  10.012  1.00  0.00    -0.231 N
ATOM      9  H12 UNL     1      33.322  66.940  10.476  1.00  0.00     0.174 HD
ATOM     10  H11 UNL     1      32.153  65.777  10.700  1.00  0.00     0.174 HD
ENDBRANCH   1   8
BRANCH   7  11
HETATM   11  O1  UNL     1      29.927  66.717   8.919  1.00  0.00    -0.269 OA
ATOM     12  H1  UNL     1      29.117  66.244   8.772  1.00  0.00     0.246 HD
ENDBRANCH   7  11
TORSDOF 2
ENDMDL