MODEL 2
REMARK VINA RESULT: -5.769045839      1.532      1.612
REMARK  1 active torsions:
REMARK  status: ('A' for Active; 'I' for Inactive)
REMARK    1  A    between atoms: O1_1  and  N1_3
ROOT
HETATM    1  N1  UNL     1      32.324  66.351   9.451  1.00  0.00     0.004 NA
HETATM    2  N2  UNL     1      32.328  66.750   8.119  1.00  0.00    -0.228 N
ATOM      3  H2  UNL     1      33.221  67.022   7.708  1.00  0.00     0.190 HD
HETATM    4  C1  UNL     1      31.185  66.805   7.295  1.00  0.00     0.341 C
HETATM    5  O2  UNL     1      31.320  67.031   6.051  1.00  0.00    -0.245 OA
HETATM    6  N3  UNL     1      29.904  66.603   7.880  1.00  0.00    -0.259 N
ATOM      7  H3  UNL     1      29.053  66.635   7.319  1.00  0.00     0.175 HD
HETATM    8  C2  UNL     1      29.861  66.355   9.287  1.00  0.00     0.341 C
HETATM    9  O3  UNL     1      28.748  66.175   9.825  1.00  0.00    -0.245 OA
HETATM   10  N4  UNL     1      31.078  66.321  10.021  1.00  0.00    -0.228 N
ATOM     11  H4  UNL     1      31.020  66.272  11.038  1.00  0.00     0.190 HD
ENDROOT
BRANCH   1  12
HETATM   12  O1  UNL     1      33.034  65.217   9.618  1.00  0.00    -0.276 OA
ATOM     13  H1  UNL     1      32.923  64.872  10.496  1.00  0.00     0.241 HD
ENDBRANCH   1  12
TORSDOF 1
ENDMDL