MODEL 2
REMARK VINA RESULT: -5.734995566      1.965      2.675
REMARK  1 active torsions:
REMARK  status: ('A' for Active; 'I' for Inactive)
REMARK    1  A    between atoms: N1_1  and  C1_4
ROOT
HETATM    1  C1  UNL     1      32.156  66.729   7.664  1.00  0.00     0.183 A
HETATM    2  N2  UNL     1      31.612  66.853   6.441  1.00  0.00    -0.279 N
ATOM      3  H2  UNL     1      32.213  67.080   5.648  1.00  0.00     0.189 HD
HETATM    4  N3  UNL     1      30.301  66.684   6.238  1.00  0.00    -0.272 N
ATOM      5  H3  UNL     1      29.923  66.784   5.296  1.00  0.00     0.189 HD
HETATM    6  C2  UNL     1      29.462  66.382   7.262  1.00  0.00     0.210 A
HETATM    7  N4  UNL     1      28.073  66.206   7.030  1.00  0.00    -0.062 NA
HETATM    8  N5  UNL     1      30.021  66.262   8.480  1.00  0.00    -0.293 N
ATOM      9  H5  UNL     1      29.415  66.035   9.268  1.00  0.00     0.172 HD
HETATM   10  C3  UNL     1      31.328  66.423   8.713  1.00  0.00     0.292 A
HETATM   11  O1  UNL     1      31.808  66.305   9.854  1.00  0.00    -0.264 OA
ENDROOT
BRANCH   1  12
HETATM   12  N1  UNL     1      33.426  66.902   7.802  1.00  0.00    -0.380 N
ATOM     13  H12 UNL     1      34.046  67.109   7.018  1.00  0.00     0.158 HD
ATOM     14  H11 UNL     1      33.836  66.830   8.733  1.00  0.00     0.158 HD
ENDBRANCH   1  12
TORSDOF 1
ENDMDL