MODEL 4
REMARK VINA RESULT: -5.858168516      1.775      2.581
REMARK  2 active torsions:
REMARK  status: ('A' for Active; 'I' for Inactive)
REMARK    1  A    between atoms: N1_1  and  C1_4
REMARK    2  A    between atoms: N4_9  and  O1_10
ROOT
HETATM    1  C1  UNL     1      29.755  66.700   7.200  1.00  0.00     0.695 A
HETATM    2  N2  UNL     1      30.645  66.739   6.193  1.00  0.00    -0.116 N
ATOM      3  H2  UNL     1      30.293  66.822   5.239  1.00  0.00     0.207 HD
HETATM    4  N3  UNL     1      31.951  66.675   6.374  1.00  0.00    -0.197 N
ATOM      5  H3  UNL     1      32.596  66.708   5.584  1.00  0.00     0.211 HD
HETATM    6  N4  UNL     1      32.394  66.567   7.614  1.00  0.00    -0.091 N
HETATM    7  C2  UNL     1      31.527  66.525   8.648  1.00  0.00     0.381 A
HETATM    8  O2  UNL     1      31.993  66.421   9.824  1.00  0.00    -0.242 OA
HETATM    9  N5  UNL     1      30.195  66.590   8.468  1.00  0.00    -0.137 N
ATOM     10  H5  UNL     1      29.548  66.558   9.257  1.00  0.00     0.189 HD
ENDROOT
BRANCH   1  11
HETATM   11  N1  UNL     1      28.477  66.762   7.027  1.00  0.00    -0.233 N
ATOM     12  H12 UNL     1      27.889  66.425   7.789  1.00  0.00     0.174 HD
ATOM     13  H11 UNL     1      28.040  67.126   6.180  1.00  0.00     0.174 HD
ENDBRANCH   1  11
BRANCH   6  14
HETATM   14  O1  UNL     1      33.630  66.505   7.800  1.00  0.00    -0.263 OA
ATOM     15  H1  UNL     1      34.203  66.921   7.166  1.00  0.00     0.247 HD
ENDBRANCH   6  14
TORSDOF 2
ENDMDL