MODEL 3
REMARK VINA RESULT: -5.658847987      1.401      1.605
REMARK  1 active torsions:
REMARK  status: ('A' for Active; 'I' for Inactive)
REMARK    1  A    between atoms: N1_1  and  C1_4
ROOT
HETATM    1  C1  UNL     1      31.760  66.026   9.296  1.00  0.00     0.132 A
HETATM    2  N2  UNL     1      30.555  65.836   9.835  1.00  0.00    -0.304 N
ATOM      3  H2  UNL     1      30.390  65.414  10.748  1.00  0.00     0.171 HD
HETATM    4  C2  UNL     1      29.577  66.281   9.005  1.00  0.00     0.299 A
HETATM    5  O1  UNL     1      28.347  66.223   9.270  1.00  0.00    -0.264 OA
HETATM    6  C3  UNL     1      30.208  66.772   7.894  1.00  0.00     0.269 A
HETATM    7  O2  UNL     1      29.651  67.279   6.883  1.00  0.00    -0.280 OA
HETATM    8  C4  UNL     1      31.566  66.623   8.053  1.00  0.00     0.126 A
HETATM    9  N3  UNL     1      32.539  66.941   7.267  1.00  0.00    -0.393 N
ATOM     10  H31 UNL     1      32.396  67.379   6.356  1.00  0.00     0.156 HD
ATOM     11  H32 UNL     1      33.545  66.831   7.385  1.00  0.00     0.156 HD
ENDROOT
BRANCH   1  12
HETATM   12  N1  UNL     1      32.876  65.699   9.860  1.00  0.00    -0.383 N
ATOM     13  H12 UNL     1      33.036  65.419  10.829  1.00  0.00     0.157 HD
ATOM     14  H11 UNL     1      33.780  65.679   9.388  1.00  0.00     0.157 HD
ENDBRANCH   1  12
TORSDOF 1
ENDMDL