MODEL 4
REMARK VINA RESULT: -5.816835144      2.271      3.689
REMARK  1 active torsions:
REMARK  status: ('A' for Active; 'I' for Inactive)
REMARK    1  A    between atoms: N2_4  and  N3_6
ROOT
HETATM    1  N3  UNL     1      29.269  65.103   9.778  1.00  0.00    -0.268 N
ATOM      2  H3  UNL     1      28.267  65.129   9.589  1.00  0.00     0.190 HD
HETATM    3  C1  UNL     1      30.077  65.754   8.978  1.00  0.00     0.169 A
HETATM    4  N4  UNL     1      31.491  65.841   9.068  1.00  0.00    -0.290 N
ATOM      5  H4  UNL     1      32.072  65.400   9.781  1.00  0.00     0.172 HD
HETATM    6  C2  UNL     1      31.958  66.647   7.998  1.00  0.00     0.327 A
HETATM    7  O1  UNL     1      33.155  66.967   7.726  1.00  0.00    -0.247 OA
HETATM    8  N5  UNL     1      30.868  67.092   7.201  1.00  0.00    -0.292 N
ATOM      9  H5  UNL     1      30.909  67.682   6.370  1.00  0.00     0.172 HD
HETATM   10  C3  UNL     1      29.707  66.540   7.809  1.00  0.00     0.149 A
HETATM   11  N6  UNL     1      28.469  66.691   7.406  1.00  0.00    -0.382 N
ATOM     12  H61 UNL     1      28.211  67.242   6.587  1.00  0.00     0.157 HD
ATOM     13  H62 UNL     1      27.637  66.295   7.843  1.00  0.00     0.157 HD
ENDROOT
BRANCH   1  14
HETATM   14  N2  UNL     1      29.720  64.384  10.865  1.00  0.00    -0.248 N
HETATM   15  N1  UNL     1      29.236  64.628  12.026  1.00  0.00    -0.331 N
ATOM     16  H12 UNL     1      28.524  65.350  12.128  1.00  0.00     0.178 HD
ATOM     17  H11 UNL     1      29.570  64.096  12.831  1.00  0.00     0.178 HD
ATOM     18  H2  UNL     1      30.434  63.665  10.746  1.00  0.00     0.207 HD
ENDBRANCH   1  14
TORSDOF 1
ENDMDL