MODEL 4
REMARK VINA RESULT: -5.397576524      1.255      1.390
REMARK  1 active torsions:
REMARK  status: ('A' for Active; 'I' for Inactive)
REMARK    1  A    between atoms: N3_4  and  N4_6
ROOT
HETATM    1  N4  UNL     1      30.155  65.053  10.552  1.00  0.00    -0.269 N
ATOM      2  H4  UNL     1      30.503  64.370  11.226  1.00  0.00     0.190 HD
HETATM    3  C2  UNL     1      31.004  65.612   9.780  1.00  0.00     0.206 A
HETATM    4  N5  UNL     1      32.404  65.510   9.616  1.00  0.00    -0.279 N
ATOM      5  H5  UNL     1      33.148  64.969  10.057  1.00  0.00     0.173 HD
HETATM    6  C3  UNL     1      32.341  66.494   8.562  1.00  0.00     0.329 A
HETATM    7  O1  UNL     1      33.226  67.001   7.838  1.00  0.00    -0.246 OA
HETATM    8  N6  UNL     1      30.934  66.578   8.745  1.00  0.00    -0.279 N
ATOM      9  H6  UNL     1      30.182  67.113   8.310  1.00  0.00     0.173 HD
ENDROOT
BRANCH   1  10
HETATM   10  N3  UNL     1      28.811  65.308  10.537  1.00  0.00    -0.273 N
HETATM   11  C1  UNL     1      27.982  64.311  10.414  1.00  0.00     0.215 C
HETATM   12  N1  UNL     1      28.508  63.004  10.301  1.00  0.00    -0.065 NA
HETATM   13  N2  UNL     1      26.578  64.570  10.399  1.00  0.00    -0.065 NA
ATOM     14  H3  UNL     1      28.463  66.263  10.621  1.00  0.00     0.189 HD
ENDBRANCH   1  10
TORSDOF 1
ENDMDL