MODEL 5
REMARK VINA RESULT: -7.264056162      1.158      1.417
REMARK  2 active torsions:
REMARK  status: ('A' for Active; 'I' for Inactive)
REMARK    1  A    between atoms: C4_8  and  N3_9
REMARK    2  A    between atoms: N3_9  and  C5_11
ROOT
HETATM    1  N3  UNL     1      29.987  66.735   8.781  1.00  0.00    -0.197 N
ATOM      2  H3  UNL     1      29.947  67.661   9.208  1.00  0.00     0.183 HD
ENDROOT
BRANCH   1   3
HETATM    3  C4  UNL     1      28.895  65.867   8.956  1.00  0.00     0.141 C
HETATM    4  C3  UNL     1      28.882  65.030   9.979  1.00  0.00     0.116 A
HETATM    5  N2  UNL     1      29.798  64.862  10.939  1.00  0.00    -0.295 N
HETATM    6  C6  UNL     1      27.868  64.112  10.280  1.00  0.00     0.228 A
HETATM    7  N1  UNL     1      29.420  63.916  11.799  1.00  0.00    -0.297 N
ATOM      8  H2  UNL     1      30.669  65.388  11.005  1.00  0.00     0.187 HD
HETATM    9  C2  UNL     1      28.226  63.429  11.420  1.00  0.00     0.091 A
ATOM     10  H1  UNL     1      29.952  63.612  12.614  1.00  0.00     0.187 HD
HETATM   11  C1  UNL     1      27.504  62.473  12.007  1.00  0.00     0.049 C
HETATM   12  O1  UNL     1      26.819  63.984   9.577  1.00  0.00    -0.283 OA
ENDBRANCH   1   3
BRANCH   1  13
HETATM   13  C5  UNL     1      31.046  66.411   8.100  1.00  0.00     0.713 A
HETATM   14  N4  UNL     1      32.298  66.567   8.563  1.00  0.00    -0.115 N
HETATM   15  N5  UNL     1      33.121  66.128   7.598  1.00  0.00    -0.213 N
ATOM     16  H4  UNL     1      32.570  66.944   9.470  1.00  0.00     0.207 HD
HETATM   17  N6  UNL     1      32.433  65.711   6.563  1.00  0.00    -0.213 N
ATOM     18  H5  UNL     1      34.140  66.121   7.660  1.00  0.00     0.210 HD
HETATM   19  N7  UNL     1      31.141  65.885   6.872  1.00  0.00    -0.115 N
ATOM     20  H6  UNL     1      32.806  65.330   5.694  1.00  0.00     0.210 HD
ATOM     21  H7  UNL     1      30.353  65.654   6.267  1.00  0.00     0.207 HD
ENDBRANCH   1  13
TORSDOF 2
ENDMDL