MODEL 2
REMARK VINA RESULT: -6.561717832      2.170      4.594
REMARK  2 active torsions:
REMARK  status: ('A' for Active; 'I' for Inactive)
REMARK       I    between atoms: C1_2  and  N2_4
REMARK       I    between atoms: N2_4  and  C2_6
REMARK    1  A    between atoms: C2_6  and  C3_8
REMARK    2  A    between atoms: C3_8  and  O3_9
ROOT
HETATM    1  C3  UNL     1      28.554  66.021   9.340  1.00  0.00     0.302 C
HETATM    2  N3  UNL     1      29.082  66.999   8.388  1.00  0.00    -0.295 N
ATOM      3  H3  UNL     1      28.667  67.907   8.178  1.00  0.00     0.168 HD
HETATM    4  C4  UNL     1      30.261  66.478   7.805  1.00  0.00     0.326 C
HETATM    5  O4  UNL     1      30.881  66.991   6.821  1.00  0.00    -0.247 OA
HETATM    6  N4  UNL     1      30.633  65.295   8.497  1.00  0.00    -0.275 N
ATOM      7  H4  UNL     1      31.443  64.710   8.292  1.00  0.00     0.173 HD
HETATM    8  C5  UNL     1      29.687  65.070   9.519  1.00  0.00     0.291 C
HETATM    9  O5  UNL     1      29.781  64.223  10.418  1.00  0.00    -0.267 OA
ENDROOT
BRANCH   1  10
HETATM   10  C2  UNL     1      27.411  65.383   8.695  1.00  0.00     0.291 C
HETATM   11  N2  UNL     1      26.319  64.919   9.529  1.00  0.00    -0.277 N
HETATM   12  C1  UNL     1      25.198  64.301   8.935  1.00  0.00     0.335 C
ATOM     13  H2  UNL     1      26.361  65.039  10.541  1.00  0.00     0.173 HD
HETATM   14  N1  UNL     1      24.101  63.904   9.716  1.00  0.00    -0.040 NA
HETATM   15  O1  UNL     1      25.192  64.117   7.704  1.00  0.00    -0.251 OA
HETATM   16  O2  UNL     1      27.353  65.235   7.468  1.00  0.00    -0.267 OA
ENDBRANCH   1  10
BRANCH   1  17
HETATM   17  O3  UNL     1      28.151  66.581  10.535  1.00  0.00    -0.356 OA
ATOM     18  H3  UNL     1      28.529  66.093  11.257  1.00  0.00     0.213 HD
ENDBRANCH   1  17
TORSDOF 2
ENDMDL