MODEL 3
REMARK VINA RESULT: -6.679048308      2.530      2.723
REMARK  1 active torsions:
REMARK  status: ('A' for Active; 'I' for Inactive)
REMARK       I    between atoms: N2_6  and  C3_7
REMARK    1  A    between atoms: C3_7  and  C4_9
ROOT
HETATM    1  C4  UNL     1      29.229  66.275   8.744  1.00  0.00     0.135 A
HETATM    2  C5  UNL     1      30.540  66.273   8.555  1.00  0.00     0.110 A
HETATM    3  N3  UNL     1      31.836  66.042   8.803  1.00  0.00    -0.347 N
ATOM      4  H3  UNL     1      32.214  65.577   9.628  1.00  0.00     0.167 HD
HETATM    5  C6  UNL     1      32.544  66.526   7.781  1.00  0.00     0.182 A
HETATM    6  N4  UNL     1      31.697  67.057   6.903  1.00  0.00    -0.337 N
ATOM      7  H4  UNL     1      31.960  67.503   6.023  1.00  0.00     0.168 HD
HETATM    8  C7  UNL     1      30.445  66.914   7.357  1.00  0.00     0.136 A
HETATM    9  N5  UNL     1      29.149  66.938   7.504  1.00  0.00    -0.334 N
ATOM     10  H5  UNL     1      28.379  67.296   6.940  1.00  0.00     0.168 HD
ENDROOT
BRANCH   1  11
HETATM   11  C3  UNL     1      28.349  65.788   9.795  1.00  0.00     0.292 C
HETATM   12  N2  UNL     1      27.044  65.356   9.434  1.00  0.00    -0.233 N
HETATM   13  C2  UNL     1      26.456  65.335   8.116  1.00  0.00     0.279 C
HETATM   14  N6  UNL     1      26.115  64.870  10.356  1.00  0.00    -0.245 N
HETATM   15  N1  UNL     1      25.038  65.077   8.372  1.00  0.00    -0.324 N
HETATM   16  C1  UNL     1      24.846  64.688   9.706  1.00  0.00     0.336 C
ATOM     17  H1  UNL     1      24.295  65.168   7.679  1.00  0.00     0.166 HD
HETATM   18  O1  UNL     1      23.799  64.257  10.280  1.00  0.00    -0.246 OA
ATOM     19  H6  UNL     1      26.306  64.673  11.338  1.00  0.00     0.192 HD
HETATM   20  O2  UNL     1      28.750  65.756  11.003  1.00  0.00    -0.264 OA
ENDBRANCH   1  11
TORSDOF 1
ENDMDL