MODEL 3
REMARK VINA RESULT: -6.250601469      1.178      2.330
REMARK  1 active torsions:
REMARK  status: ('A' for Active; 'I' for Inactive)
REMARK    1  A    between atoms: N3_4  and  C2_6
ROOT
HETATM    1  C2  UNL     1      27.665  65.859   9.316  1.00  0.00     0.113 C
HETATM    2  C3  UNL     1      28.940  65.953   9.072  1.00  0.00     0.115 A
HETATM    3  C4  UNL     1      29.912  66.297  10.102  1.00  0.00     0.266 A
HETATM    4  O1  UNL     1      29.516  66.512  11.275  1.00  0.00    -0.267 OA
HETATM    5  N4  UNL     1      31.305  66.393   9.802  1.00  0.00    -0.275 N
ATOM      6  H4  UNL     1      31.970  66.636  10.538  1.00  0.00     0.173 HD
HETATM    7  C5  UNL     1      31.769  66.152   8.476  1.00  0.00     0.329 A
HETATM    8  O2  UNL     1      32.995  66.230   8.186  1.00  0.00    -0.246 OA
HETATM    9  N5  UNL     1      30.865  65.812   7.430  1.00  0.00    -0.275 N
ATOM     10  H5  UNL     1      31.205  65.641   6.483  1.00  0.00     0.173 HD
HETATM   11  C6  UNL     1      29.487  65.717   7.727  1.00  0.00     0.266 A
HETATM   12  O3  UNL     1      28.670  65.421   6.827  1.00  0.00    -0.267 OA
ENDROOT
BRANCH   1  13
HETATM   13  N3  UNL     1      26.672  65.532   8.373  1.00  0.00    -0.342 N
HETATM   14  C1  UNL     1      25.863  64.550   8.584  1.00  0.00     0.200 C
HETATM   15  N1  UNL     1      25.974  63.791   9.782  1.00  0.00    -0.067 NA
HETATM   16  N2  UNL     1      24.850  64.182   7.668  1.00  0.00    -0.067 NA
ATOM     17  H3  UNL     1      26.592  66.077   7.514  1.00  0.00     0.167 HD
ENDBRANCH   1  13
TORSDOF 1
ENDMDL