MODEL 4
REMARK VINA RESULT: -6.398627877      1.797      2.878
REMARK  2 active torsions:
REMARK  status: ('A' for Active; 'I' for Inactive)
REMARK    1  A    between atoms: N3_4  and  N4_6
REMARK    2  A    between atoms: C2_8  and  N5_9
ROOT
HETATM    1  N5  UNL     1      27.334  65.271   9.773  1.00  0.00    -0.284 N
HETATM    2  C3  UNL     1      26.615  65.585   8.586  1.00  0.00     0.189 C
HETATM    3  C4  UNL     1      25.502  64.640   8.246  1.00  0.00     0.076 C
HETATM    4  N6  UNL     1      24.661  64.275   9.313  1.00  0.00    -0.399 N
ATOM      5  H6  UNL     1      24.279  64.977   9.947  1.00  0.00     0.158 HD
HETATM    6  C5  UNL     1      24.361  62.901   9.477  1.00  0.00     0.146 C
HETATM    7  C6  UNL     1      25.522  62.048   9.912  1.00  0.00     0.253 C
HETATM    8  N7  UNL     1      26.067  62.443  11.182  1.00  0.00    -0.059 N
ATOM      9  H71 UNL     1      26.315  61.636  11.754  1.00  0.00     0.278 HD
ATOM     10  H72 UNL     1      25.354  62.849  11.789  1.00  0.00     0.278 HD
HETATM   11  C7  UNL     1      27.201  63.347  11.005  1.00  0.00     0.366 C
HETATM   12  N8  UNL     1      26.771  64.722  10.933  1.00  0.00    -0.110 NA
ENDROOT
BRANCH   1  13
HETATM   13  C2  UNL     1      28.729  65.525   9.809  1.00  0.00     0.213 C
HETATM   14  N4  UNL     1      29.487  65.418   8.783  1.00  0.00    -0.293 N
ATOM     15  H4  UNL     1      29.084  65.137   7.889  1.00  0.00     0.187 HD
BRANCH  14  16
HETATM   16  N3  UNL     1      30.853  65.679   8.871  1.00  0.00    -0.275 N
HETATM   17  C1  UNL     1      31.507  66.385   8.014  1.00  0.00     0.215 C
HETATM   18  N1  UNL     1      32.902  66.557   8.250  1.00  0.00    -0.065 NA
HETATM   19  N2  UNL     1      30.929  66.983   6.879  1.00  0.00    -0.065 NA
ATOM     20  H3  UNL     1      31.366  65.286   9.660  1.00  0.00     0.189 HD
ENDBRANCH  14  16
ENDBRANCH   1  13
TORSDOF 2
ENDMDL