MODEL 3
REMARK VINA RESULT: -6.486386729      2.389      5.618
REMARK  1 active torsions:
REMARK  status: ('A' for Active; 'I' for Inactive)
REMARK    1  A    between atoms: N3_4  and  C2_6
ROOT
HETATM    1  C2  UNL     1      29.488  65.678   8.928  1.00  0.00     0.125 C
HETATM    2  C3  UNL     1      28.765  64.994   9.814  1.00  0.00     0.119 A
HETATM    3  N4  UNL     1      29.358  64.366  10.946  1.00  0.00    -0.313 N
ATOM      4  H4  UNL     1      30.365  64.434  11.093  1.00  0.00     0.169 HD
HETATM    5  C4  UNL     1      28.555  63.641  11.875  1.00  0.00     0.314 A
HETATM    6  O1  UNL     1      29.116  63.095  12.870  1.00  0.00    -0.262 OA
HETATM    7  C5  UNL     1      27.111  63.510  11.719  1.00  0.00     0.316 A
HETATM    8  O2  UNL     1      26.445  62.857  12.573  1.00  0.00    -0.262 OA
HETATM    9  N5  UNL     1      26.517  64.138  10.590  1.00  0.00    -0.284 N
ATOM     10  H5  UNL     1      25.510  64.071  10.443  1.00  0.00     0.172 HD
HETATM   11  C6  UNL     1      27.323  64.863   9.659  1.00  0.00     0.276 A
HETATM   12  O3  UNL     1      26.795  65.416   8.664  1.00  0.00    -0.266 OA
ENDROOT
BRANCH   1  13
HETATM   13  N3  UNL     1      30.891  65.826   9.048  1.00  0.00    -0.341 N
HETATM   14  C1  UNL     1      31.597  66.411   8.156  1.00  0.00     0.200 C
HETATM   15  N1  UNL     1      30.948  66.927   7.011  1.00  0.00    -0.067 NA
HETATM   16  N2  UNL     1      32.985  66.555   8.281  1.00  0.00    -0.067 NA
ATOM     17  H3  UNL     1      31.356  65.453   9.876  1.00  0.00     0.167 HD
ENDBRANCH   1  13
TORSDOF 1
ENDMDL