MODEL 5
REMARK VINA RESULT: -6.501902457      1.077      1.540
REMARK  3 active torsions:
REMARK  status: ('A' for Active; 'I' for Inactive)
REMARK    1  A    between atoms: N1_1  and  S1_4
REMARK    2  A    between atoms: S1_4  and  N2_7
REMARK       I    between atoms: N2_7  and  C1_9
REMARK       I    between atoms: C1_9  and  N3_11
REMARK    3  A    between atoms: N3_11  and  C2_13
ROOT
HETATM    1  N2  UNL     1      29.145  63.824  11.687  1.00  0.00    -0.218 N
ATOM      2  H2  UNL     1      29.902  63.882  12.368  1.00  0.00     0.185 HD
HETATM    3  C1  UNL     1      29.218  64.568  10.468  1.00  0.00     0.349 C
HETATM    4  O3  UNL     1      28.319  64.537   9.604  1.00  0.00    -0.245 OA
HETATM    5  N3  UNL     1      30.351  65.355  10.259  1.00  0.00    -0.138 N
ATOM      6  H3  UNL     1      30.971  65.495  11.057  1.00  0.00     0.189 HD
ENDROOT
BRANCH   1   7
HETATM    7  S1  UNL     1      27.772  62.829  12.004  1.00  0.00     0.320 S
HETATM    8  O1  UNL     1      28.115  61.968  13.206  1.00  0.00    -0.183 OA
HETATM    9  O2  UNL     1      26.569  63.678  12.291  1.00  0.00    -0.183 OA
BRANCH   7  10
HETATM   10  N1  UNL     1      27.394  61.780  10.704  1.00  0.00    -0.311 N
ATOM     11  H12 UNL     1      27.305  60.766  10.771  1.00  0.00     0.170 HD
ATOM     12  H11 UNL     1      27.280  62.352   9.868  1.00  0.00     0.170 HD
ENDBRANCH   7  10
ENDBRANCH   1   7
BRANCH   5  13
HETATM   13  C2  UNL     1      30.685  65.918   9.156  1.00  0.00     0.712 A
HETATM   14  N4  UNL     1      29.874  66.427   8.217  1.00  0.00    -0.117 N
HETATM   15  N5  UNL     1      30.629  66.912   7.234  1.00  0.00     0.006 NA
ATOM     16  H4  UNL     1      28.854  66.441   8.250  1.00  0.00     0.202 HD
HETATM   17  N6  UNL     1      31.906  66.728   7.517  1.00  0.00     0.006 NA
HETATM   18  N7  UNL     1      31.935  66.121   8.693  1.00  0.00    -0.117 N
ATOM     19  H7  UNL     1      32.786  65.845   9.182  1.00  0.00     0.202 HD
ENDBRANCH   5  13
TORSDOF 3
ENDMDL