MODEL 5
REMARK VINA RESULT: -6.749681263      0.757      1.863
REMARK  1 active torsions:
REMARK  status: ('A' for Active; 'I' for Inactive)
REMARK    1  A    between atoms: N4_9  and  N5_11
ROOT
HETATM    1  O1  UNL     1      28.105  64.463  13.756  1.00  0.00    -0.245 OA
HETATM    2  C1  UNL     1      28.550  64.453  12.579  1.00  0.00     0.351 C
HETATM    3  N1  UNL     1      28.754  63.218  11.911  1.00  0.00    -0.234 N
ATOM      4  H1  UNL     1      28.927  62.360  12.435  1.00  0.00     0.189 HD
HETATM    5  N2  UNL     1      28.711  63.209  10.513  1.00  0.00    -0.004 NA
HETATM    6  N3  UNL     1      29.494  64.274  10.062  1.00  0.00    -0.114 N
ATOM      7  H3  UNL     1      30.191  64.102   9.337  1.00  0.00     0.203 HD
HETATM    8  C2  UNL     1      29.351  65.595  10.582  1.00  0.00     0.714 C
HETATM    9  N4  UNL     1      29.644  66.644   9.927  1.00  0.00    -0.119 N
ATOM     10  H4  UNL     1      29.519  67.560  10.357  1.00  0.00     0.206 HD
HETATM   11  N6  UNL     1      28.849  65.666  11.918  1.00  0.00    -0.138 N
ATOM     12  H6  UNL     1      28.711  66.565  12.380  1.00  0.00     0.189 HD
ENDROOT
BRANCH   9  13
HETATM   13  N5  UNL     1      30.142  66.548   8.601  1.00  0.00    -0.175 N
HETATM   14  C3  UNL     1      31.415  66.407   8.004  1.00  0.00     0.254 C
HETATM   15  O2  UNL     1      32.569  66.689   8.354  1.00  0.00    -0.271 OA
HETATM   16  C4  UNL     1      30.761  65.799   6.832  1.00  0.00     0.210 C
HETATM   17  C5  UNL     1      29.588  66.552   7.302  1.00  0.00     0.254 C
HETATM   18  O3  UNL     1      28.549  67.011   6.815  1.00  0.00    -0.271 OA
ENDBRANCH   9  13
TORSDOF 1
ENDMDL