MODEL 5
REMARK VINA RESULT: -5.951003179      2.153      3.767
REMARK  1 active torsions:
REMARK  status: ('A' for Active; 'I' for Inactive)
REMARK    1  A    between atoms: C3_3  and  N1_4
ROOT
HETATM    1  C1  UNL     1      25.965  64.269  13.572  1.00  0.00     0.016 C
HETATM    2  C2  UNL     1      26.500  64.187  12.491  1.00  0.00    -0.066 C
HETATM    3  C3  UNL     1      27.176  64.091  11.179  1.00  0.00     0.259 C
HETATM    4  C5  UNL     1      28.629  63.917  11.488  1.00  0.00     0.276 C
HETATM    5  O1  UNL     1      28.915  63.172  12.480  1.00  0.00    -0.269 OA
HETATM    6  N4  UNL     1      29.665  64.516  10.762  1.00  0.00    -0.276 N
ATOM      7  H4  UNL     1      30.631  64.211  10.883  1.00  0.00     0.173 HD
HETATM    8  C6  UNL     1      29.339  65.560   9.852  1.00  0.00     0.329 C
HETATM    9  O2  UNL     1      30.253  66.127   9.176  1.00  0.00    -0.247 OA
HETATM   10  N5  UNL     1      27.973  65.983   9.690  1.00  0.00    -0.276 N
ATOM     11  H5  UNL     1      27.746  66.732   9.035  1.00  0.00     0.173 HD
HETATM   12  C7  UNL     1      26.939  65.360  10.438  1.00  0.00     0.276 C
HETATM   13  O3  UNL     1      25.814  65.914  10.455  1.00  0.00    -0.269 OA
ENDROOT
BRANCH   3  14
HETATM   14  N1  UNL     1      26.796  62.933  10.450  1.00  0.00    -0.331 N
HETATM   15  C4  UNL     1      25.623  62.500  10.214  1.00  0.00     0.199 C
HETATM   16  N2  UNL     1      25.540  61.293   9.443  1.00  0.00    -0.067 NA
HETATM   17  N3  UNL     1      24.422  63.084  10.633  1.00  0.00    -0.067 NA
ATOM     18  H1  UNL     1      27.560  62.379  10.066  1.00  0.00     0.164 HD
ENDBRANCH   3  14
TORSDOF 1
ENDMDL