MODEL 4
REMARK VINA RESULT: -5.734490498      3.746      5.741
REMARK  4 active torsions:
REMARK  status: ('A' for Active; 'I' for Inactive)
REMARK    1  A    between atoms: N1_1  and  N2_4
REMARK    2  A    between atoms: N2_4  and  C1_5
REMARK    3  A    between atoms: C4_14  and  N5_15
REMARK    4  A    between atoms: C4_14  and  C5_19
ROOT
HETATM    1  C1  UNL     1      25.926  63.355  12.389  1.00  0.00     0.238 C
HETATM    2  N3  UNL     1      24.659  63.918  12.706  1.00  0.00    -0.282 N
ATOM      3  H3  UNL     1      24.454  64.175  13.671  1.00  0.00     0.173 HD
HETATM    4  C2  UNL     1      23.669  64.131  11.705  1.00  0.00     0.329 C
HETATM    5  O1  UNL     1      22.542  64.633  11.993  1.00  0.00    -0.247 OA
HETATM    6  N4  UNL     1      23.993  63.760  10.370  1.00  0.00    -0.276 N
ATOM      7  H4  UNL     1      23.317  63.894   9.617  1.00  0.00     0.173 HD
HETATM    8  C3  UNL     1      25.270  63.202  10.098  1.00  0.00     0.280 C
HETATM    9  O2  UNL     1      25.404  62.419   9.129  1.00  0.00    -0.269 OA
HETATM   10  C4  UNL     1      26.422  63.573  10.989  1.00  0.00     0.352 C
ENDROOT
BRANCH  10  11
HETATM   11  N5  UNL     1      26.703  64.972  10.752  1.00  0.00    -0.044 N
ATOM     12  H53 UNL     1      26.603  65.215   9.767  1.00  0.00     0.277 HD
ATOM     13  H52 UNL     1      25.973  65.573  11.134  1.00  0.00     0.277 HD
ATOM     14  H51 UNL     1      27.624  65.224  11.110  1.00  0.00     0.277 HD
ENDBRANCH  10  11
BRANCH  10  15
HETATM   15  C5  UNL     1      27.604  62.778  10.688  1.00  0.00     0.286 C
HETATM   16  N6  UNL     1      28.830  63.419  10.385  1.00  0.00    -0.059 NA
HETATM   17  O3  UNL     1      27.551  61.503  10.693  1.00  0.00    -0.273 OA
ENDBRANCH  10  15
BRANCH   1  18
HETATM   18  N2  UNL     1      26.601  62.708  13.233  1.00  0.00    -0.315 NA
BRANCH  18  19
HETATM   19  N1  UNL     1      27.495  62.190  13.937  1.00  0.00    -0.279 N
ATOM     20  H12 UNL     1      27.721  61.512  13.209  1.00  0.00     0.191 HD
ATOM     21  H11 UNL     1      28.159  61.933  14.668  1.00  0.00     0.191 HD
ENDBRANCH  18  19
ENDBRANCH   1  18
TORSDOF 4
ENDMDL