MODEL 4
REMARK VINA RESULT: -5.550659589      1.999      3.262
REMARK  2 active torsions:
REMARK  status: ('A' for Active; 'I' for Inactive)
REMARK    1  A    between atoms: N1_1  and  N2_4
REMARK    2  A    between atoms: N2_4  and  C1_6
ROOT
HETATM    1  C1  UNL     1      31.590  66.282   8.856  1.00  0.00     0.704 A
HETATM    2  N3  UNL     1      30.716  66.837   8.012  1.00  0.00    -0.139 N
ATOM      3  H3  UNL     1      31.066  67.465   7.288  1.00  0.00     0.189 HD
HETATM    4  C2  UNL     1      29.392  66.602   8.077  1.00  0.00     0.342 A
HETATM    5  O1  UNL     1      28.581  67.133   7.273  1.00  0.00    -0.246 OA
HETATM    6  N4  UNL     1      28.937  65.775   9.032  1.00  0.00    -0.260 N
ATOM      7  H4  UNL     1      27.940  65.578   9.106  1.00  0.00     0.175 HD
HETATM    8  C3  UNL     1      29.795  65.214   9.882  1.00  0.00     0.342 A
HETATM    9  O2  UNL     1      29.371  64.439  10.777  1.00  0.00    -0.246 OA
HETATM   10  N5  UNL     1      31.130  65.460   9.804  1.00  0.00    -0.139 N
ATOM     11  H5  UNL     1      31.774  65.022  10.463  1.00  0.00     0.189 HD
ENDROOT
BRANCH   1  12
HETATM   12  N2  UNL     1      32.835  66.523   8.770  1.00  0.00    -0.138 N
ATOM     13  H2  UNL     1      33.406  66.353   9.597  1.00  0.00     0.205 HD
BRANCH  12  14
HETATM   14  N1  UNL     1      33.474  66.999   7.635  1.00  0.00    -0.331 N
ATOM     15  H12 UNL     1      33.185  66.591   6.746  1.00  0.00     0.177 HD
ATOM     16  H11 UNL     1      34.198  67.717   7.631  1.00  0.00     0.177 HD
ENDBRANCH  12  14
ENDBRANCH   1  12
TORSDOF 2
ENDMDL