MODEL 4
REMARK VINA RESULT: -5.849997238      1.842      2.603
REMARK  3 active torsions:
REMARK  status: ('A' for Active; 'I' for Inactive)
REMARK    1  A    between atoms: N1_2  and  C2_4
REMARK    2  A    between atoms: C3_9  and  N4_10
REMARK    3  A    between atoms: N4_10  and  N5_12
ROOT
HETATM    1  C2  UNL     1      29.386  65.469   9.704  1.00  0.00     0.186 A
HETATM    2  N2  UNL     1      30.525  65.048  10.266  1.00  0.00    -0.267 N
ATOM      3  H2  UNL     1      30.480  64.411  11.062  1.00  0.00     0.189 HD
HETATM    4  N3  UNL     1      31.717  65.435   9.817  1.00  0.00    -0.129 N
ATOM      5  H3  UNL     1      32.577  65.105  10.255  1.00  0.00     0.205 HD
HETATM    6  C3  UNL     1      31.750  66.269   8.776  1.00  0.00     0.714 A
HETATM    7  N6  UNL     1      30.638  66.718   8.180  1.00  0.00    -0.150 N
ATOM      8  H6  UNL     1      30.702  67.355   7.386  1.00  0.00     0.188 HD
HETATM    9  C4  UNL     1      29.441  66.324   8.636  1.00  0.00     0.304 A
HETATM   10  O1  UNL     1      28.366  66.744   8.079  1.00  0.00    -0.263 OA
ENDROOT
BRANCH   6  11
HETATM   11  N4  UNL     1      32.887  66.655   8.328  1.00  0.00    -0.137 N
ATOM     12  H4  UNL     1      33.595  67.009   8.971  1.00  0.00     0.205 HD
BRANCH  11  13
HETATM   13  N5  UNL     1      33.156  66.591   6.964  1.00  0.00    -0.331 N
ATOM     14  H52 UNL     1      32.812  67.335   6.356  1.00  0.00     0.177 HD
ATOM     15  H51 UNL     1      33.689  65.808   6.585  1.00  0.00     0.177 HD
ENDBRANCH  11  13
ENDBRANCH   6  11
BRANCH   1  16
HETATM   16  N1  UNL     1      28.268  65.065  10.174  1.00  0.00    -0.375 N
HETATM   17  C1  UNL     1      28.170  63.820  10.906  1.00  0.00     0.148 C
ATOM     18  H1  UNL     1      27.430  65.629  10.031  1.00  0.00     0.160 HD
ENDBRANCH   1  16
TORSDOF 3
ENDMDL