MODEL 4
REMARK VINA RESULT: -5.352902439      1.807      2.897
REMARK  1 active torsions:
REMARK  status: ('A' for Active; 'I' for Inactive)
REMARK    1  A    between atoms: N1_1  and  N2_4
ROOT
HETATM    1  N2  UNL     1      29.849  66.838   6.410  1.00  0.00    -0.031 NA
HETATM    2  N3  UNL     1      28.798  67.179   7.229  1.00  0.00    -0.016 NA
HETATM    3  N4  UNL     1      28.571  66.225   8.243  1.00  0.00    -0.127 NA
HETATM    4  C1  UNL     1      28.853  66.759   9.540  1.00  0.00     0.151 C
HETATM    5  C2  UNL     1      30.121  66.247  10.138  1.00  0.00     0.142 C
HETATM    6  N5  UNL     1      31.304  66.533   9.418  1.00  0.00    -0.341 N
ATOM      7  H5  UNL     1      32.102  66.463  10.049  1.00  0.00     0.164 HD
HETATM    8  C3  UNL     1      31.769  66.885   8.114  1.00  0.00     0.333 C
HETATM    9  O1  UNL     1      33.020  66.947   7.989  1.00  0.00    -0.246 OA
HETATM   10  N6  UNL     1      31.100  67.189   6.896  1.00  0.00    -0.236 N
ATOM     11  H6  UNL     1      31.641  67.776   6.261  1.00  0.00     0.189 HD
ENDROOT
BRANCH   1  12
HETATM   12  N1  UNL     1      29.727  65.597   5.904  1.00  0.00    -0.329 NA
ATOM     13  H12 UNL     1      29.634  64.836   6.578  1.00  0.00     0.174 HD
ATOM     14  H11 UNL     1      29.073  65.556   5.122  1.00  0.00     0.174 HD
ENDBRANCH   1  12
TORSDOF 1
ENDMDL