MODEL 1
REMARK VINA RESULT: -6.214223193      0.000      0.000
REMARK  2 active torsions:
REMARK  status: ('A' for Active; 'I' for Inactive)
REMARK    1  A    between atoms: N1_1  and  N2_4
REMARK       I    between atoms: N2_4  and  C1_6
REMARK       I    between atoms: C1_6  and  N3_8
REMARK    2  A    between atoms: N7_15  and  N8_16
ROOT
HETATM    1  N2  UNL     1      29.691  64.571  11.728  1.00  0.00    -0.258 N
ATOM      2  H2  UNL     1      30.599  64.652  12.187  1.00  0.00     0.191 HD
HETATM    3  C1  UNL     1      29.552  64.964  10.375  1.00  0.00     0.341 C
HETATM    4  O1  UNL     1      28.435  64.867   9.804  1.00  0.00    -0.245 OA
HETATM    5  N3  UNL     1      30.669  65.462   9.679  1.00  0.00    -0.276 N
ATOM      6  H3  UNL     1      31.594  65.276  10.066  1.00  0.00     0.173 HD
HETATM    7  C2  UNL     1      30.600  66.138   8.584  1.00  0.00     0.235 C
HETATM    8  N4  UNL     1      29.487  66.551   7.814  1.00  0.00    -0.254 N
ATOM      9  H4  UNL     1      28.516  66.255   7.918  1.00  0.00     0.187 HD
HETATM   10  N5  UNL     1      30.009  67.463   6.870  1.00  0.00    -0.004 NA
HETATM   11  N6  UNL     1      31.313  67.031   6.599  1.00  0.00     0.017 NA
HETATM   12  N7  UNL     1      31.742  66.634   7.894  1.00  0.00    -0.153 N
ENDROOT
BRANCH  12  13
HETATM   13  N8  UNL     1      33.029  66.700   8.430  1.00  0.00    -0.323 N
ATOM     14  H82 UNL     1      33.373  67.322   9.162  1.00  0.00     0.178 HD
ATOM     15  H81 UNL     1      33.810  66.109   8.143  1.00  0.00     0.178 HD
ENDBRANCH  12  13
BRANCH   1  16
HETATM   16  N1  UNL     1      28.616  64.083  12.428  1.00  0.00    -0.341 N
ATOM     17  H12 UNL     1      28.712  63.191  12.913  1.00  0.00     0.177 HD
ATOM     18  H11 UNL     1      27.740  64.603  12.463  1.00  0.00     0.177 HD
ENDBRANCH   1  16
TORSDOF 2
ENDMDL