MODEL 3
REMARK VINA RESULT: -5.397957205      2.518      3.172
REMARK  2 active torsions:
REMARK  status: ('A' for Active; 'I' for Inactive)
REMARK       I    between atoms: C1_4  and  N2_5
REMARK       I    between atoms: C1_4  and  N3_8
REMARK    1  A    between atoms: N3_8  and  N4_10
REMARK    2  A    between atoms: N6_13  and  N7_14
ROOT
HETATM    1  N4  UNL     1      30.290  67.251   7.132  1.00  0.00    -0.081 N
HETATM    2  N5  UNL     1      31.369  67.353   6.374  1.00  0.00    -0.167 N
ATOM      3  H5  UNL     1      31.544  67.632   5.409  1.00  0.00     0.216 HD
HETATM    4  N6  UNL     1      32.116  66.953   7.362  1.00  0.00    -0.102 N
HETATM    5  N8  UNL     1      31.057  66.845   8.130  1.00  0.00    -0.167 N
ATOM      6  H8  UNL     1      30.893  66.564   9.097  1.00  0.00     0.216 HD
ENDROOT
BRANCH   1   7
HETATM    7  N3  UNL     1      28.915  67.477   6.953  1.00  0.00    -0.093 N
HETATM    8  C1  UNL     1      27.970  66.870   7.798  1.00  0.00     0.700 C
HETATM    9  N1  UNL     1      27.016  66.195   7.298  1.00  0.00    -0.233 N
HETATM   10  N2  UNL     1      28.084  67.011   9.190  1.00  0.00    -0.152 N
ATOM     11  H12 UNL     1      26.330  65.755   7.912  1.00  0.00     0.174 HD
ATOM     12  H11 UNL     1      26.933  66.093   6.287  1.00  0.00     0.174 HD
HETATM   13  S1  UNL     1      27.970  65.675  10.326  1.00  0.00     0.058 SA
ATOM     14  H2  UNL     1      28.244  67.946   9.564  1.00  0.00     0.193 HD
ATOM     15  H3  UNL     1      28.598  68.090   6.201  1.00  0.00     0.209 HD
ENDBRANCH   1   7
BRANCH   4  16
HETATM   16  N7  UNL     1      33.475  66.696   7.644  1.00  0.00    -0.306 N
ATOM     17  H72 UNL     1      34.290  66.720   7.031  1.00  0.00     0.180 HD
ATOM     18  H71 UNL     1      34.068  66.435   8.432  1.00  0.00     0.180 HD
ENDBRANCH   4  16
TORSDOF 2
ENDMDL