MODEL 2
REMARK VINA RESULT: -6.774395614      1.021      3.477
REMARK  1 active torsions:
REMARK  status: ('A' for Active; 'I' for Inactive)
REMARK    1  A    between atoms: N1_1  and  C1_4
ROOT
HETATM    1  C1  UNL     1      30.129  65.199   9.647  1.00  0.00     0.183 C
HETATM    2  N2  UNL     1      31.440  65.256   9.933  1.00  0.00    -0.278 N
ATOM      3  H2  UNL     1      31.763  64.638  10.677  1.00  0.00     0.189 HD
HETATM    4  N3  UNL     1      32.374  66.026   9.358  1.00  0.00    -0.260 N
ATOM      5  H3  UNL     1      33.259  66.095   9.860  1.00  0.00     0.190 HD
HETATM    6  C2  UNL     1      32.301  66.723   8.205  1.00  0.00     0.328 C
HETATM    7  O1  UNL     1      33.369  67.168   7.747  1.00  0.00    -0.261 OA
HETATM    8  C3  UNL     1      31.196  67.026   7.436  1.00  0.00     0.318 C
HETATM    9  O2  UNL     1      31.430  67.532   6.312  1.00  0.00    -0.262 OA
HETATM   10  N4  UNL     1      29.903  66.825   7.788  1.00  0.00    -0.283 N
ATOM     11  H4  UNL     1      29.202  67.337   7.251  1.00  0.00     0.172 HD
HETATM   12  C4  UNL     1      29.438  66.019   8.776  1.00  0.00     0.293 C
HETATM   13  O3  UNL     1      28.196  65.998   8.943  1.00  0.00    -0.264 OA
ENDROOT
BRANCH   1  14
HETATM   14  N1  UNL     1      29.477  64.280  10.260  1.00  0.00    -0.380 N
ATOM     15  H12 UNL     1      28.666  64.552  10.815  1.00  0.00     0.158 HD
ATOM     16  H11 UNL     1      29.841  63.334  10.135  1.00  0.00     0.158 HD
ENDBRANCH   1  14
TORSDOF 1
ENDMDL