MODEL 1
REMARK VINA RESULT: -6.962072922      0.000      0.000
REMARK  0 active torsions:
REMARK  status: ('A' for Active; 'I' for Inactive)
ROOT
HETATM    1  N1  UNL     1      29.465  64.378  10.264  1.00  0.00    -0.233 N
ATOM      2  H11 UNL     1      28.469  64.352  10.049  1.00  0.00     0.174 HD
ATOM      3  H12 UNL     1      29.937  63.768  10.932  1.00  0.00     0.174 HD
HETATM    4  C1  UNL     1      30.203  65.259   9.641  1.00  0.00     0.694 C
HETATM    5  N2  UNL     1      31.592  65.295   9.942  1.00  0.00    -0.118 N
ATOM      6  H2  UNL     1      31.811  64.733  10.764  1.00  0.00     0.207 HD
HETATM    7  N3  UNL     1      32.704  65.876   9.430  1.00  0.00    -0.225 N
ATOM      8  H3  UNL     1      33.592  65.815   9.928  1.00  0.00     0.209 HD
HETATM    9  N4  UNL     1      32.628  66.537   8.254  1.00  0.00    -0.247 N
ATOM     10  H4  UNL     1      33.552  66.710   7.858  1.00  0.00     0.192 HD
HETATM   11  C2  UNL     1      31.588  67.059   7.419  1.00  0.00     0.329 C
HETATM   12  O1  UNL     1      31.925  67.677   6.372  1.00  0.00    -0.261 OA
HETATM   13  C3  UNL     1      30.160  66.927   7.691  1.00  0.00     0.329 C
HETATM   14  O2  UNL     1      29.388  67.584   6.975  1.00  0.00    -0.261 OA
HETATM   15  N5  UNL     1      29.544  66.110   8.710  1.00  0.00    -0.150 N
ATOM     16  H5  UNL     1      28.526  66.146   8.770  1.00  0.00     0.188 HD
ENDROOT
TORSDOF 0
ENDMDL