MODEL 5
REMARK VINA RESULT: -6.192224314      1.944      2.255
REMARK  3 active torsions:
REMARK  status: ('A' for Active; 'I' for Inactive)
REMARK       I    between atoms: C1_2  and  N2_4
REMARK    1  A    between atoms: N2_4  and  N3_6
REMARK    2  A    between atoms: N3_6  and  C2_8
REMARK    3  A    between atoms: N7_15  and  O2_16
ROOT
HETATM    1  C2  UNL     1      30.975  66.618   8.364  1.00  0.00     0.755 A
HETATM    2  N4  UNL     1      31.412  65.952   9.429  1.00  0.00    -0.112 N
ATOM      3  H4  UNL     1      30.822  65.521  10.141  1.00  0.00     0.207 HD
HETATM    4  N5  UNL     1      32.725  65.939   9.416  1.00  0.00    -0.211 N
ATOM      5  H5  UNL     1      33.336  65.503  10.106  1.00  0.00     0.210 HD
HETATM    6  N6  UNL     1      33.102  66.600   8.337  1.00  0.00    -0.186 N
ATOM      7  H6  UNL     1      34.069  66.758   8.055  1.00  0.00     0.213 HD
HETATM    8  N7  UNL     1      32.044  67.026   7.680  1.00  0.00     0.035 N
ENDROOT
BRANCH   1   9
HETATM    9  N3  UNL     1      29.762  66.864   7.999  1.00  0.00    -0.123 N
ATOM     10  H3  UNL     1      29.576  66.991   7.004  1.00  0.00     0.206 HD
BRANCH   9  11
HETATM   11  N2  UNL     1      28.691  66.966   8.888  1.00  0.00    -0.239 N
HETATM   12  C1  UNL     1      27.424  66.405   8.677  1.00  0.00     0.347 C
HETATM   13  N1  UNL     1      26.415  66.579   9.656  1.00  0.00    -0.038 NA
HETATM   14  O1  UNL     1      27.114  65.744   7.655  1.00  0.00    -0.249 OA
ATOM     15  H2  UNL     1      28.840  67.485   9.752  1.00  0.00     0.192 HD
ENDBRANCH   9  11
ENDBRANCH   1   9
BRANCH   8  16
HETATM   16  O2  UNL     1      32.069  67.684   6.616  1.00  0.00    -0.253 OA
ATOM     17  H2  UNL     1      32.825  68.054   6.178  1.00  0.00     0.247 HD
ENDBRANCH   8  16
TORSDOF 3
ENDMDL