MODEL 5
REMARK VINA RESULT: -5.724682541      2.006      2.793
REMARK  2 active torsions:
REMARK  status: ('A' for Active; 'I' for Inactive)
REMARK    1  A    between atoms: N1_1  and  N2_4
REMARK       I    between atoms: C1_6  and  N3_7
REMARK       I    between atoms: C1_6  and  N5_12
REMARK    2  A    between atoms: N3_7  and  N4_9
ROOT
HETATM    1  N2  UNL     1      32.517  66.456   8.634  1.00  0.00    -0.136 N
ATOM      2  H2  UNL     1      32.732  65.927   9.480  1.00  0.00     0.205 HD
HETATM    3  C1  UNL     1      31.275  66.598   8.309  1.00  0.00     0.731 C
HETATM    4  N3  UNL     1      30.873  67.313   7.158  1.00  0.00    -0.136 N
ATOM      5  H3  UNL     1      30.020  67.867   7.232  1.00  0.00     0.205 HD
HETATM    6  N5  UNL     1      30.307  66.001   9.161  1.00  0.00    -0.053 N
HETATM    7  N6  UNL     1      30.320  65.243  10.346  1.00  0.00    -0.106 NA
HETATM    8  C2  UNL     1      28.907  64.953  10.181  1.00  0.00     0.241 C
HETATM    9  C3  UNL     1      28.890  65.954   9.117  1.00  0.00     0.272 C
HETATM   10  O1  UNL     1      28.022  66.540   8.437  1.00  0.00    -0.270 OA
ENDROOT
BRANCH   1  11
HETATM   11  N1  UNL     1      33.574  66.976   7.909  1.00  0.00    -0.331 N
ATOM     12  H12 UNL     1      33.891  66.436   7.104  1.00  0.00     0.177 HD
ATOM     13  H11 UNL     1      34.044  67.854   8.132  1.00  0.00     0.177 HD
ENDBRANCH   1  11
BRANCH   4  14
HETATM   14  N4  UNL     1      31.526  67.331   5.948  1.00  0.00    -0.331 N
ATOM     15  H42 UNL     1      32.543  67.389   5.992  1.00  0.00     0.177 HD
ATOM     16  H41 UNL     1      31.086  67.292   5.029  1.00  0.00     0.177 HD
ENDBRANCH   4  14
TORSDOF 2
ENDMDL