MODEL 5
REMARK VINA RESULT: -5.150485719      2.064      2.609
REMARK  3 active torsions:
REMARK  status: ('A' for Active; 'I' for Inactive)
REMARK    1  A    between atoms: N1_1  and  N2_4
REMARK    2  A    between atoms: N2_4  and  N3_5
REMARK    3  A    between atoms: N2_4  and  N4_8
ROOT
HETATM    1  N4  UNL     1      30.820  66.190   7.830  1.00  0.00    -0.193 N
HETATM    2  C1  UNL     1      29.540  66.572   7.372  1.00  0.00     0.193 C
HETATM    3  C2  UNL     1      28.549  66.893   8.445  1.00  0.00     0.148 C
HETATM    4  N5  UNL     1      28.488  65.741   9.341  1.00  0.00    -0.340 N
ATOM      5  H5  UNL     1      27.613  65.281   9.595  1.00  0.00     0.164 HD
HETATM    6  C3  UNL     1      29.766  65.312   9.832  1.00  0.00     0.336 C
HETATM    7  O1  UNL     1      29.796  64.581  10.853  1.00  0.00    -0.246 OA
HETATM    8  N6  UNL     1      30.898  65.748   9.128  1.00  0.00    -0.232 N
ATOM      9  H6  UNL     1      31.805  65.737   9.593  1.00  0.00     0.193 HD
ENDROOT
BRANCH   1  10
HETATM   10  N2  UNL     1      31.893  66.849   7.367  1.00  0.00    -0.127 N
BRANCH  10  11
HETATM   11  N1  UNL     1      33.110  66.620   7.928  1.00  0.00    -0.308 N
ATOM     12  H12 UNL     1      33.228  65.825   8.556  1.00  0.00     0.180 HD
ATOM     13  H11 UNL     1      33.928  67.089   7.539  1.00  0.00     0.180 HD
ENDBRANCH  10  11
BRANCH  10  14
HETATM   14  N3  UNL     1      31.834  67.479   6.176  1.00  0.00    -0.308 N
ATOM     15  H32 UNL     1      32.613  67.405   5.521  1.00  0.00     0.180 HD
ATOM     16  H31 UNL     1      31.133  68.207   6.038  1.00  0.00     0.180 HD
ENDBRANCH  10  14
ENDBRANCH   1  10
TORSDOF 3
ENDMDL