MODEL 5
REMARK VINA RESULT: -5.913719486      2.020      3.736
REMARK  3 active torsions:
REMARK  status: ('A' for Active; 'I' for Inactive)
REMARK    1  A    between atoms: C1_4  and  N2_5
REMARK    2  A    between atoms: C1_4  and  C3_15
REMARK    3  A    between atoms: N2_5  and  C2_7
ROOT
HETATM    1  N2  UNL     1      30.746  66.380   9.794  1.00  0.00    -0.170 N
ATOM      2  H2  UNL     1      30.961  67.014  10.563  1.00  0.00     0.186 HD
ENDROOT
BRANCH   1   3
HETATM    3  C1  UNL     1      29.609  65.540   9.909  1.00  0.00     0.180 C
HETATM    4  N1  UNL     1      29.767  64.401  10.477  1.00  0.00    -0.381 N
ATOM      5  H12 UNL     1      30.691  64.141  10.822  1.00  0.00     0.157 HD
ATOM      6  H11 UNL     1      28.950  63.797  10.561  1.00  0.00     0.157 HD
BRANCH   3   7
HETATM    7  C3  UNL     1      28.291  65.911   9.418  1.00  0.00     0.298 C
HETATM    8  N7  UNL     1      28.015  65.916   8.034  1.00  0.00    -0.054 NA
HETATM    9  O1  UNL     1      27.348  66.241  10.191  1.00  0.00    -0.268 OA
ENDBRANCH   3   7
ENDBRANCH   1   3
BRANCH   1  10
HETATM   10  C2  UNL     1      31.522  66.382   8.764  1.00  0.00     0.712 A
HETATM   11  N3  UNL     1      32.862  66.493   8.877  1.00  0.00    -0.113 N
HETATM   12  N4  UNL     1      33.355  66.460   7.648  1.00  0.00     0.009 NA
ATOM     13  H3  UNL     1      33.394  66.585   9.742  1.00  0.00     0.203 HD
HETATM   14  N5  UNL     1      32.377  66.333   6.766  1.00  0.00    -0.212 N
HETATM   15  N6  UNL     1      31.256  66.285   7.462  1.00  0.00    -0.118 N
ATOM     16  H5  UNL     1      32.470  66.282   5.751  1.00  0.00     0.206 HD
ATOM     17  H6  UNL     1      30.324  66.189   7.061  1.00  0.00     0.207 HD
ENDBRANCH   1  10
TORSDOF 3
ENDMDL