MODEL 2
REMARK VINA RESULT: -6.063095055      2.781      4.836
REMARK  1 active torsions:
REMARK  status: ('A' for Active; 'I' for Inactive)
REMARK    1  A    between atoms: N3_4  and  N4_6
ROOT
HETATM    1  N4  UNL     1      30.289  64.927   8.901  1.00  0.00    -0.279 N
ATOM      2  H4  UNL     1      30.212  63.959   8.593  1.00  0.00     0.189 HD
HETATM    3  C2  UNL     1      29.700  65.254   9.996  1.00  0.00     0.193 A
HETATM    4  N5  UNL     1      29.676  66.541  10.607  1.00  0.00    -0.289 N
ATOM      5  H5  UNL     1      30.128  67.386  10.256  1.00  0.00     0.172 HD
HETATM    6  C3  UNL     1      28.903  66.429  11.802  1.00  0.00     0.328 A
HETATM    7  O1  UNL     1      28.665  67.374  12.606  1.00  0.00    -0.247 OA
HETATM    8  N6  UNL     1      28.445  65.084  11.939  1.00  0.00    -0.272 N
ATOM      9  H6  UNL     1      27.871  64.720  12.700  1.00  0.00     0.174 HD
HETATM   10  C4  UNL     1      28.927  64.346  10.834  1.00  0.00     0.295 A
HETATM   11  O2  UNL     1      28.747  63.127  10.582  1.00  0.00    -0.264 OA
ENDROOT
BRANCH   1  12
HETATM   12  N3  UNL     1      31.019  65.797   8.114  1.00  0.00    -0.274 N
HETATM   13  C1  UNL     1      30.602  66.116   6.931  1.00  0.00     0.215 C
HETATM   14  N1  UNL     1      29.381  65.566   6.440  1.00  0.00    -0.065 NA
HETATM   15  N2  UNL     1      31.374  67.016   6.136  1.00  0.00    -0.065 NA
ATOM     16  H3  UNL     1      31.891  66.188   8.466  1.00  0.00     0.189 HD
ENDBRANCH   1  12
TORSDOF 1
ENDMDL