MODEL 5
REMARK VINA RESULT: -6.052429798      2.544      4.786
REMARK  5 active torsions:
REMARK  status: ('A' for Active; 'I' for Inactive)
REMARK    1  A    between atoms: N1_1  and  C1_5
REMARK    2  A    between atoms: C1_5  and  N2_6
REMARK    3  A    between atoms: C1_5  and  C2_10
REMARK       I    between atoms: C2_10  and  N3_12
REMARK    4  A    between atoms: N3_12  and  C3_14
REMARK    5  A    between atoms: N6_20  and  O2_21
ROOT
HETATM    1  C2  UNL     1      31.002  66.885   7.947  1.00  0.00     0.281 C
HETATM    2  O1  UNL     1      30.600  67.287   6.850  1.00  0.00    -0.269 OA
HETATM    3  N3  UNL     1      30.156  66.523   8.996  1.00  0.00    -0.305 N
ATOM      4  H3  UNL     1      30.631  66.210   9.843  1.00  0.00     0.170 HD
ENDROOT
BRANCH   1   5
HETATM    5  C1  UNL     1      32.488  66.800   8.111  1.00  0.00     0.468 C
BRANCH   5   6
HETATM    6  N1  UNL     1      32.807  65.994   9.265  1.00  0.00    -0.042 N
ATOM      7  H13 UNL     1      33.182  66.538  10.042  1.00  0.00     0.277 HD
ATOM      8  H12 UNL     1      31.982  65.635   9.744  1.00  0.00     0.277 HD
ATOM      9  H11 UNL     1      33.440  65.258   8.949  1.00  0.00     0.277 HD
ENDBRANCH   5   6
BRANCH   5  10
HETATM   10  N2  UNL     1      33.097  66.154   6.960  1.00  0.00    -0.042 N
ATOM     11  H23 UNL     1      32.560  65.359   6.615  1.00  0.00     0.277 HD
ATOM     12  H22 UNL     1      33.050  66.720   6.112  1.00  0.00     0.277 HD
ATOM     13  H21 UNL     1      34.050  65.909   7.226  1.00  0.00     0.277 HD
ENDBRANCH   5  10
ENDBRANCH   1   5
BRANCH   3  14
HETATM   14  C3  UNL     1      28.747  66.522   9.070  1.00  0.00     0.173 A
HETATM   15  C4  UNL     1      28.087  66.887  10.246  1.00  0.00     0.161 A
HETATM   16  N4  UNL     1      26.772  66.790  10.014  1.00  0.00    -0.292 N
HETATM   17  N5  UNL     1      26.608  66.391   8.777  1.00  0.00    -0.215 N
ATOM     18  H4  UNL     1      26.029  66.991  10.684  1.00  0.00     0.187 HD
HETATM   19  N6  UNL     1      27.791  66.227   8.200  1.00  0.00    -0.130 N
ATOM     20  H5  UNL     1      25.707  66.231   8.327  1.00  0.00     0.211 HD
BRANCH  19  21
HETATM   21  O2  UNL     1      27.962  65.848   7.008  1.00  0.00    -0.265 OA
ATOM     22  H2  UNL     1      27.696  66.321   6.228  1.00  0.00     0.247 HD
ENDBRANCH  19  21
ENDBRANCH   3  14
TORSDOF 5
ENDMDL