MODEL 3
REMARK VINA RESULT: -5.115987268      1.561      1.562
REMARK  2 active torsions:
REMARK  status: ('A' for Active; 'I' for Inactive)
REMARK    1  A    between atoms: C1_2  and  N2_4
REMARK    2  A    between atoms: N4_9  and  N5_10
ROOT
HETATM    1  N2  UNL     1      29.701  65.590   9.994  1.00  0.00    -0.104 N
HETATM    2  N3  UNL     1      31.042  65.578   9.583  1.00  0.00    -0.218 N
ATOM      3  H3  UNL     1      31.817  65.066  10.005  1.00  0.00     0.194 HD
HETATM    4  C2  UNL     1      31.086  66.436   8.448  1.00  0.00     0.384 C
HETATM    5  O1  UNL     1      32.072  66.731   7.749  1.00  0.00    -0.241 OA
HETATM    6  N4  UNL     1      29.745  66.903   8.267  1.00  0.00    -0.083 N
HETATM    7  O2  UNL     1      29.126  66.699   9.433  1.00  0.00    -0.104 OA
ENDROOT
BRANCH   1   8
HETATM    8  C1  UNL     1      29.046  64.646  10.829  1.00  0.00     0.232 C
HETATM    9  N1  UNL     1      28.839  63.340  10.335  1.00  0.00    -0.066 NA
HETATM   10  S1  UNL     1      28.555  65.083  12.320  1.00  0.00    -0.040 SA
ENDBRANCH   1   8
BRANCH   6  11
HETATM   11  N5  UNL     1      29.186  67.464   7.098  1.00  0.00    -0.312 N
ATOM     12  H52 UNL     1      29.268  68.431   6.783  1.00  0.00     0.179 HD
ATOM     13  H51 UNL     1      28.620  66.989   6.396  1.00  0.00     0.179 HD
ENDBRANCH   6  11
TORSDOF 2
ENDMDL