MODEL 4
REMARK VINA RESULT: -5.768864823      1.685      2.224
REMARK  3 active torsions:
REMARK  status: ('A' for Active; 'I' for Inactive)
REMARK    1  A    between atoms: N1_1  and  C1_5
REMARK    2  A    between atoms: C1_5  and  N2_6
REMARK    3  A    between atoms: C1_5  and  C2_10
REMARK       I    between atoms: C2_10  and  N3_12
ROOT
HETATM    1  C2  UNL     1      31.149  66.806   8.178  1.00  0.00     0.282 C
HETATM    2  O1  UNL     1      31.302  66.539   9.383  1.00  0.00    -0.269 OA
HETATM    3  N3  UNL     1      29.862  66.939   7.594  1.00  0.00    -0.296 N
ATOM      4  H3  UNL     1      29.775  67.503   6.749  1.00  0.00     0.172 HD
HETATM    5  C3  UNL     1      28.806  66.393   8.064  1.00  0.00     0.177 C
HETATM    6  N4  UNL     1      27.523  66.549   7.449  1.00  0.00    -0.361 N
ATOM      7  H4  UNL     1      27.352  66.959   6.531  1.00  0.00     0.162 HD
HETATM    8  C4  UNL     1      26.511  66.030   8.338  1.00  0.00     0.142 C
HETATM    9  C5  UNL     1      27.256  65.700   9.601  1.00  0.00     0.142 C
HETATM   10  N5  UNL     1      28.662  65.580   9.200  1.00  0.00    -0.361 N
ATOM     11  H5  UNL     1      29.386  65.021   9.652  1.00  0.00     0.162 HD
ENDROOT
BRANCH   1  12
HETATM   12  C1  UNL     1      32.348  66.991   7.326  1.00  0.00     0.468 C
BRANCH  12  13
HETATM   13  N1  UNL     1      33.549  66.842   8.124  1.00  0.00    -0.042 N
ATOM     14  H13 UNL     1      34.385  66.686   7.563  1.00  0.00     0.277 HD
ATOM     15  H12 UNL     1      33.848  67.712   8.564  1.00  0.00     0.277 HD
ATOM     16  H11 UNL     1      33.372  66.095   8.795  1.00  0.00     0.277 HD
ENDBRANCH  12  13
BRANCH  12  17
HETATM   17  N2  UNL     1      32.368  65.937   6.323  1.00  0.00    -0.042 N
ATOM     18  H23 UNL     1      33.197  65.347   6.379  1.00  0.00     0.277 HD
ATOM     19  H22 UNL     1      31.677  65.207   6.495  1.00  0.00     0.277 HD
ATOM     20  H21 UNL     1      32.256  66.386   5.414  1.00  0.00     0.277 HD
ENDBRANCH  12  17
ENDBRANCH   1  12
TORSDOF 3
ENDMDL