MODEL 4
REMARK VINA RESULT: -5.936491679      1.324      2.033
REMARK  2 active torsions:
REMARK  status: ('A' for Active; 'I' for Inactive)
REMARK    1  A    between atoms: N1_1  and  N2_4
REMARK       I    between atoms: N2_4  and  C1_6
REMARK    2  A    between atoms: C1_6  and  C2_8
ROOT
HETATM    1  C2  UNL     1      29.291  66.405   8.596  1.00  0.00     0.117 A
HETATM    2  C3  UNL     1      28.743  66.756   9.829  1.00  0.00     0.115 A
HETATM    3  N3  UNL     1      27.396  66.822   9.946  1.00  0.00    -0.318 N
ATOM      4  H3  UNL     1      26.994  67.078  10.848  1.00  0.00     0.170 HD
HETATM    5  C4  UNL     1      26.559  66.561   8.908  1.00  0.00     0.327 A
HETATM    6  O2  UNL     1      25.298  66.629   9.066  1.00  0.00    -0.247 OA
HETATM    7  N4  UNL     1      27.101  66.224   7.737  1.00  0.00    -0.275 N
ATOM      8  H4  UNL     1      26.489  66.019   6.947  1.00  0.00     0.173 HD
HETATM    9  C5  UNL     1      28.446  66.146   7.571  1.00  0.00     0.266 A
HETATM   10  O3  UNL     1      28.956  65.827   6.453  1.00  0.00    -0.267 OA
ENDROOT
BRANCH   1  11
HETATM   11  C1  UNL     1      30.757  66.455   8.529  1.00  0.00     0.276 C
HETATM   12  N2  UNL     1      31.465  65.698   9.514  1.00  0.00    -0.272 N
ATOM     13  H2  UNL     1      30.942  65.166  10.209  1.00  0.00     0.189 HD
HETATM   14  O1  UNL     1      31.317  67.125   7.629  1.00  0.00    -0.266 OA
BRANCH  12  15
HETATM   15  N1  UNL     1      32.861  65.676   9.540  1.00  0.00    -0.342 N
ATOM     16  H12 UNL     1      33.339  64.807   9.298  1.00  0.00     0.176 HD
ATOM     17  H11 UNL     1      33.396  66.506   9.794  1.00  0.00     0.176 HD
ENDBRANCH  12  15
ENDBRANCH   1  11
TORSDOF 2
ENDMDL