MODEL 1
REMARK VINA RESULT: -6.270722102      0.000      0.000
REMARK  5 active torsions:
REMARK  status: ('A' for Active; 'I' for Inactive)
REMARK       I    between atoms: C1_2  and  N2_4
REMARK    1  A    between atoms: N2_4  and  C2_6
REMARK    2  A    between atoms: C2_6  and  O2_7
REMARK    3  A    between atoms: C2_6  and  C3_9
REMARK    4  A    between atoms: C3_9  and  N3_10
REMARK    5  A    between atoms: C3_9  and  C4_14
ROOT
HETATM    1  C2  UNL     1      31.681  65.706   9.044  1.00  0.00     0.159 C
ENDROOT
BRANCH   1   2
HETATM    2  N2  UNL     1      30.790  64.787   9.541  1.00  0.00    -0.293 N
HETATM    3  C1  UNL     1      29.576  64.868  10.215  1.00  0.00     0.334 C
HETATM    4  N1  UNL     1      28.884  63.642  10.603  1.00  0.00    -0.040 NA
HETATM    5  O1  UNL     1      28.977  65.900  10.545  1.00  0.00    -0.251 OA
ATOM      6  H2  UNL     1      31.086  63.824   9.380  1.00  0.00     0.172 HD
ENDBRANCH   1   2
BRANCH   1   7
HETATM    7  O2  UNL     1      32.900  65.615   9.551  1.00  0.00    -0.347 OA
ATOM      8  H2  UNL     1      33.473  66.339   9.327  1.00  0.00     0.219 HD
ENDBRANCH   1   7
BRANCH   1   9
HETATM    9  C3  UNL     1      31.565  66.774   8.061  1.00  0.00     0.345 C
BRANCH   9  10
HETATM   10  N3  UNL     1      32.614  67.009   7.154  1.00  0.00    -0.059 N
ATOM     11  H33 UNL     1      32.943  66.111   6.800  1.00  0.00     0.275 HD
ATOM     12  H32 UNL     1      32.224  67.431   6.311  1.00  0.00     0.275 HD
ATOM     13  H31 UNL     1      33.424  67.558   7.444  1.00  0.00     0.275 HD
ENDBRANCH   9  10
BRANCH   9  14
HETATM   14  C4  UNL     1      30.317  66.552   7.224  1.00  0.00     0.269 C
HETATM   15  N4  UNL     1      30.035  65.289   6.643  1.00  0.00    -0.060 NA
HETATM   16  O3  UNL     1      29.509  67.490   7.031  1.00  0.00    -0.274 OA
ENDBRANCH   9  14
ENDBRANCH   1   9
TORSDOF 5
ENDMDL