MODEL 1
REMARK VINA RESULT: -5.686277623      0.000      0.000
REMARK  2 active torsions:
REMARK  status: ('A' for Active; 'I' for Inactive)
REMARK    1  A    between atoms: N1_1  and  N2_4
REMARK       I    between atoms: C1_6  and  N4_8
REMARK    2  A    between atoms: N6_15  and  N7_16
ROOT
HETATM    1  N2  UNL     1      28.810  65.951  11.023  1.00  0.00    -0.279 N
ATOM      2  H2  UNL     1      28.489  65.461  11.858  1.00  0.00     0.189 HD
HETATM    3  C1  UNL     1      29.312  65.240  10.096  1.00  0.00     0.225 C
HETATM    4  N3  UNL     1      29.383  63.827  10.303  1.00  0.00    -0.060 NA
HETATM    5  N4  UNL     1      29.813  65.727   8.865  1.00  0.00    -0.237 N
HETATM    6  C2  UNL     1      28.949  65.965   7.732  1.00  0.00     0.174 C
HETATM    7  C3  UNL     1      29.326  67.306   7.152  1.00  0.00     0.146 C
HETATM    8  N5  UNL     1      30.684  67.203   6.663  1.00  0.00    -0.339 N
ATOM      9  H5  UNL     1      30.930  67.444   5.703  1.00  0.00     0.164 HD
HETATM   10  C4  UNL     1      31.657  66.749   7.595  1.00  0.00     0.356 C
HETATM   11  O1  UNL     1      32.861  67.019   7.407  1.00  0.00    -0.243 OA
HETATM   12  N6  UNL     1      31.178  65.988   8.723  1.00  0.00    -0.144 N
ENDROOT
BRANCH  12  13
HETATM   13  N7  UNL     1      32.125  65.546   9.631  1.00  0.00    -0.319 N
ATOM     14  H72 UNL     1      31.851  65.527  10.613  1.00  0.00     0.179 HD
ATOM     15  H71 UNL     1      33.061  65.248   9.354  1.00  0.00     0.179 HD
ENDBRANCH  12  13
BRANCH   1  16
HETATM   16  N1  UNL     1      28.658  67.322  11.006  1.00  0.00    -0.343 N
ATOM     17  H12 UNL     1      28.920  67.787  10.137  1.00  0.00     0.176 HD
ATOM     18  H11 UNL     1      28.312  67.899  11.774  1.00  0.00     0.176 HD
ENDBRANCH   1  16
TORSDOF 2
ENDMDL