MODEL 3
REMARK VINA RESULT: -6.557387908      1.881      2.449
REMARK  3 active torsions:
REMARK  status: ('A' for Active; 'I' for Inactive)
REMARK    1  A    between atoms: N1_1  and  N2_4
REMARK       I    between atoms: N2_4  and  C1_5
REMARK    2  A    between atoms: C1_5  and  C2_7
REMARK       I    between atoms: C2_7  and  N3_9
REMARK    3  A    between atoms: N3_9  and  C3_11
ROOT
HETATM    1  C2  UNL     1      29.898  66.301  10.198  1.00  0.00     0.344 C
HETATM    2  O2  UNL     1      29.025  67.203  10.245  1.00  0.00    -0.260 OA
HETATM    3  N3  UNL     1      31.257  66.615   9.992  1.00  0.00    -0.149 N
ATOM      4  H3  UNL     1      31.856  66.885  10.772  1.00  0.00     0.188 HD
ENDROOT
BRANCH   3   5
HETATM    5  C3  UNL     1      31.720  66.552   8.791  1.00  0.00     0.700 A
HETATM    6  N4  UNL     1      30.920  66.612   7.691  1.00  0.00    -0.185 N
HETATM    7  C4  UNL     1      31.678  66.517   6.587  1.00  0.00     0.215 A
ATOM      8  H4  UNL     1      29.905  66.712   7.703  1.00  0.00     0.185 HD
HETATM    9  N5  UNL     1      32.946  66.399   7.036  1.00  0.00    -0.281 N
HETATM   10  N6  UNL     1      32.986  66.419   8.360  1.00  0.00    -0.131 N
ATOM     11  H5  UNL     1      33.765  66.307   6.435  1.00  0.00     0.188 HD
ATOM     12  H6  UNL     1      33.820  66.346   8.942  1.00  0.00     0.205 HD
ENDBRANCH   3   5
BRANCH   1  13
HETATM   13  C1  UNL     1      29.437  64.875  10.369  1.00  0.00     0.403 C
HETATM   14  N2  UNL     1      29.433  64.283  11.572  1.00  0.00    -0.284 NA
HETATM   15  O1  UNL     1      29.082  64.384   9.236  1.00  0.00    -0.244 OA
BRANCH  14  16
HETATM   16  N1  UNL     1      29.430  63.693  12.772  1.00  0.00    -0.276 N
ATOM     17  H12 UNL     1      29.467  64.168  11.871  1.00  0.00     0.191 HD
ATOM     18  H11 UNL     1      29.426  63.243  13.687  1.00  0.00     0.191 HD
ENDBRANCH  14  16
ENDBRANCH   1  13
TORSDOF 3
ENDMDL