MODEL 1
REMARK VINA RESULT: -5.904479873      0.000      0.000
REMARK  3 active torsions:
REMARK  status: ('A' for Active; 'I' for Inactive)
REMARK    1  A    between atoms: N1_1  and  C1_5
REMARK    2  A    between atoms: C1_5  and  N2_6
REMARK    3  A    between atoms: N2_6  and  C2_8
ROOT
HETATM    1  C2  UNL     1      30.076  64.997   9.654  1.00  0.00     0.187 A
HETATM    2  N3  UNL     1      31.406  64.975   9.825  1.00  0.00    -0.277 N
ATOM      3  H3  UNL     1      31.799  64.356  10.533  1.00  0.00     0.189 HD
HETATM    4  N4  UNL     1      32.234  65.731   9.103  1.00  0.00    -0.250 N
ATOM      5  H4  UNL     1      33.243  65.701   9.248  1.00  0.00     0.192 HD
HETATM    6  C3  UNL     1      31.684  66.534   8.176  1.00  0.00     0.341 A
HETATM    7  O1  UNL     1      32.470  67.252   7.490  1.00  0.00    -0.245 OA
HETATM    8  N5  UNL     1      30.355  66.583   7.976  1.00  0.00    -0.271 N
ATOM      9  H5  UNL     1      29.982  67.207   7.261  1.00  0.00     0.174 HD
HETATM   10  C4  UNL     1      29.507  65.828   8.697  1.00  0.00     0.294 A
HETATM   11  O2  UNL     1      28.260  65.871   8.512  1.00  0.00    -0.264 OA
ENDROOT
BRANCH   1  12
HETATM   12  N2  UNL     1      29.284  64.279  10.341  1.00  0.00    -0.348 N
ATOM     13  H2  UNL     1      28.929  63.416   9.926  1.00  0.00     0.163 HD
BRANCH  12  14
HETATM   14  C1  UNL     1      28.865  64.619  11.669  1.00  0.00     0.353 C
BRANCH  14  15
HETATM   15  N1  UNL     1      29.447  63.708  12.648  1.00  0.00    -0.064 N
ATOM     16  H13 UNL     1      28.756  63.048  13.006  1.00  0.00     0.276 HD
ATOM     17  H12 UNL     1      30.084  63.043  12.211  1.00  0.00     0.276 HD
ATOM     18  H11 UNL     1      29.899  64.225  13.402  1.00  0.00     0.276 HD
ENDBRANCH  14  15
ENDBRANCH  12  14
ENDBRANCH   1  12
TORSDOF 3
ENDMDL