MODEL 2
REMARK VINA RESULT: -7.203349610      0.968      1.575
REMARK  4 active torsions:
REMARK  status: ('A' for Active; 'I' for Inactive)
REMARK    1  A    between atoms: C1_2  and  C2_4
REMARK    2  A    between atoms: C5_7  and  C6_8
REMARK    3  A    between atoms: N2_9  and  N3_11
REMARK    4  A    between atoms: N3_11  and  C7_13
ROOT
HETATM    1  C6  UNL     1     -14.463 -27.809 -25.175  1.00  0.00     0.118 C
HETATM    2  N2  UNL     1     -14.182 -28.781 -24.374  1.00  0.00    -0.308 N
ATOM      3  H2  UNL     1     -14.581 -28.832 -23.437  1.00  0.00     0.186 HD
ENDROOT
BRANCH   1   4
HETATM    4  C5  UNL     1     -15.374 -26.783 -24.689  1.00  0.00    -0.018 A
HETATM    5  C4  UNL     1     -16.724 -26.971 -24.840  1.00  0.00     0.014 A
HETATM    6  C3  UNL     1     -17.633 -26.038 -24.402  1.00  0.00     0.019 A
HETATM    7  C2  UNL     1     -17.171 -24.874 -23.790  1.00  0.00     0.053 A
HETATM    8  C11 UNL     1     -15.816 -24.703 -23.648  1.00  0.00     0.062 A
HETATM    9  C10 UNL     1     -14.912 -25.643 -24.090  1.00  0.00     0.040 A
HETATM   10  N6  UNL     1     -15.338 -23.507 -23.019  1.00  0.00    -0.101 NA
BRANCH   7  11
HETATM   11  C1  UNL     1     -18.089 -23.857 -23.310  1.00  0.00     0.266 C
HETATM   12  N1  UNL     1     -18.497 -22.759 -24.138  1.00  0.00    -0.057 NA
HETATM   13  O1  UNL     1     -18.522 -23.961 -22.135  1.00  0.00    -0.271 OA
ENDBRANCH   7  11
ENDBRANCH   1   4
BRANCH   2  14
HETATM   14  N3  UNL     1     -13.307 -29.762 -24.849  1.00  0.00    -0.272 N
ATOM     15  H3  UNL     1     -13.473 -30.742 -24.621  1.00  0.00     0.190 HD
BRANCH  14  16
HETATM   16  C7  UNL     1     -12.176 -29.402 -25.657  1.00  0.00     0.190 C
HETATM   17  N4  UNL     1     -10.976 -29.151 -25.285  1.00  0.00    -0.360 N
HETATM   18  C8  UNL     1     -10.134 -28.829 -26.412  1.00  0.00     0.142 C
ATOM     19  H4  UNL     1     -10.656 -29.176 -24.317  1.00  0.00     0.162 HD
HETATM   20  C9  UNL     1     -11.103 -28.511 -27.504  1.00  0.00     0.142 C
HETATM   21  N5  UNL     1     -12.272 -29.274 -27.072  1.00  0.00    -0.360 N
ATOM     22  H5  UNL     1     -13.012 -29.643 -27.669  1.00  0.00     0.162 HD
ENDBRANCH  14  16
ENDBRANCH   2  14
TORSDOF 4
ENDMDL