MODEL 5
REMARK VINA RESULT: -7.206250592      1.286      1.666
REMARK  3 active torsions:
REMARK  status: ('A' for Active; 'I' for Inactive)
REMARK       I    between atoms: C1_4  and  N3_6
REMARK    1  A    between atoms: N3_6  and  N4_8
REMARK    2  A    between atoms: N4_8  and  C2_10
REMARK    3  A    between atoms: C3_11  and  C4_12
ROOT
HETATM    1  C4  UNL     1     -14.767 -27.683 -26.392  1.00  0.00     0.085 A
HETATM    2  N5  UNL     1     -14.959 -26.925 -25.335  1.00  0.00    -0.337 N
ATOM      3  H5  UNL     1     -14.141 -26.564 -24.845  1.00  0.00     0.167 HD
HETATM    4  C5  UNL     1     -16.239 -26.582 -24.839  1.00  0.00     0.134 A
HETATM    5  N6  UNL     1     -16.649 -25.863 -23.833  1.00  0.00    -0.337 N
ATOM      6  H6  UNL     1     -16.035 -25.382 -23.174  1.00  0.00     0.168 HD
HETATM    7  C6  UNL     1     -18.063 -25.839 -23.778  1.00  0.00     0.182 A
HETATM    8  N7  UNL     1     -18.558 -26.538 -24.743  1.00  0.00    -0.349 N
ATOM      9  H7  UNL     1     -19.548 -26.690 -24.938  1.00  0.00     0.166 HD
HETATM   10  C7  UNL     1     -17.454 -27.060 -25.486  1.00  0.00     0.081 A
HETATM   11  C8  UNL     1     -17.303 -27.818 -26.542  1.00  0.00     0.090 A
HETATM   12  C9  UNL     1     -15.956 -28.170 -27.051  1.00  0.00     0.200 A
HETATM   13  O1  UNL     1     -15.875 -28.900 -28.067  1.00  0.00    -0.286 OA
ENDROOT
BRANCH   1  14
HETATM   14  C3  UNL     1     -13.390 -27.964 -26.803  1.00  0.00     0.052 C
HETATM   15  C2  UNL     1     -12.405 -27.132 -26.893  1.00  0.00     0.109 C
BRANCH  15  16
HETATM   16  N4  UNL     1     -11.107 -27.592 -27.319  1.00  0.00    -0.309 N
ATOM     17  H4  UNL     1     -10.490 -26.952 -27.817  1.00  0.00     0.186 HD
BRANCH  16  18
HETATM   18  N3  UNL     1     -10.679 -28.895 -27.062  1.00  0.00    -0.274 N
HETATM   19  C1  UNL     1     -10.137 -29.279 -25.798  1.00  0.00     0.200 C
HETATM   20  N1  UNL     1     -10.487 -30.342 -25.173  1.00  0.00    -0.372 N
HETATM   21  N2  UNL     1      -9.147 -28.461 -25.156  1.00  0.00    -0.062 NA
ATOM     22  H12 UNL     1     -10.100 -30.615 -24.270  1.00  0.00     0.158 HD
ATOM     23  H11 UNL     1     -11.190 -30.923 -25.629  1.00  0.00     0.158 HD
ATOM     24  H3  UNL     1     -10.755 -29.595 -27.800  1.00  0.00     0.189 HD
ENDBRANCH  16  18
ENDBRANCH  15  16
ENDBRANCH   1  14
TORSDOF 3
ENDMDL