MODEL 1
REMARK VINA RESULT: -6.843574062      0.000      0.000
REMARK  6 active torsions:
REMARK  status: ('A' for Active; 'I' for Inactive)
REMARK    1  A    between atoms: N1_1  and  C1_4
REMARK    2  A    between atoms: C3_9  and  C4_10
REMARK    3  A    between atoms: C5_12  and  N4_13
REMARK       I    between atoms: N4_13  and  C6_15
REMARK    4  A    between atoms: C6_15  and  O3_17
REMARK    5  A    between atoms: O3_17  and  C7_18
REMARK    6  A    between atoms: C7_18  and  C8_19
ROOT
HETATM    1  C1  UNL     1     -14.820 -28.587 -24.490  1.00  0.00     0.678 A
HETATM    2  N2  UNL     1     -15.945 -28.385 -25.198  1.00  0.00    -0.178 N
ATOM      3  H2  UNL     1     -16.813 -28.207 -24.694  1.00  0.00     0.185 HD
HETATM    4  C2  UNL     1     -15.976 -28.407 -26.541  1.00  0.00     0.148 A
HETATM    5  N3  UNL     1     -17.175 -28.191 -27.292  1.00  0.00    -0.081 NA
HETATM    6  C3  UNL     1     -14.766 -28.652 -27.203  1.00  0.00     0.088 A
HETATM    7  C5  UNL     1     -13.602 -28.862 -26.494  1.00  0.00     0.142 A
HETATM    8  N5  UNL     1     -13.671 -28.822 -25.153  1.00  0.00    -0.176 N
ATOM      9  H5  UNL     1     -12.818 -28.976 -24.615  1.00  0.00     0.186 HD
ENDROOT
BRANCH   7  10
HETATM   10  N4  UNL     1     -12.530 -29.081 -27.146  1.00  0.00    -0.287 N
HETATM   11  C6  UNL     1     -11.574 -28.083 -27.477  1.00  0.00     0.366 C
HETATM   12  O2  UNL     1     -11.837 -27.063 -28.137  1.00  0.00    -0.238 OA
ATOM     13  H4  UNL     1     -12.346 -30.037 -27.451  1.00  0.00     0.172 HD
BRANCH  11  14
HETATM   14  O3  UNL     1     -10.279 -28.273 -27.030  1.00  0.00    -0.297 OA
BRANCH  14  15
HETATM   15  C7  UNL     1      -9.884 -28.555 -25.717  1.00  0.00     0.249 C
BRANCH  15  16
HETATM   16  C8  UNL     1      -9.543 -29.988 -25.607  1.00  0.00     0.257 C
HETATM   17  O4  UNL     1      -9.224 -30.476 -24.550  1.00  0.00    -0.305 OA
ENDBRANCH  15  16
ENDBRANCH  14  15
ENDBRANCH  11  14
ENDBRANCH   7  10
BRANCH   6  18
HETATM   18  C4  UNL     1     -14.734 -28.688 -28.646  1.00  0.00     0.277 C
HETATM   19  O1  UNL     1     -14.377 -29.732 -29.240  1.00  0.00    -0.301 OA
ENDBRANCH   6  18
BRANCH   1  20
HETATM   20  N1  UNL     1     -14.828 -28.559 -23.178  1.00  0.00    -0.234 N
ATOM     21  H12 UNL     1     -15.712 -28.605 -22.671  1.00  0.00     0.174 HD
ATOM     22  H11 UNL     1     -13.961 -28.491 -22.646  1.00  0.00     0.174 HD
ENDBRANCH   1  20
TORSDOF 6
ENDMDL