MODEL 1
REMARK VINA RESULT: -7.081263602      0.000      0.000
REMARK  4 active torsions:
REMARK  status: ('A' for Active; 'I' for Inactive)
REMARK    1  A    between atoms: C5_14  and  C6_15
REMARK    2  A    between atoms: C6_15  and  N5_16
REMARK    3  A    between atoms: N6_20  and  C7_21
REMARK    4  A    between atoms: C7_21  and  C8_22
ROOT
HETATM    1  N1  UNL     1     -10.914 -29.684 -25.228  1.00  0.00    -0.383 N
ATOM      2  H11 UNL     1     -11.199 -29.895 -24.271  1.00  0.00     0.157 HD
ATOM      3  H12 UNL     1      -9.970 -29.890 -25.553  1.00  0.00     0.157 HD
HETATM    4  C1  UNL     1     -11.718 -29.149 -26.077  1.00  0.00     0.131 A
HETATM    5  N2  UNL     1     -11.343 -28.870 -27.338  1.00  0.00    -0.337 N
ATOM      6  H2  UNL     1     -10.397 -29.081 -27.655  1.00  0.00     0.168 HD
HETATM    7  C2  UNL     1     -12.243 -28.305 -28.183  1.00  0.00     0.183 A
HETATM    8  N3  UNL     1     -13.489 -28.030 -27.759  1.00  0.00    -0.336 N
ATOM      9  H3  UNL     1     -14.147 -27.605 -28.413  1.00  0.00     0.168 HD
HETATM   10  C3  UNL     1     -13.904 -28.295 -26.499  1.00  0.00     0.141 A
HETATM   11  C4  UNL     1     -13.008 -28.866 -25.632  1.00  0.00     0.122 A
HETATM   12  N4  UNL     1     -13.650 -29.024 -24.474  1.00  0.00    -0.338 N
ATOM     13  H4  UNL     1     -13.243 -29.427 -23.630  1.00  0.00     0.167 HD
HETATM   14  C5  UNL     1     -14.927 -28.569 -24.584  1.00  0.00     0.111 A
HETATM   15  N6  UNL     1     -15.076 -28.121 -25.835  1.00  0.00    -0.314 N
ENDROOT
BRANCH  15  16
HETATM   16  C7  UNL     1     -16.275 -27.566 -26.368  1.00  0.00     0.190 C
BRANCH  16  17
HETATM   17  C8  UNL     1     -17.154 -28.478 -27.086  1.00  0.00     0.044 A
HETATM   18  C9  UNL     1     -18.193 -29.194 -26.544  1.00  0.00     0.115 A
HETATM   19  N7  UNL     1     -18.760 -29.908 -27.514  1.00  0.00    -0.360 N
HETATM   20  C10 UNL     1     -18.120 -29.676 -28.663  1.00  0.00     0.180 A
ATOM     21  H7  UNL     1     -19.558 -30.534 -27.397  1.00  0.00     0.166 HD
HETATM   22  N8  UNL     1     -17.144 -28.800 -28.381  1.00  0.00    -0.353 N
ATOM     23  H8  UNL     1     -16.482 -28.430 -29.064  1.00  0.00     0.166 HD
ENDBRANCH  16  17
ENDBRANCH  15  16
BRANCH  14  24
HETATM   24  C6  UNL     1     -15.912 -28.618 -23.447  1.00  0.00     0.306 C
BRANCH  24  25
HETATM   25  N5  UNL     1     -15.202 -28.231 -22.246  1.00  0.00    -0.073 N
ATOM     26  H53 UNL     1     -14.254 -27.902 -22.431  1.00  0.00     0.274 HD
ATOM     27  H52 UNL     1     -15.560 -27.371 -21.830  1.00  0.00     0.274 HD
ATOM     28  H51 UNL     1     -15.230 -29.025 -21.607  1.00  0.00     0.274 HD
ENDBRANCH  24  25
ENDBRANCH  14  24
TORSDOF 4
ENDMDL