MODEL 4
REMARK VINA RESULT: -6.333440528      1.632      1.875
REMARK  4 active torsions:
REMARK  status: ('A' for Active; 'I' for Inactive)
REMARK    1  A    between atoms: N1_1  and  C1_5
REMARK    2  A    between atoms: C1_5  and  C2_6
REMARK    3  A    between atoms: C2_6  and  N2_7
REMARK    4  A    between atoms: N4_18  and  N5_19
ROOT
HETATM    1  N2  UNL     1     -16.150 -28.491 -25.223  1.00  0.00    -0.323 N
HETATM    2  C3  UNL     1     -17.049 -28.134 -26.190  1.00  0.00     0.085 A
HETATM    3  S1  UNL     1     -18.751 -27.708 -25.900  1.00  0.00    -0.033 SA
HETATM    4  C4  UNL     1     -16.455 -28.152 -27.422  1.00  0.00     0.059 A
HETATM    5  C5  UNL     1     -15.143 -28.534 -27.195  1.00  0.00     0.081 A
HETATM    6  C6  UNL     1     -14.057 -28.730 -28.036  1.00  0.00     0.263 A
HETATM    7  O1  UNL     1     -14.231 -28.540 -29.263  1.00  0.00    -0.267 OA
HETATM    8  N3  UNL     1     -12.888 -29.111 -27.491  1.00  0.00    -0.273 N
ATOM      9  H3  UNL     1     -12.085 -29.258 -28.103  1.00  0.00     0.173 HD
HETATM   10  C7  UNL     1     -12.740 -29.305 -26.173  1.00  0.00     0.349 A
HETATM   11  O2  UNL     1     -11.643 -29.660 -25.688  1.00  0.00    -0.244 OA
HETATM   12  N4  UNL     1     -13.802 -29.114 -25.339  1.00  0.00    -0.194 N
HETATM   13  C8  UNL     1     -14.980 -28.736 -25.848  1.00  0.00     0.150 A
ENDROOT
BRANCH   1  14
HETATM   14  C2  UNL     1     -16.473 -28.567 -23.828  1.00  0.00     0.158 C
BRANCH  14  15
HETATM   15  C1  UNL     1     -16.315 -27.205 -23.150  1.00  0.00     0.249 C
BRANCH  15  16
HETATM   16  N1  UNL     1     -15.532 -27.302 -21.950  1.00  0.00    -0.078 N
ATOM     17  H13 UNL     1     -15.519 -26.419 -21.441  1.00  0.00     0.274 HD
ATOM     18  H12 UNL     1     -15.994 -27.882 -21.249  1.00  0.00     0.274 HD
ATOM     19  H11 UNL     1     -14.588 -27.635 -22.145  1.00  0.00     0.274 HD
ENDBRANCH  15  16
ENDBRANCH  14  15
ENDBRANCH   1  14
BRANCH  12  20
HETATM   20  N5  UNL     1     -13.671 -29.310 -23.968  1.00  0.00    -0.333 N
ATOM     21  H52 UNL     1     -13.054 -30.042 -23.618  1.00  0.00     0.177 HD
ATOM     22  H51 UNL     1     -14.186 -28.728 -23.308  1.00  0.00     0.177 HD
ENDBRANCH  12  20
TORSDOF 4
ENDMDL