MODEL 2
REMARK VINA RESULT: -7.810073204      1.866      2.141
REMARK  3 active torsions:
REMARK  status: ('A' for Active; 'I' for Inactive)
REMARK    1  A    between atoms: C2_7  and  C3_8
REMARK    2  A    between atoms: N3_9  and  N4_11
REMARK    3  A    between atoms: N4_11  and  C4_13
ROOT
HETATM    1  C3  UNL     1     -14.249 -28.328 -27.290  1.00  0.00     0.143 C
HETATM    2  N3  UNL     1     -15.218 -28.042 -26.499  1.00  0.00    -0.308 N
ATOM      3  H3  UNL     1     -15.031 -28.003 -25.497  1.00  0.00     0.186 HD
ENDROOT
BRANCH   1   4
HETATM    4  C2  UNL     1     -12.905 -28.598 -26.823  1.00  0.00     0.133 A
HETATM    5  N2  UNL     1     -12.637 -29.515 -25.896  1.00  0.00    -0.290 N
HETATM    6  N1  UNL     1     -11.411 -29.771 -25.461  1.00  0.00    -0.251 N
ATOM      7  H2  UNL     1     -13.413 -30.047 -25.501  1.00  0.00     0.187 HD
HETATM    8  C1  UNL     1     -10.411 -29.052 -26.003  1.00  0.00     0.341 A
ATOM      9  H1  UNL     1     -11.234 -30.479 -24.749  1.00  0.00     0.191 HD
HETATM   10  O1  UNL     1      -9.228 -29.276 -25.606  1.00  0.00    -0.245 OA
HETATM   11  N6  UNL     1     -10.615 -28.101 -26.954  1.00  0.00    -0.272 N
HETATM   12  C9  UNL     1     -11.866 -27.878 -27.360  1.00  0.00     0.279 A
ATOM     13  H6  UNL     1      -9.835 -27.573 -27.346  1.00  0.00     0.173 HD
HETATM   14  O2  UNL     1     -12.098 -27.015 -28.230  1.00  0.00    -0.265 OA
ENDBRANCH   1   4
BRANCH   2  15
HETATM   15  N4  UNL     1     -16.498 -27.784 -26.938  1.00  0.00    -0.286 N
ATOM     16  H4  UNL     1     -16.807 -26.818 -27.043  1.00  0.00     0.188 HD
BRANCH  15  17
HETATM   17  C4  UNL     1     -17.394 -28.838 -27.248  1.00  0.00     0.119 A
HETATM   18  C5  UNL     1     -17.575 -29.184 -28.569  1.00  0.00     0.050 A
HETATM   19  C6  UNL     1     -18.448 -30.210 -28.867  1.00  0.00     0.005 A
HETATM   20  C7  UNL     1     -19.114 -30.859 -27.835  1.00  0.00     0.017 A
HETATM   21  C8  UNL     1     -18.918 -30.496 -26.521  1.00  0.00     0.089 A
HETATM   22  N5  UNL     1     -18.061 -29.493 -26.263  1.00  0.00    -0.351 N
ATOM     23  H5  UNL     1     -17.907 -29.215 -25.294  1.00  0.00     0.166 HD
ENDBRANCH  15  17
ENDBRANCH   2  15
TORSDOF 3
ENDMDL