MODEL 2
REMARK VINA RESULT: -7.165902455      1.433      1.711
REMARK  3 active torsions:
REMARK  status: ('A' for Active; 'I' for Inactive)
REMARK       I    between atoms: C1_4  and  N3_6
REMARK    1  A    between atoms: N3_6  and  S1_8
REMARK    2  A    between atoms: S1_8  and  C2_11
REMARK    3  A    between atoms: C6_18  and  C7_19
ROOT
HETATM    1  C2  UNL     1     -13.087 -28.013 -27.156  1.00  0.00     0.109 A
HETATM    2  C3  UNL     1     -13.229 -27.394 -25.930  1.00  0.00     0.031 A
HETATM    3  C4  UNL     1     -14.494 -27.204 -25.420  1.00  0.00     0.047 A
HETATM    4  C5  UNL     1     -15.606 -27.625 -26.121  1.00  0.00     0.116 A
HETATM    5  N4  UNL     1     -16.901 -27.422 -25.583  1.00  0.00    -0.083 NA
HETATM    6  N5  UNL     1     -15.406 -28.208 -27.283  1.00  0.00    -0.341 N
ATOM      7  H5  UNL     1     -16.229 -28.518 -27.799  1.00  0.00     0.167 HD
HETATM    8  C6  UNL     1     -14.175 -28.434 -27.859  1.00  0.00     0.095 A
ENDROOT
BRANCH   1   9
HETATM    9  S1  UNL     1     -11.491 -28.251 -27.806  1.00  0.00     0.267 S
HETATM   10  O1  UNL     1     -10.661 -27.000 -27.664  1.00  0.00    -0.200 OA
HETATM   11  O2  UNL     1     -11.567 -28.698 -29.267  1.00  0.00    -0.200 OA
BRANCH   9  12
HETATM   12  N3  UNL     1     -10.608 -29.491 -27.008  1.00  0.00    -0.254 N
HETATM   13  C1  UNL     1      -9.977 -29.271 -25.766  1.00  0.00     0.195 C
HETATM   14  N1  UNL     1      -9.639 -28.141 -25.260  1.00  0.00    -0.373 N
HETATM   15  N2  UNL     1      -9.651 -30.422 -24.931  1.00  0.00    -0.063 NA
ATOM     16  H12 UNL     1      -9.183 -27.982 -24.362  1.00  0.00     0.158 HD
ATOM     17  H11 UNL     1      -9.867 -27.336 -25.844  1.00  0.00     0.158 HD
ATOM     18  H3  UNL     1     -10.539 -30.411 -27.445  1.00  0.00     0.181 HD
ENDBRANCH   9  12
ENDBRANCH   1   9
BRANCH   8  19
HETATM   19  C7  UNL     1     -14.156 -29.106 -29.150  1.00  0.00     0.289 C
HETATM   20  O3  UNL     1     -14.485 -30.260 -29.418  1.00  0.00    -0.300 OA
ENDBRANCH   8  19
TORSDOF 3
ENDMDL