MODEL 4
REMARK VINA RESULT: -7.367242201      2.973      6.465
REMARK  5 active torsions:
REMARK  status: ('A' for Active; 'I' for Inactive)
REMARK    1  A    between atoms: N1_1  and  N2_4
REMARK       I    between atoms: N2_4  and  C1_6
REMARK    2  A    between atoms: C1_6  and  C2_8
REMARK    3  A    between atoms: C6_12  and  C7_13
REMARK    4  A    between atoms: N3_14  and  N4_16
REMARK    5  A    between atoms: N4_16  and  C8_18
ROOT
HETATM    1  C2  UNL     1     -13.145 -27.833 -26.862  1.00  0.00     0.034 A
HETATM    2  C3  UNL     1     -13.961 -28.406 -27.810  1.00  0.00     0.017 A
HETATM    3  C4  UNL     1     -15.339 -28.409 -27.732  1.00  0.00     0.002 A
HETATM    4  C5  UNL     1     -15.938 -27.799 -26.633  1.00  0.00     0.013 A
HETATM    5  C6  UNL     1     -15.151 -27.216 -25.665  1.00  0.00    -0.018 A
HETATM    6  C11 UNL     1     -13.755 -27.235 -25.783  1.00  0.00     0.030 A
ENDROOT
BRANCH   5   7
HETATM    7  C7  UNL     1     -15.773 -26.579 -24.517  1.00  0.00     0.118 C
HETATM    8  N3  UNL     1     -15.354 -26.884 -23.344  1.00  0.00    -0.308 N
ATOM      9  H3  UNL     1     -14.599 -27.561 -23.230  1.00  0.00     0.186 HD
BRANCH   8  10
HETATM   10  N4  UNL     1     -15.930 -26.290 -22.234  1.00  0.00    -0.272 N
ATOM     11  H4  UNL     1     -16.939 -26.332 -22.088  1.00  0.00     0.190 HD
BRANCH  10  12
HETATM   12  C8  UNL     1     -15.079 -25.611 -21.288  1.00  0.00     0.190 C
HETATM   13  N5  UNL     1     -14.273 -26.149 -20.449  1.00  0.00    -0.360 N
HETATM   14  C9  UNL     1     -13.562 -25.189 -19.641  1.00  0.00     0.142 C
ATOM     15  H5  UNL     1     -14.146 -27.157 -20.363  1.00  0.00     0.162 HD
HETATM   16  C10 UNL     1     -13.857 -23.850 -20.286  1.00  0.00     0.142 C
HETATM   17  N6  UNL     1     -14.987 -24.204 -21.122  1.00  0.00    -0.360 N
ATOM     18  H6  UNL     1     -15.631 -23.530 -21.536  1.00  0.00     0.162 HD
ENDBRANCH  10  12
ENDBRANCH   8  10
ENDBRANCH   5   7
BRANCH   1  19
HETATM   19  C1  UNL     1     -11.698 -27.862 -27.001  1.00  0.00     0.269 C
HETATM   20  N2  UNL     1     -10.835 -28.080 -25.917  1.00  0.00    -0.272 N
ATOM     21  H2  UNL     1     -11.224 -28.227 -24.986  1.00  0.00     0.189 HD
HETATM   22  O1  UNL     1     -11.196 -27.680 -28.155  1.00  0.00    -0.266 OA
BRANCH  20  23
HETATM   23  N1  UNL     1      -9.438 -28.100 -26.096  1.00  0.00    -0.342 N
ATOM     24  H12 UNL     1      -9.067 -28.406 -26.996  1.00  0.00     0.176 HD
ATOM     25  H11 UNL     1      -8.809 -27.817 -25.345  1.00  0.00     0.176 HD
ENDBRANCH  20  23
ENDBRANCH   1  19
TORSDOF 5
ENDMDL