MODEL 3
REMARK VINA RESULT: -6.301184160      1.705      2.363
REMARK  5 active torsions:
REMARK  status: ('A' for Active; 'I' for Inactive)
REMARK    1  A    between atoms: N1_1  and  C1_4
REMARK    2  A    between atoms: N5_15  and  C5_16
REMARK    3  A    between atoms: C5_16  and  C6_17
REMARK    4  A    between atoms: C6_17  and  O2_18
REMARK    5  A    between atoms: O2_18  and  C7_19
ROOT
HETATM    1  C1  UNL     1     -12.092 -27.813 -27.031  1.00  0.00     0.134 A
HETATM    2  N2  UNL     1     -10.758 -27.971 -26.940  1.00  0.00    -0.293 N
ATOM      3  H2  UNL     1     -10.139 -27.468 -27.575  1.00  0.00     0.172 HD
HETATM    4  C2  UNL     1     -10.249 -28.792 -26.011  1.00  0.00     0.327 A
HETATM    5  O1  UNL     1      -9.002 -28.940 -25.926  1.00  0.00    -0.247 OA
HETATM    6  N3  UNL     1     -11.097 -29.440 -25.189  1.00  0.00    -0.292 N
ATOM      7  H3  UNL     1     -10.699 -30.063 -24.485  1.00  0.00     0.172 HD
HETATM    8  C3  UNL     1     -12.427 -29.317 -25.239  1.00  0.00     0.141 A
HETATM    9  N4  UNL     1     -13.490 -29.806 -24.585  1.00  0.00    -0.336 N
ATOM     10  H4  UNL     1     -13.452 -30.468 -23.810  1.00  0.00     0.168 HD
HETATM   11  C4  UNL     1     -14.605 -29.293 -25.108  1.00  0.00     0.185 A
HETATM   12  N5  UNL     1     -14.284 -28.442 -26.132  1.00  0.00    -0.335 N
HETATM   13  C8  UNL     1     -12.964 -28.469 -26.196  1.00  0.00     0.124 A
ENDROOT
BRANCH  12  14
HETATM   14  C5  UNL     1     -15.285 -27.763 -26.871  1.00  0.00     0.157 C
BRANCH  14  15
HETATM   15  C6  UNL     1     -16.583 -27.846 -26.089  1.00  0.00     0.200 C
BRANCH  15  16
HETATM   16  O2  UNL     1     -17.044 -26.641 -25.591  1.00  0.00    -0.305 OA
BRANCH  16  17
HETATM   17  C7  UNL     1     -16.780 -26.071 -24.377  1.00  0.00     0.372 C
HETATM   18  N6  UNL     1     -17.144 -24.705 -24.195  1.00  0.00    -0.032 NA
HETATM   19  O3  UNL     1     -16.240 -26.763 -23.495  1.00  0.00    -0.242 OA
ENDBRANCH  16  17
ENDBRANCH  15  16
ENDBRANCH  14  15
ENDBRANCH  12  14
BRANCH   1  20
HETATM   20  N1  UNL     1     -12.569 -27.030 -27.912  1.00  0.00    -0.383 N
ATOM     21  H12 UNL     1     -11.944 -26.670 -28.633  1.00  0.00     0.157 HD
ATOM     22  H11 UNL     1     -13.558 -26.784 -27.881  1.00  0.00     0.157 HD
ENDBRANCH   1  20
TORSDOF 5
ENDMDL