MODEL 1
REMARK VINA RESULT: -7.231914128      0.000      0.000
REMARK  4 active torsions:
REMARK  status: ('A' for Active; 'I' for Inactive)
REMARK    1  A    between atoms: N1_1  and  C1_4
REMARK    2  A    between atoms: N5_16  and  C6_17
REMARK    3  A    between atoms: C6_17  and  C7_18
REMARK    4  A    between atoms: C7_18  and  C8_19
ROOT
HETATM    1  C1  UNL     1     -11.376 -29.217 -25.944  1.00  0.00     0.134 A
HETATM    2  N2  UNL     1     -10.914 -28.572 -27.023  1.00  0.00    -0.293 N
ATOM      3  H2  UNL     1      -9.943 -28.683 -27.314  1.00  0.00     0.172 HD
HETATM    4  C2  UNL     1     -11.747 -27.775 -27.719  1.00  0.00     0.327 A
HETATM    5  O1  UNL     1     -11.269 -27.190 -28.725  1.00  0.00    -0.247 OA
HETATM    6  N3  UNL     1     -13.029 -27.639 -27.322  1.00  0.00    -0.292 N
ATOM      7  H3  UNL     1     -13.649 -27.033 -27.858  1.00  0.00     0.172 HD
HETATM    8  C3  UNL     1     -13.519 -28.279 -26.236  1.00  0.00     0.143 A
HETATM    9  C4  UNL     1     -12.679 -29.099 -25.511  1.00  0.00     0.122 A
HETATM   10  N4  UNL     1     -13.401 -29.610 -24.496  1.00  0.00    -0.346 N
ATOM     11  H4  UNL     1     -13.043 -30.255 -23.791  1.00  0.00     0.167 HD
HETATM   12  C5  UNL     1     -14.662 -29.147 -24.548  1.00  0.00     0.185 A
HETATM   13  N5  UNL     1     -14.708 -28.335 -25.621  1.00  0.00    -0.327 N
ENDROOT
BRANCH  13  14
HETATM   14  C6  UNL     1     -15.883 -27.613 -26.061  1.00  0.00     0.137 C
BRANCH  14  15
HETATM   15  C7  UNL     1     -16.752 -27.257 -24.895  1.00  0.00     0.078 C
BRANCH  15  16
HETATM   16  C8  UNL     1     -16.383 -25.873 -24.441  1.00  0.00     0.027 A
HETATM   17  C9  UNL     1     -17.200 -24.932 -23.872  1.00  0.00     0.114 A
HETATM   18  N6  UNL     1     -16.465 -23.835 -23.619  1.00  0.00    -0.360 N
HETATM   19  C10 UNL     1     -15.213 -24.068 -24.016  1.00  0.00     0.180 A
ATOM     20  H6  UNL     1     -16.807 -22.972 -23.196  1.00  0.00     0.166 HD
HETATM   21  N7  UNL     1     -15.160 -25.320 -24.520  1.00  0.00    -0.355 N
ATOM     22  H7  UNL     1     -14.328 -25.773 -24.899  1.00  0.00     0.166 HD
ENDBRANCH  15  16
ENDBRANCH  14  15
ENDBRANCH  13  14
BRANCH   1  23
HETATM   23  N1  UNL     1     -10.606 -30.003 -25.234  1.00  0.00    -0.383 N
ATOM     24  H12 UNL     1      -9.622 -30.024 -25.502  1.00  0.00     0.157 HD
ATOM     25  H11 UNL     1     -10.976 -30.556 -24.462  1.00  0.00     0.157 HD
ENDBRANCH   1  23
TORSDOF 4
ENDMDL