MODEL 3
REMARK VINA RESULT: -7.497801819      0.948      8.406
REMARK  18 active torsions:
REMARK  status: ('A' for Active; 'I' for Inactive)
REMARK    1  A    between atoms: N1_1  and  C1_5
REMARK    2  A    between atoms: C1_5  and  C2_6
REMARK    3  A    between atoms: C2_6  and  C3_7
REMARK    4  A    between atoms: C3_7  and  C4_8
REMARK    5  A    between atoms: C4_8  and  C5_9
REMARK    6  A    between atoms: C5_9  and  C6_10
REMARK    7  A    between atoms: C6_10  and  C7_11
REMARK    8  A    between atoms: C7_11  and  C8_12
REMARK    9  A    between atoms: C8_12  and  C9_13
REMARK   10  A    between atoms: C9_13  and  C10_14
REMARK   11  A    between atoms: C10_14  and  C11_15
REMARK   12  A    between atoms: C11_15  and  C12_16
REMARK   13  A    between atoms: C12_16  and  C13_17
REMARK   14  A    between atoms: C13_17  and  C14_18
REMARK   15  A    between atoms: C14_18  and  C15_19
REMARK   16  A    between atoms: C15_19  and  C16_20
REMARK   17  A    between atoms: C19_23  and  C20_24
REMARK   18  A    between atoms: C20_24  and  N2_25
ROOT
HETATM    1  C11 UNL     1     -15.354   5.800   0.237  1.00  0.00     0.000 C
ENDROOT
BRANCH   1   2
HETATM    2  C10 UNL     1     -14.952   4.452   0.663  1.00  0.00     0.000 C
BRANCH   2   3
HETATM    3  C9  UNL     1     -15.932   3.424   0.093  1.00  0.00     0.000 C
BRANCH   3   4
HETATM    4  C8  UNL     1     -16.550   2.626   1.169  1.00  0.00     0.000 C
BRANCH   4   5
HETATM    5  C7  UNL     1     -15.462   2.216   2.166  1.00  0.00     0.000 C
BRANCH   5   6
HETATM    6  C6  UNL     1     -16.050   2.014   3.519  1.00  0.00     0.000 C
BRANCH   6   7
HETATM    7  C5  UNL     1     -15.746   0.581   3.926  1.00  0.00     0.000 C
BRANCH   7   8
HETATM    8  C4  UNL     1     -16.788  -0.007   4.836  1.00  0.00     0.000 C
BRANCH   8   9
HETATM    9  C3  UNL     1     -16.592  -1.494   4.955  1.00  0.00     0.002 C
BRANCH   9  10
HETATM   10  C2  UNL     1     -15.343  -1.818   5.751  1.00  0.00     0.027 C
BRANCH  10  11
HETATM   11  C1  UNL     1     -14.760  -3.154   5.335  1.00  0.00     0.229 C
BRANCH  11  12
HETATM   12  N1  UNL     1     -15.839  -3.973   4.843  1.00  0.00    -0.079 N
ATOM     13  H13 UNL     1     -15.519  -4.865   4.469  1.00  0.00     0.274 HD
ATOM     14  H12 UNL     1     -16.426  -4.343   5.590  1.00  0.00     0.274 HD
ATOM     15  H11 UNL     1     -16.364  -3.423   4.163  1.00  0.00     0.274 HD
ENDBRANCH  11  12
ENDBRANCH  10  11
ENDBRANCH   9  10
ENDBRANCH   8   9
ENDBRANCH   7   8
ENDBRANCH   6   7
ENDBRANCH   5   6
ENDBRANCH   4   5
ENDBRANCH   3   4
ENDBRANCH   2   3
ENDBRANCH   1   2
BRANCH   1  16
HETATM   16  C12 UNL     1     -14.316   6.596  -0.456  1.00  0.00     0.000 C
BRANCH  16  17
HETATM   17  C13 UNL     1     -13.462   6.001  -1.468  1.00  0.00     0.000 C
BRANCH  17  18
HETATM   18  C14 UNL     1     -13.947   5.178  -2.573  1.00  0.00     0.000 C
BRANCH  18  19
HETATM   19  C15 UNL     1     -13.557   3.736  -2.592  1.00  0.00     0.005 C
BRANCH  19  20
HETATM   20  C16 UNL     1     -12.118   3.505  -2.203  1.00  0.00    -0.014 C
HETATM   21  C17 UNL     1     -11.521   2.538  -3.205  1.00  0.00     0.005 C
HETATM   22  C18 UNL     1     -10.698   1.562  -2.431  1.00  0.00     0.007 C
HETATM   23  C19 UNL     1     -10.829   1.847  -0.973  1.00  0.00     0.011 C
HETATM   24  C21 UNL     1     -11.962   2.842  -0.862  1.00  0.00     0.011 C
BRANCH  23  25
HETATM   25  C20 UNL     1      -9.591   2.519  -0.398  1.00  0.00     0.234 C
BRANCH  25  26
HETATM   26  N2  UNL     1      -8.626   2.643  -1.449  1.00  0.00    -0.079 N
ATOM     27  H23 UNL     1      -9.022   2.467  -2.372  1.00  0.00     0.274 HD
ATOM     28  H22 UNL     1      -8.336   3.608  -1.607  1.00  0.00     0.274 HD
ATOM     29  H21 UNL     1      -7.842   2.027  -1.233  1.00  0.00     0.274 HD
ENDBRANCH  25  26
ENDBRANCH  23  25
ENDBRANCH  19  20
ENDBRANCH  18  19
ENDBRANCH  17  18
ENDBRANCH  16  17
ENDBRANCH   1  16
TORSDOF 18
ENDMDL