MODEL 4
REMARK VINA RESULT: -7.696228216      1.478      1.727
REMARK  17 active torsions:
REMARK  status: ('A' for Active; 'I' for Inactive)
REMARK    1  A    between atoms: C3_3  and  C4_4
REMARK    2  A    between atoms: C4_4  and  C5_5
REMARK    3  A    between atoms: C5_5  and  C6_6
REMARK    4  A    between atoms: C6_6  and  C7_7
REMARK    5  A    between atoms: C7_7  and  C8_8
REMARK    6  A    between atoms: C8_8  and  C9_9
REMARK    7  A    between atoms: C9_9  and  C10_10
REMARK    8  A    between atoms: C10_10  and  C11_11
REMARK    9  A    between atoms: C11_11  and  C12_12
REMARK   10  A    between atoms: C12_12  and  C13_13
REMARK   11  A    between atoms: C13_13  and  C14_14
REMARK   12  A    between atoms: C14_14  and  C15_15
REMARK   13  A    between atoms: C15_15  and  C16_16
REMARK   14  A    between atoms: C16_16  and  C17_17
REMARK   15  A    between atoms: C17_17  and  C18_18
REMARK   16  A    between atoms: C18_18  and  N1_19
REMARK   17  A    between atoms: N1_19  and  C19_21
ROOT
HETATM    1  C1  UNL     1      -9.750   2.249  -0.345  1.00  0.00     0.012 C
HETATM    2  C2  UNL     1     -10.145   2.206  -1.483  1.00  0.00    -0.117 C
HETATM    3  C3  UNL     1     -10.651   2.165  -2.877  1.00  0.00     0.093 C
ENDROOT
BRANCH   3   4
HETATM    4  C4  UNL     1     -12.129   2.484  -2.816  1.00  0.00     0.012 C
BRANCH   4   5
HETATM    5  C5  UNL     1     -12.439   3.648  -1.920  1.00  0.00     0.001 C
BRANCH   5   6
HETATM    6  C6  UNL     1     -12.181   4.977  -2.592  1.00  0.00     0.000 C
BRANCH   6   7
HETATM    7  C7  UNL     1     -12.926   6.079  -1.870  1.00  0.00     0.000 C
BRANCH   7   8
HETATM    8  C8  UNL     1     -14.355   5.676  -1.566  1.00  0.00     0.000 C
BRANCH   8   9
HETATM    9  C9  UNL     1     -14.619   6.049  -0.146  1.00  0.00     0.000 C
BRANCH   9  10
HETATM   10  C10 UNL     1     -15.296   5.029   0.678  1.00  0.00     0.000 C
BRANCH  10  11
HETATM   11  C11 UNL     1     -15.445   3.677   0.093  1.00  0.00     0.000 C
BRANCH  11  12
HETATM   12  C12 UNL     1     -15.024   2.566   1.017  1.00  0.00     0.000 C
BRANCH  12  13
HETATM   13  C13 UNL     1     -16.091   2.173   1.994  1.00  0.00     0.000 C
BRANCH  13  14
HETATM   14  C14 UNL     1     -15.551   1.409   3.175  1.00  0.00     0.000 C
BRANCH  14  15
HETATM   15  C15 UNL     1     -16.633   0.811   4.031  1.00  0.00     0.000 C
BRANCH  15  16
HETATM   16  C16 UNL     1     -16.031   0.024   5.191  1.00  0.00     0.002 C
BRANCH  16  17
HETATM   17  C17 UNL     1     -16.301  -1.439   5.071  1.00  0.00     0.020 C
BRANCH  17  18
HETATM   18  C18 UNL     1     -15.163  -2.288   4.661  1.00  0.00     0.121 C
BRANCH  18  19
HETATM   19  N1  UNL     1     -14.474  -3.033   5.646  1.00  0.00    -0.380 N
ATOM     20  H1  UNL     1     -13.839  -2.536   6.270  1.00  0.00     0.160 HD
BRANCH  19  21
HETATM   21  C19 UNL     1     -14.621  -4.443   5.815  1.00  0.00     0.072 C
HETATM   22  N2  UNL     1     -13.635  -5.263   5.852  1.00  0.00    -0.380 N
HETATM   23  C20 UNL     1     -14.064  -6.640   6.036  1.00  0.00     0.121 C
ATOM     24  H2  UNL     1     -12.659  -4.981   5.761  1.00  0.00     0.160 HD
HETATM   25  C21 UNL     1     -15.424  -6.449   6.747  1.00  0.00     0.027 C
HETATM   26  C22 UNL     1     -15.873  -5.193   5.997  1.00  0.00     0.077 C
ENDBRANCH  19  21
ENDBRANCH  18  19
ENDBRANCH  17  18
ENDBRANCH  16  17
ENDBRANCH  15  16
ENDBRANCH  14  15
ENDBRANCH  13  14
ENDBRANCH  12  13
ENDBRANCH  11  12
ENDBRANCH  10  11
ENDBRANCH   9  10
ENDBRANCH   8   9
ENDBRANCH   7   8
ENDBRANCH   6   7
ENDBRANCH   5   6
ENDBRANCH   4   5
ENDBRANCH   3   4
TORSDOF 17
ENDMDL