MODEL 2
REMARK VINA RESULT: -7.733136262      1.783      3.139
REMARK  16 active torsions:
REMARK  status: ('A' for Active; 'I' for Inactive)
REMARK    1  A    between atoms: C2_3  and  N2_4
REMARK    2  A    between atoms: N2_4  and  C3_7
REMARK    3  A    between atoms: C3_7  and  C4_8
REMARK    4  A    between atoms: C4_8  and  C5_9
REMARK    5  A    between atoms: C5_9  and  C6_10
REMARK    6  A    between atoms: C6_10  and  C7_11
REMARK    7  A    between atoms: C7_11  and  C8_12
REMARK    8  A    between atoms: C8_12  and  C9_13
REMARK    9  A    between atoms: C9_13  and  C10_14
REMARK   10  A    between atoms: C10_14  and  C11_15
REMARK   11  A    between atoms: C11_15  and  C12_16
REMARK   12  A    between atoms: C12_16  and  C13_17
REMARK   13  A    between atoms: C13_17  and  C14_18
REMARK   14  A    between atoms: C14_18  and  C15_19
REMARK   15  A    between atoms: C15_19  and  C16_20
REMARK   16  A    between atoms: C16_20  and  C17_21
ROOT
HETATM    1  N1  UNL     1     -16.756  -1.568   9.831  1.00  0.00    -0.196 NA
HETATM    2  C1  UNL     1     -16.475  -2.337   9.025  1.00  0.00     0.086 C
HETATM    3  C2  UNL     1     -16.113  -3.303   8.007  1.00  0.00     0.355 C
ENDROOT
BRANCH   3   4
HETATM    4  N2  UNL     1     -15.505  -2.660   6.852  1.00  0.00    -0.063 N
ATOM      5  H22 UNL     1     -14.658  -2.156   7.115  1.00  0.00     0.278 HD
ATOM      6  H21 UNL     1     -15.096  -3.348   6.220  1.00  0.00     0.278 HD
BRANCH   4   7
HETATM    7  C3  UNL     1     -16.423  -1.804   6.161  1.00  0.00     0.233 C
BRANCH   7   8
HETATM    8  C4  UNL     1     -15.691  -1.063   5.072  1.00  0.00     0.027 C
BRANCH   8   9
HETATM    9  C5  UNL     1     -16.353   0.216   4.687  1.00  0.00     0.002 C
BRANCH   9  10
HETATM   10  C6  UNL     1     -15.648   0.925   3.564  1.00  0.00     0.000 C
BRANCH  10  11
HETATM   11  C7  UNL     1     -16.443   2.130   3.172  1.00  0.00     0.000 C
BRANCH  11  12
HETATM   12  C8  UNL     1     -16.438   2.340   1.641  1.00  0.00     0.000 C
BRANCH  12  13
HETATM   13  C9  UNL     1     -15.019   2.611   1.283  1.00  0.00     0.000 C
BRANCH  13  14
HETATM   14  C10 UNL     1     -14.590   4.001   1.170  1.00  0.00     0.000 C
BRANCH  14  15
HETATM   15  C11 UNL     1     -15.295   4.953   0.288  1.00  0.00     0.000 C
BRANCH  15  16
HETATM   16  C12 UNL     1     -14.759   6.302   0.068  1.00  0.00     0.000 C
BRANCH  16  17
HETATM   17  C13 UNL     1     -14.400   6.526  -1.395  1.00  0.00     0.000 C
BRANCH  17  18
HETATM   18  C14 UNL     1     -13.194   5.753  -1.770  1.00  0.00     0.000 C
BRANCH  18  19
HETATM   19  C15 UNL     1     -13.506   4.706  -2.843  1.00  0.00     0.005 C
BRANCH  19  20
HETATM   20  C16 UNL     1     -13.332   3.352  -2.263  1.00  0.00     0.038 C
BRANCH  20  21
HETATM   21  C17 UNL     1     -11.988   2.977  -1.848  1.00  0.00    -0.058 A
HETATM   22  C18 UNL     1     -10.959   2.948  -2.777  1.00  0.00     0.007 A
HETATM   23  C19 UNL     1      -9.669   2.584  -2.410  1.00  0.00     0.001 A
HETATM   24  C20 UNL     1      -9.434   2.251  -1.095  1.00  0.00     0.000 A
HETATM   25  C21 UNL     1     -10.443   2.271  -0.142  1.00  0.00     0.001 A
HETATM   26  C22 UNL     1     -11.725   2.642  -0.550  1.00  0.00     0.007 A
ENDBRANCH  20  21
ENDBRANCH  19  20
ENDBRANCH  18  19
ENDBRANCH  17  18
ENDBRANCH  16  17
ENDBRANCH  15  16
ENDBRANCH  14  15
ENDBRANCH  13  14
ENDBRANCH  12  13
ENDBRANCH  11  12
ENDBRANCH  10  11
ENDBRANCH   9  10
ENDBRANCH   8   9
ENDBRANCH   7   8
ENDBRANCH   4   7
ENDBRANCH   3   4
TORSDOF 16
ENDMDL