MODEL 1
REMARK VINA RESULT: -8.088082423      0.000      0.000
REMARK  16 active torsions:
REMARK  status: ('A' for Active; 'I' for Inactive)
REMARK    1  A    between atoms: C1_1  and  C2_2
REMARK    2  A    between atoms: C1_1  and  C12_15
REMARK    3  A    between atoms: C2_2  and  C3_3
REMARK    4  A    between atoms: C3_3  and  C4_4
REMARK    5  A    between atoms: C4_4  and  C5_5
REMARK    6  A    between atoms: C5_5  and  C6_6
REMARK    7  A    between atoms: C6_6  and  C7_7
REMARK    8  A    between atoms: C7_7  and  N1_8
REMARK    9  A    between atoms: N1_8  and  C8_11
REMARK   10  A    between atoms: C8_11  and  C9_12
REMARK   11  A    between atoms: C12_15  and  C13_16
REMARK   12  A    between atoms: C13_16  and  C14_17
REMARK   13  A    between atoms: C14_17  and  C15_18
REMARK   14  A    between atoms: C15_18  and  C16_19
REMARK   15  A    between atoms: C16_19  and  C17_20
REMARK   16  A    between atoms: C17_20  and  C18_21
ROOT
HETATM    1  C1  UNL     1     -16.641   2.624   1.109  1.00  0.00     0.000 C
ENDROOT
BRANCH   1   2
HETATM    2  C2  UNL     1     -16.058   3.384  -0.047  1.00  0.00     0.000 C
BRANCH   2   3
HETATM    3  C3  UNL     1     -14.763   4.080   0.358  1.00  0.00     0.000 C
BRANCH   3   4
HETATM    4  C4  UNL     1     -14.960   5.545   0.012  1.00  0.00     0.000 C
BRANCH   4   5
HETATM    5  C5  UNL     1     -13.900   6.009  -0.906  1.00  0.00     0.002 C
BRANCH   5   6
HETATM    6  C6  UNL     1     -13.801   5.307  -2.206  1.00  0.00     0.027 C
BRANCH   6   7
HETATM    7  C7  UNL     1     -12.525   4.578  -2.398  1.00  0.00     0.232 C
BRANCH   7   8
HETATM    8  N1  UNL     1     -12.542   3.367  -3.133  1.00  0.00    -0.075 N
ATOM      9  H12 UNL     1     -13.443   2.896  -3.054  1.00  0.00     0.277 HD
ATOM     10  H11 UNL     1     -12.540   3.541  -4.138  1.00  0.00     0.277 HD
BRANCH   8  11
HETATM   11  C8  UNL     1     -11.446   2.486  -2.746  1.00  0.00     0.237 C
BRANCH  11  12
HETATM   12  C9  UNL     1     -10.847   2.914  -1.434  1.00  0.00     0.011 A
HETATM   13  C10 UNL     1     -10.433   1.925  -0.421  1.00  0.00     0.007 A
HETATM   14  C11 UNL     1      -9.390   2.657  -1.189  1.00  0.00     0.007 A
ENDBRANCH  11  12
ENDBRANCH   8  11
ENDBRANCH   7   8
ENDBRANCH   6   7
ENDBRANCH   5   6
ENDBRANCH   4   5
ENDBRANCH   3   4
ENDBRANCH   2   3
ENDBRANCH   1   2
BRANCH   1  15
HETATM   15  C12 UNL     1     -15.569   2.239   2.077  1.00  0.00     0.000 C
BRANCH  15  16
HETATM   16  C13 UNL     1     -16.067   2.023   3.459  1.00  0.00     0.000 C
BRANCH  16  17
HETATM   17  C14 UNL     1     -15.802   0.648   3.958  1.00  0.00     0.000 C
BRANCH  17  18
HETATM   18  C15 UNL     1     -17.092   0.053   4.544  1.00  0.00     0.000 C
BRANCH  18  19
HETATM   19  C16 UNL     1     -16.714  -0.908   5.635  1.00  0.00     0.002 C
BRANCH  19  20
HETATM   20  C17 UNL     1     -15.410  -1.573   5.490  1.00  0.00     0.033 C
BRANCH  20  21
HETATM   21  C18 UNL     1     -15.366  -2.954   4.976  1.00  0.00     0.186 C
HETATM   22  C19 UNL     1     -16.457  -3.888   5.365  1.00  0.00     0.034 C
HETATM   23  C20 UNL     1     -15.680  -5.180   5.675  1.00  0.00     0.029 C
HETATM   24  C21 UNL     1     -14.423  -4.609   6.290  1.00  0.00     0.233 C
HETATM   25  N2  UNL     1     -14.088  -3.566   5.338  1.00  0.00    -0.071 N
ATOM     26  H22 UNL     1     -13.548  -3.896   4.539  1.00  0.00     0.277 HD
ATOM     27  H21 UNL     1     -13.395  -2.901   5.682  1.00  0.00     0.277 HD
ENDBRANCH  20  21
ENDBRANCH  19  20
ENDBRANCH  18  19
ENDBRANCH  17  18
ENDBRANCH  16  17
ENDBRANCH  15  16
ENDBRANCH   1  15
TORSDOF 16
ENDMDL