MODEL 3
REMARK VINA RESULT: -7.591059974      1.657      2.780
REMARK  18 active torsions:
REMARK  status: ('A' for Active; 'I' for Inactive)
REMARK    1  A    between atoms: N1_1  and  C1_5
REMARK    2  A    between atoms: C1_5  and  C2_6
REMARK    3  A    between atoms: C2_6  and  C3_7
REMARK    4  A    between atoms: C3_7  and  C4_8
REMARK    5  A    between atoms: C4_8  and  C5_9
REMARK    6  A    between atoms: C5_9  and  C6_10
REMARK    7  A    between atoms: C6_10  and  C7_11
REMARK    8  A    between atoms: C7_11  and  C8_12
REMARK    9  A    between atoms: C8_12  and  C9_13
REMARK   10  A    between atoms: C9_13  and  C10_14
REMARK   11  A    between atoms: C10_14  and  C11_15
REMARK   12  A    between atoms: C11_15  and  C12_16
REMARK   13  A    between atoms: C12_16  and  C13_17
REMARK   14  A    between atoms: C13_17  and  C14_18
REMARK   15  A    between atoms: C14_18  and  C15_19
REMARK   16  A    between atoms: C15_19  and  C16_20
REMARK   17  A    between atoms: C16_20  and  C17_21
REMARK   18  A    between atoms: C17_21  and  N2_22
ROOT
HETATM    1  C11 UNL     1     -15.685   2.565   1.462  1.00  0.00     0.000 C
ENDROOT
BRANCH   1   2
HETATM    2  C10 UNL     1     -16.252   2.238   2.771  1.00  0.00     0.000 C
BRANCH   2   3
HETATM    3  C9  UNL     1     -15.737   1.109   3.579  1.00  0.00     0.000 C
BRANCH   3   4
HETATM    4  C8  UNL     1     -16.813   0.363   4.341  1.00  0.00     0.000 C
BRANCH   4   5
HETATM    5  C7  UNL     1     -16.123  -0.443   5.432  1.00  0.00     0.000 C
BRANCH   5   6
HETATM    6  C6  UNL     1     -16.342  -1.899   5.098  1.00  0.00     0.000 C
BRANCH   6   7
HETATM    7  C5  UNL     1     -15.024  -2.640   5.085  1.00  0.00     0.000 C
BRANCH   7   8
HETATM    8  C4  UNL     1     -14.679  -3.159   6.466  1.00  0.00     0.000 C
BRANCH   8   9
HETATM    9  C3  UNL     1     -13.194  -3.309   6.662  1.00  0.00     0.002 C
BRANCH   9  10
HETATM   10  C2  UNL     1     -12.869  -4.562   7.429  1.00  0.00     0.027 C
BRANCH  10  11
HETATM   11  C1  UNL     1     -11.376  -4.784   7.543  1.00  0.00     0.229 C
BRANCH  11  12
HETATM   12  N1  UNL     1     -10.631  -3.897   6.696  1.00  0.00    -0.079 N
ATOM     13  H13 UNL     1      -9.656  -4.189   6.623  1.00  0.00     0.274 HD
ATOM     14  H12 UNL     1     -10.906  -4.003   5.719  1.00  0.00     0.274 HD
ATOM     15  H11 UNL     1     -10.704  -2.926   6.997  1.00  0.00     0.274 HD
ENDBRANCH  11  12
ENDBRANCH  10  11
ENDBRANCH   9  10
ENDBRANCH   8   9
ENDBRANCH   7   8
ENDBRANCH   6   7
ENDBRANCH   5   6
ENDBRANCH   4   5
ENDBRANCH   3   4
ENDBRANCH   2   3
ENDBRANCH   1   2
BRANCH   1  16
HETATM   16  C12 UNL     1     -14.682   3.620   1.315  1.00  0.00     0.000 C
BRANCH  16  17
HETATM   17  C13 UNL     1     -14.830   4.654   0.271  1.00  0.00     0.000 C
BRANCH  17  18
HETATM   18  C14 UNL     1     -13.894   4.410  -0.917  1.00  0.00     0.001 C
BRANCH  18  19
HETATM   19  C15 UNL     1     -12.910   3.355  -0.571  1.00  0.00     0.015 C
BRANCH  19  20
HETATM   20  C16 UNL     1     -11.878   3.155  -1.688  1.00  0.00     0.001 C
HETATM   21  C18 UNL     1     -11.024   4.368  -1.756  1.00  0.00    -0.019 C
HETATM   22  C19 UNL     1      -9.783   4.096  -1.413  1.00  0.00    -0.030 C
HETATM   23  C20 UNL     1      -9.596   2.672  -1.060  1.00  0.00     0.028 C
HETATM   24  C21 UNL     1     -10.940   2.032  -1.410  1.00  0.00     0.019 C
BRANCH  20  25
HETATM   25  C17 UNL     1     -12.642   3.009  -2.970  1.00  0.00     0.243 C
BRANCH  25  26
HETATM   26  N2  UNL     1     -11.948   2.231  -3.961  1.00  0.00    -0.078 N
ATOM     27  H23 UNL     1     -10.945   2.417  -3.931  1.00  0.00     0.274 HD
ATOM     28  H22 UNL     1     -11.944   1.243  -3.708  1.00  0.00     0.274 HD
ATOM     29  H21 UNL     1     -12.313   2.362  -4.905  1.00  0.00     0.274 HD
ENDBRANCH  25  26
ENDBRANCH  20  25
ENDBRANCH  19  20
ENDBRANCH  18  19
ENDBRANCH  17  18
ENDBRANCH  16  17
ENDBRANCH   1  16
TORSDOF 18
ENDMDL