MODEL 4
REMARK VINA RESULT: -7.740783745      1.836     10.045
REMARK  18 active torsions:
REMARK  status: ('A' for Active; 'I' for Inactive)
REMARK    1  A    between atoms: N1_1  and  C1_5
REMARK    2  A    between atoms: C1_5  and  C2_6
REMARK    3  A    between atoms: C2_6  and  C3_7
REMARK    4  A    between atoms: C3_7  and  C4_8
REMARK    5  A    between atoms: C4_8  and  C5_9
REMARK    6  A    between atoms: C5_9  and  C6_10
REMARK    7  A    between atoms: C6_10  and  C7_11
REMARK    8  A    between atoms: C7_11  and  C8_12
REMARK    9  A    between atoms: C8_12  and  C9_13
REMARK   10  A    between atoms: C9_13  and  C10_14
REMARK   11  A    between atoms: C10_14  and  C11_15
REMARK   12  A    between atoms: C11_15  and  C12_16
REMARK   13  A    between atoms: C12_16  and  C13_17
REMARK   14  A    between atoms: C13_17  and  C14_18
REMARK   15  A    between atoms: C14_18  and  C15_19
REMARK   16  A    between atoms: C15_19  and  N2_20
REMARK   17  A    between atoms: N2_20  and  C16_23
REMARK   18  A    between atoms: C16_23  and  C17_24
ROOT
HETATM    1  C11 UNL     1     -15.182   3.196   1.732  1.00  0.00     0.000 C
ENDROOT
BRANCH   1   2
HETATM    2  C10 UNL     1     -15.874   1.934   2.169  1.00  0.00     0.000 C
BRANCH   2   3
HETATM    3  C9  UNL     1     -16.003   1.908   3.669  1.00  0.00     0.000 C
BRANCH   3   4
HETATM    4  C8  UNL     1     -15.852   0.520   4.229  1.00  0.00     0.000 C
BRANCH   4   5
HETATM    5  C7  UNL     1     -17.143  -0.112   4.624  1.00  0.00     0.000 C
BRANCH   5   6
HETATM    6  C6  UNL     1     -17.178  -0.535   6.070  1.00  0.00     0.000 C
BRANCH   6   7
HETATM    7  C5  UNL     1     -16.064   0.103   6.862  1.00  0.00     0.000 C
BRANCH   7   8
HETATM    8  C4  UNL     1     -15.235  -0.879   7.620  1.00  0.00     0.000 C
BRANCH   8   9
HETATM    9  C3  UNL     1     -15.545  -2.306   7.220  1.00  0.00     0.002 C
BRANCH   9  10
HETATM   10  C2  UNL     1     -14.379  -2.946   6.499  1.00  0.00     0.027 C
BRANCH  10  11
HETATM   11  C1  UNL     1     -14.595  -2.934   5.013  1.00  0.00     0.229 C
BRANCH  11  12
HETATM   12  N1  UNL     1     -15.820  -3.604   4.694  1.00  0.00    -0.079 N
ATOM     13  H13 UNL     1     -15.927  -3.751   3.690  1.00  0.00     0.274 HD
ATOM     14  H12 UNL     1     -15.809  -4.581   4.986  1.00  0.00     0.274 HD
ATOM     15  H11 UNL     1     -16.607  -3.094   5.093  1.00  0.00     0.274 HD
ENDBRANCH  11  12
ENDBRANCH  10  11
ENDBRANCH   9  10
ENDBRANCH   8   9
ENDBRANCH   7   8
ENDBRANCH   6   7
ENDBRANCH   5   6
ENDBRANCH   4   5
ENDBRANCH   3   4
ENDBRANCH   2   3
ENDBRANCH   1   2
BRANCH   1  16
HETATM   16  C12 UNL     1     -14.497   3.068   0.413  1.00  0.00     0.000 C
BRANCH  16  17
HETATM   17  C13 UNL     1     -15.031   4.116  -0.535  1.00  0.00     0.002 C
BRANCH  17  18
HETATM   18  C14 UNL     1     -14.960   5.512   0.000  1.00  0.00     0.027 C
BRANCH  18  19
HETATM   19  C15 UNL     1     -14.199   6.398  -0.968  1.00  0.00     0.232 C
BRANCH  19  20
HETATM   20  N2  UNL     1     -13.608   5.632  -2.022  1.00  0.00    -0.071 N
ATOM     21  H22 UNL     1     -14.008   4.696  -2.076  1.00  0.00     0.277 HD
ATOM     22  H21 UNL     1     -13.890   5.975  -2.940  1.00  0.00     0.277 HD
BRANCH  20  23
HETATM   23  C16 UNL     1     -12.183   5.591  -1.887  1.00  0.00     0.270 C
BRANCH  23  24
HETATM   24  C17 UNL     1     -11.647   4.207  -2.074  1.00  0.00    -0.033 A
HETATM   25  C18 UNL     1     -12.251   3.282  -2.901  1.00  0.00     0.009 A
HETATM   26  C19 UNL     1     -11.737   2.001  -3.062  1.00  0.00     0.001 A
HETATM   27  C20 UNL     1     -10.590   1.624  -2.382  1.00  0.00     0.000 A
HETATM   28  C21 UNL     1      -9.974   2.545  -1.548  1.00  0.00     0.001 A
HETATM   29  C22 UNL     1     -10.506   3.814  -1.407  1.00  0.00     0.009 A
ENDBRANCH  23  24
ENDBRANCH  20  23
ENDBRANCH  19  20
ENDBRANCH  18  19
ENDBRANCH  17  18
ENDBRANCH  16  17
ENDBRANCH   1  16
TORSDOF 18
ENDMDL