MODEL 5
REMARK VINA RESULT: -8.230317934      1.222      2.037
REMARK  15 active torsions:
REMARK  status: ('A' for Active; 'I' for Inactive)
REMARK    1  A    between atoms: C2_2  and  C3_3
REMARK    2  A    between atoms: C3_3  and  N1_4
REMARK    3  A    between atoms: N1_4  and  C4_6
REMARK    4  A    between atoms: C4_6  and  C5_7
REMARK    5  A    between atoms: C5_7  and  C6_8
REMARK    6  A    between atoms: C6_8  and  C7_9
REMARK    7  A    between atoms: C7_9  and  C8_10
REMARK    8  A    between atoms: C8_10  and  C9_11
REMARK    9  A    between atoms: C9_11  and  C10_12
REMARK   10  A    between atoms: C10_12  and  C11_13
REMARK   11  A    between atoms: C11_13  and  C12_14
REMARK   12  A    between atoms: C12_14  and  C13_15
REMARK   13  A    between atoms: C13_15  and  C14_16
REMARK   14  A    between atoms: C14_16  and  N2_17
REMARK   15  A    between atoms: N2_17  and  C15_19
ROOT
HETATM    1  C11 UNL     1     -16.242   2.230   1.693  1.00  0.00     0.000 C
ENDROOT
BRANCH   1   2
HETATM    2  C10 UNL     1     -15.034   2.681   0.959  1.00  0.00     0.000 C
BRANCH   2   3
HETATM    3  C9  UNL     1     -14.549   4.057   1.284  1.00  0.00     0.000 C
BRANCH   3   4
HETATM    4  C8  UNL     1     -14.902   5.100   0.246  1.00  0.00     0.000 C
BRANCH   4   5
HETATM    5  C7  UNL     1     -14.428   4.586  -1.095  1.00  0.00     0.000 C
BRANCH   5   6
HETATM    6  C6  UNL     1     -13.560   5.562  -1.836  1.00  0.00     0.002 C
BRANCH   6   7
HETATM    7  C5  UNL     1     -12.269   4.910  -2.277  1.00  0.00     0.019 C
BRANCH   7   8
HETATM    8  C4  UNL     1     -12.582   3.472  -2.748  1.00  0.00     0.114 C
BRANCH   8   9
HETATM    9  N1  UNL     1     -11.454   2.890  -3.392  1.00  0.00    -0.418 N
ATOM     10  H1  UNL     1     -11.065   3.276  -4.253  1.00  0.00     0.153 HD
BRANCH   9  11
HETATM   11  C3  UNL     1     -10.905   1.746  -2.769  1.00  0.00     0.140 C
BRANCH  11  12
HETATM   12  C2  UNL     1     -10.555   1.875  -1.339  1.00  0.00    -0.018 C
HETATM   13  C1  UNL     1      -9.492   2.501  -0.887  1.00  0.00     0.008 C
ENDBRANCH  11  12
ENDBRANCH   9  11
ENDBRANCH   8   9
ENDBRANCH   7   8
ENDBRANCH   6   7
ENDBRANCH   5   6
ENDBRANCH   4   5
ENDBRANCH   3   4
ENDBRANCH   2   3
ENDBRANCH   1   2
BRANCH   1  14
HETATM   14  C12 UNL     1     -16.149   2.195   3.164  1.00  0.00     0.005 C
BRANCH  14  15
HETATM   15  C13 UNL     1     -15.819   0.856   3.762  1.00  0.00     0.044 C
BRANCH  15  16
HETATM   16  C14 UNL     1     -16.942   0.233   4.513  1.00  0.00     0.056 C
BRANCH  16  17
HETATM   17  N2  UNL     1     -16.975  -1.135   4.702  1.00  0.00    -0.398 N
ATOM     18  H2  UNL     1     -17.616  -1.669   4.116  1.00  0.00     0.159 HD
BRANCH  17  19
HETATM   19  C15 UNL     1     -16.209  -1.850   5.623  1.00  0.00     0.080 C
HETATM   20  C16 UNL     1     -15.858  -1.161   6.895  1.00  0.00     0.025 C
HETATM   21  C17 UNL     1     -15.941  -1.881   8.166  1.00  0.00     0.002 C
HETATM   22  C18 UNL     1     -16.196  -3.333   8.196  1.00  0.00     0.000 C
HETATM   23  C19 UNL     1     -15.051  -4.246   7.941  1.00  0.00     0.000 C
HETATM   24  C20 UNL     1     -14.159  -3.930   6.808  1.00  0.00     0.000 C
HETATM   25  C21 UNL     1     -14.875  -3.979   5.475  1.00  0.00     0.002 C
HETATM   26  C22 UNL     1     -15.050  -2.544   4.942  1.00  0.00     0.025 C
ENDBRANCH  17  19
ENDBRANCH  16  17
ENDBRANCH  15  16
ENDBRANCH  14  15
ENDBRANCH   1  14
TORSDOF 15
ENDMDL