MODEL 4
REMARK VINA RESULT: -6.382231206      1.638      2.175
REMARK  15 active torsions:
REMARK  status: ('A' for Active; 'I' for Inactive)
REMARK    1  A    between atoms: C3_3  and  O1_4
REMARK    2  A    between atoms: C4_6  and  O2_7
REMARK    3  A    between atoms: C5_9  and  O3_10
REMARK    4  A    between atoms: O3_10  and  N1_11
REMARK    5  A    between atoms: C6_17  and  N3_18
REMARK    6  A    between atoms: N4_22  and  O4_23
REMARK    7  A    between atoms: O4_23  and  C7_24
REMARK    8  A    between atoms: C7_24  and  C8_25
REMARK    9  A    between atoms: C8_25  and  C9_26
REMARK   10  A    between atoms: C9_26  and  N5_27
REMARK   11  A    between atoms: N5_27  and  C10_29
REMARK   12  A    between atoms: C10_29  and  C11_30
REMARK   13  A    between atoms: C11_30  and  C12_31
REMARK   14  A    between atoms: C12_31  and  C13_32
REMARK   15  A    between atoms: C13_32  and  N6_33
ROOT
HETATM    1  C1  UNL     1      34.314  48.971  16.820  1.00  0.00     0.037 C
HETATM    2  C2  UNL     1      33.818  49.886  17.946  1.00  0.00     0.140 C
HETATM    3  C3  UNL     1      33.814  48.947  19.169  1.00  0.00     0.175 C
HETATM    4  C4  UNL     1      33.314  49.637  20.387  1.00  0.00     0.208 C
HETATM    5  C5  UNL     1      34.512  50.202  21.184  1.00  0.00     0.385 C
HETATM    6  N2  UNL     1      35.508  50.491  20.227  1.00  0.00     0.004 N
ATOM      7  H21 UNL     1      35.807  49.641  19.751  1.00  0.00     0.285 HD
ATOM      8  H22 UNL     1      36.383  50.747  20.684  1.00  0.00     0.285 HD
HETATM    9  C6  UNL     1      35.127  51.476  19.295  1.00  0.00     0.507 C
HETATM   10  N4  UNL     1      34.462  51.006  18.071  1.00  0.00    -0.233 N
ENDROOT
BRANCH  10  11
HETATM   11  O4  UNL     1      34.458  52.086  17.348  1.00  0.00    -0.279 OA
BRANCH  11  12
HETATM   12  C7  UNL     1      35.541  52.270  16.534  1.00  0.00     0.206 C
BRANCH  12  13
HETATM   13  C8  UNL     1      34.854  52.808  15.241  1.00  0.00     0.073 C
BRANCH  13  14
HETATM   14  C9  UNL     1      34.572  51.740  14.276  1.00  0.00     0.057 C
BRANCH  14  15
HETATM   15  N5  UNL     1      33.650  52.064  13.262  1.00  0.00    -0.402 N
ATOM     16  H5  UNL     1      33.052  52.886  13.344  1.00  0.00     0.158 HD
BRANCH  15  17
HETATM   17  C10 UNL     1      33.571  51.224  12.126  1.00  0.00     0.118 C
BRANCH  17  18
HETATM   18  C11 UNL     1      34.925  50.522  11.847  1.00  0.00     0.021 C
BRANCH  18  19
HETATM   19  C12 UNL     1      34.654  49.563  10.691  1.00  0.00     0.029 C
BRANCH  19  20
HETATM   20  C13 UNL     1      33.341  49.725  10.003  1.00  0.00     0.229 C
BRANCH  20  21
HETATM   21  N6  UNL     1      33.341  49.605   8.580  1.00  0.00    -0.079 N
ATOM     22  H63 UNL     1      32.386  49.685   8.231  1.00  0.00     0.274 HD
ATOM     23  H62 UNL     1      33.762  50.438   8.167  1.00  0.00     0.274 HD
ATOM     24  H61 UNL     1      33.780  48.771   8.189  1.00  0.00     0.274 HD
ENDBRANCH  20  21
ENDBRANCH  19  20
ENDBRANCH  18  19
ENDBRANCH  17  18
ENDBRANCH  15  17
ENDBRANCH  14  15
ENDBRANCH  13  14
ENDBRANCH  12  13
ENDBRANCH  11  12
ENDBRANCH  10  11
BRANCH   9  25
HETATM   25  N3  UNL     1      34.239  52.538  19.806  1.00  0.00    -0.031 N
ATOM     26  H33 UNL     1      34.624  52.928  20.665  1.00  0.00     0.279 HD
ATOM     27  H32 UNL     1      34.288  53.354  19.196  1.00  0.00     0.279 HD
ATOM     28  H31 UNL     1      33.265  52.273  19.951  1.00  0.00     0.279 HD
ENDBRANCH   9  25
BRANCH   3  29
HETATM   29  O1  UNL     1      35.006  48.275  19.330  1.00  0.00    -0.391 OA
ATOM     30  H1  UNL     1      35.009  47.423  18.908  1.00  0.00     0.210 HD
ENDBRANCH   3  29
BRANCH   4  31
HETATM   31  O2  UNL     1      32.680  48.712  21.209  1.00  0.00    -0.388 OA
ATOM     32  H2  UNL     1      32.993  48.820  22.099  1.00  0.00     0.210 HD
ENDBRANCH   4  31
BRANCH   5  33
HETATM   33  O3  UNL     1      34.114  51.412  21.752  1.00  0.00    -0.251 OA
BRANCH  33  34
HETATM   34  N1  UNL     1      33.264  51.281  22.792  1.00  0.00    -0.309 N
ATOM     35  H12 UNL     1      33.230  50.434  23.361  1.00  0.00     0.184 HD
ATOM     36  H11 UNL     1      32.670  52.095  22.952  1.00  0.00     0.184 HD
ENDBRANCH  33  34
ENDBRANCH   5  33
TORSDOF 15
ENDMDL