MODEL 5
REMARK VINA RESULT: -6.853054776      1.861      2.797
REMARK  13 active torsions:
REMARK  status: ('A' for Active; 'I' for Inactive)
REMARK    1  A    between atoms: N1_2  and  C2_5
REMARK    2  A    between atoms: C2_5  and  C3_6
REMARK    3  A    between atoms: C3_6  and  N2_7
REMARK    4  A    between atoms: N2_7  and  C4_10
REMARK    5  A    between atoms: C4_10  and  C5_11
REMARK    6  A    between atoms: C5_11  and  O1_12
REMARK    7  A    between atoms: O1_12  and  N3_13
REMARK    8  A    between atoms: N3_13  and  C6_15
REMARK    9  A    between atoms: C6_15  and  C7_21
REMARK   10  A    between atoms: N4_16  and  N5_18
REMARK   11  A    between atoms: C8_24  and  N7_25
REMARK   12  A    between atoms: C9_30  and  N9_31
REMARK   13  A    between atoms: C10_34  and  N10_35
ROOT
HETATM    1  C6  UNL     1      34.564  49.739  18.148  1.00  0.00     0.170 C
HETATM    2  N4  UNL     1      34.103  48.552  17.837  1.00  0.00    -0.289 N
ATOM      3  H4  UNL     1      33.761  47.941  18.579  1.00  0.00     0.188 HD
ENDROOT
BRANCH   1   4
HETATM    4  N3  UNL     1      35.027  50.555  17.084  1.00  0.00    -0.247 N
ATOM      5  H3  UNL     1      35.880  51.106  17.180  1.00  0.00     0.196 HD
BRANCH   4   6
HETATM    6  O1  UNL     1      34.317  50.584  15.954  1.00  0.00    -0.277 OA
BRANCH   6   7
HETATM    7  C5  UNL     1      34.948  51.151  14.870  1.00  0.00     0.228 C
BRANCH   7   8
HETATM    8  C4  UNL     1      34.636  52.655  14.954  1.00  0.00     0.261 C
BRANCH   8   9
HETATM    9  N2  UNL     1      35.843  53.406  15.076  1.00  0.00    -0.071 N
ATOM     10  H22 UNL     1      35.972  54.020  14.271  1.00  0.00     0.277 HD
ATOM     11  H21 UNL     1      36.658  52.804  14.959  1.00  0.00     0.277 HD
BRANCH   9  12
HETATM   12  C3  UNL     1      35.928  54.145  16.299  1.00  0.00     0.259 C
BRANCH  12  13
HETATM   13  C2  UNL     1      34.609  54.124  17.022  1.00  0.00     0.259 C
BRANCH  13  14
HETATM   14  N1  UNL     1      34.804  54.088  18.466  1.00  0.00    -0.077 N
HETATM   15  C1  UNL     1      36.092  53.520  18.789  1.00  0.00     0.267 C
ATOM     16  H12 UNL     1      34.045  53.598  18.939  1.00  0.00     0.276 HD
ATOM     17  H11 UNL     1      34.679  55.007  18.889  1.00  0.00     0.276 HD
ENDBRANCH  13  14
ENDBRANCH  12  13
ENDBRANCH   9  12
ENDBRANCH   8   9
ENDBRANCH   7   8
ENDBRANCH   6   7
ENDBRANCH   4   6
ENDBRANCH   1   4
BRANCH   1  18
HETATM   18  C7  UNL     1      34.547  50.108  19.538  1.00  0.00     0.133 A
HETATM   19  N6  UNL     1      35.690  50.107  20.277  1.00  0.00    -0.186 N
HETATM   20  C8  UNL     1      35.669  50.451  21.569  1.00  0.00     0.678 A
ATOM     21  H6  UNL     1      36.573  49.840  19.841  1.00  0.00     0.184 HD
HETATM   22  N8  UNL     1      34.509  50.813  22.174  1.00  0.00    -0.175 N
HETATM   23  C9  UNL     1      33.345  50.837  21.504  1.00  0.00     0.150 A
ATOM     24  H8  UNL     1      34.522  51.072  23.160  1.00  0.00     0.186 HD
HETATM   25  C10 UNL     1      33.377  50.472  20.149  1.00  0.00     0.177 A
BRANCH  20  26
HETATM   26  N7  UNL     1      36.743  50.442  22.242  1.00  0.00    -0.234 N
ATOM     27  H72 UNL     1      37.264  49.570  22.339  1.00  0.00     0.174 HD
ATOM     28  H71 UNL     1      37.077  51.302  22.679  1.00  0.00     0.174 HD
ENDBRANCH  20  26
BRANCH  23  29
HETATM   29  N9  UNL     1      32.231  51.181  22.063  1.00  0.00    -0.383 N
ATOM     30  H92 UNL     1      31.993  50.839  22.994  1.00  0.00     0.157 HD
ATOM     31  H91 UNL     1      31.556  51.793  21.605  1.00  0.00     0.157 HD
ENDBRANCH  23  29
BRANCH  25  32
HETATM   32  N10 UNL     1      32.137  50.499  19.470  1.00  0.00    -0.109 N
HETATM   33  O2  UNL     1      31.650  51.572  19.102  1.00  0.00    -0.532 OA
HETATM   34  O3  UNL     1      31.479  49.327  19.231  1.00  0.00    -0.532 OA
ENDBRANCH  25  32
ENDBRANCH   1  18
BRANCH   2  35
HETATM   35  N5  UNL     1      34.068  48.105  16.525  1.00  0.00    -0.344 N
ATOM     36  H52 UNL     1      34.066  48.802  15.779  1.00  0.00     0.176 HD
ATOM     37  H51 UNL     1      34.044  47.112  16.298  1.00  0.00     0.176 HD
ENDBRANCH   2  35
TORSDOF 13
ENDMDL