MODEL 4
REMARK VINA RESULT: -6.549066880      1.917      5.224
REMARK  13 active torsions:
REMARK  status: ('A' for Active; 'I' for Inactive)
REMARK    1  A    between atoms: N1_2  and  C2_5
REMARK    2  A    between atoms: C2_5  and  C3_6
REMARK    3  A    between atoms: C3_6  and  C4_7
REMARK    4  A    between atoms: C4_7  and  O1_8
REMARK    5  A    between atoms: C6_15  and  C7_16
REMARK    6  A    between atoms: C7_16  and  O3_17
REMARK    7  A    between atoms: C8_19  and  O4_20
REMARK    8  A    between atoms: C9_22  and  O5_23
REMARK    9  A    between atoms: C11_26  and  N3_27
REMARK   10  A    between atoms: N3_27  and  C12_29
REMARK   11  A    between atoms: C12_29  and  C13_30
REMARK   12  A    between atoms: C13_30  and  C14_31
REMARK   13  A    between atoms: C14_31  and  N4_32
ROOT
HETATM    1  C3  UNL     1      35.050  51.964  19.745  1.00  0.00     0.193 C
HETATM    2  N2  UNL     1      36.207  52.820  19.804  1.00  0.00    -0.034 N
ATOM      3  H21 UNL     1      37.058  52.336  20.088  1.00  0.00     0.281 HD
ATOM      4  H22 UNL     1      36.182  53.486  20.576  1.00  0.00     0.281 HD
HETATM    5  C5  UNL     1      36.300  53.442  18.510  1.00  0.00     0.331 C
HETATM    6  O2  UNL     1      37.558  53.872  18.194  1.00  0.00    -0.348 OA
HETATM    7  C6  UNL     1      37.643  54.280  16.895  1.00  0.00     0.179 C
HETATM    8  C8  UNL     1      36.392  54.198  16.088  1.00  0.00     0.178 C
HETATM    9  C9  UNL     1      35.652  52.882  16.251  1.00  0.00     0.159 C
HETATM   10  C10 UNL     1      35.951  52.291  17.586  1.00  0.00     0.098 C
HETATM   11  C11 UNL     1      34.769  51.690  18.298  1.00  0.00     0.127 C
ENDROOT
BRANCH  11  12
HETATM   12  N3  UNL     1      34.598  50.300  18.067  1.00  0.00    -0.414 N
ATOM     13  H3  UNL     1      34.529  49.629  18.832  1.00  0.00     0.153 HD
BRANCH  12  14
HETATM   14  C12 UNL     1      34.529  49.894  16.682  1.00  0.00     0.116 C
BRANCH  14  15
HETATM   15  C13 UNL     1      34.268  48.386  16.694  1.00  0.00     0.046 C
BRANCH  15  16
HETATM   16  C14 UNL     1      34.419  47.896  18.108  1.00  0.00     0.231 C
BRANCH  16  17
HETATM   17  N4  UNL     1      35.652  47.155  18.300  1.00  0.00    -0.079 N
ATOM     18  H43 UNL     1      35.693  46.340  17.689  1.00  0.00     0.274 HD
ATOM     19  H42 UNL     1      36.453  47.670  17.935  1.00  0.00     0.274 HD
ATOM     20  H41 UNL     1      35.794  46.894  19.276  1.00  0.00     0.274 HD
ENDBRANCH  16  17
ENDBRANCH  15  16
ENDBRANCH  14  15
ENDBRANCH  12  14
ENDBRANCH  11  12
BRANCH   1  21
HETATM   21  C2  UNL     1      33.816  52.563  20.367  1.00  0.00     0.275 C
BRANCH  21  22
HETATM   22  N1  UNL     1      32.904  51.584  20.877  1.00  0.00    -0.076 N
HETATM   23  C1  UNL     1      32.456  51.943  22.201  1.00  0.00     0.267 C
ATOM     24  H12 UNL     1      33.306  50.647  20.855  1.00  0.00     0.276 HD
ATOM     25  H11 UNL     1      32.122  51.429  20.241  1.00  0.00     0.276 HD
ENDBRANCH  21  22
ENDBRANCH   1  21
BRANCH   1  26
HETATM   26  C4  UNL     1      35.410  50.724  20.549  1.00  0.00     0.207 C
BRANCH  26  27
HETATM   27  O1  UNL     1      35.700  50.993  21.870  1.00  0.00    -0.398 OA
ATOM     28  H1  UNL     1      35.964  50.225  22.361  1.00  0.00     0.209 HD
ENDBRANCH  26  27
ENDBRANCH   1  26
BRANCH   9  29
HETATM   29  O5  UNL     1      34.297  53.098  16.013  1.00  0.00    -0.392 OA
ATOM     30  H5  UNL     1      34.077  52.746  15.159  1.00  0.00     0.210 HD
ENDBRANCH   9  29
BRANCH   8  31
HETATM   31  O4  UNL     1      36.732  54.395  14.749  1.00  0.00    -0.390 OA
ATOM     32  H4  UNL     1      37.675  54.503  14.700  1.00  0.00     0.210 HD
ENDBRANCH   8  31
BRANCH   7  33
HETATM   33  C7  UNL     1      38.100  55.745  16.858  1.00  0.00     0.198 C
BRANCH  33  34
HETATM   34  O3  UNL     1      37.106  56.581  16.362  1.00  0.00    -0.398 OA
ATOM     35  H3  UNL     1      36.969  57.335  16.923  1.00  0.00     0.209 HD
ENDBRANCH  33  34
ENDBRANCH   7  33
TORSDOF 13
ENDMDL