MODEL 2
REMARK VINA RESULT: -6.796474818      2.159      3.356
REMARK  13 active torsions:
REMARK  status: ('A' for Active; 'I' for Inactive)
REMARK    1  A    between atoms: N1_1  and  C1_4
REMARK    2  A    between atoms: C4_13  and  N5_14
REMARK    3  A    between atoms: N5_14  and  C5_16
REMARK    4  A    between atoms: C5_16  and  C6_17
REMARK    5  A    between atoms: C6_17  and  N6_18
REMARK    6  A    between atoms: N6_18  and  C7_21
REMARK    7  A    between atoms: C7_21  and  C8_22
REMARK    8  A    between atoms: C8_22  and  N7_23
REMARK    9  A    between atoms: N7_23  and  C9_26
REMARK   10  A    between atoms: C9_26  and  C10_27
REMARK   11  A    between atoms: C10_27  and  O1_28
REMARK   12  A    between atoms: N8_31  and  N9_32
REMARK   13  A    between atoms: N9_32  and  C12_34
ROOT
HETATM    1  C1  UNL     1      36.802  55.312  14.699  1.00  0.00     0.699 A
HETATM    2  N2  UNL     1      36.428  54.566  13.630  1.00  0.00    -0.173 N
ATOM      3  H2  UNL     1      36.556  54.819  12.650  1.00  0.00     0.186 HD
HETATM    4  C2  UNL     1      35.861  53.441  14.083  1.00  0.00     0.155 A
HETATM    5  N3  UNL     1      35.322  52.367  13.483  1.00  0.00    -0.336 N
ATOM      6  H3  UNL     1      35.308  52.338  12.464  1.00  0.00     0.168 HD
HETATM    7  C3  UNL     1      34.801  51.332  14.158  1.00  0.00     0.183 A
HETATM    8  N4  UNL     1      34.832  51.396  15.487  1.00  0.00    -0.337 N
ATOM      9  H4  UNL     1      34.439  50.614  16.011  1.00  0.00     0.168 HD
HETATM   10  C4  UNL     1      35.347  52.420  16.184  1.00  0.00     0.135 A
HETATM   11  C11 UNL     1      35.878  53.476  15.493  1.00  0.00     0.162 A
HETATM   12  N8  UNL     1      36.474  54.660  15.823  1.00  0.00    -0.081 N
ENDROOT
BRANCH  10  13
HETATM   13  N5  UNL     1      35.338  52.396  17.444  1.00  0.00    -0.373 N
ATOM     14  H5  UNL     1      36.199  52.108  17.909  1.00  0.00     0.161 HD
BRANCH  13  15
HETATM   15  C5  UNL     1      34.217  52.738  18.289  1.00  0.00     0.148 C
BRANCH  15  16
HETATM   16  C6  UNL     1      34.544  52.611  19.756  1.00  0.00     0.251 C
BRANCH  16  17
HETATM   17  N6  UNL     1      35.694  51.798  19.949  1.00  0.00    -0.072 N
ATOM     18  H62 UNL     1      35.969  51.337  19.081  1.00  0.00     0.277 HD
ATOM     19  H61 UNL     1      36.526  52.368  20.102  1.00  0.00     0.277 HD
BRANCH  17  20
HETATM   20  C7  UNL     1      35.519  50.851  21.001  1.00  0.00     0.259 C
BRANCH  20  21
HETATM   21  C8  UNL     1      34.542  49.745  20.689  1.00  0.00     0.259 C
BRANCH  21  22
HETATM   22  N7  UNL     1      35.004  49.044  19.491  1.00  0.00    -0.072 N
ATOM     23  H72 UNL     1      35.803  49.495  19.047  1.00  0.00     0.277 HD
ATOM     24  H71 UNL     1      35.455  48.153  19.697  1.00  0.00     0.277 HD
BRANCH  22  25
HETATM   25  C9  UNL     1      33.864  48.913  18.610  1.00  0.00     0.258 C
BRANCH  25  26
HETATM   26  C10 UNL     1      34.297  48.290  17.301  1.00  0.00     0.191 C
BRANCH  26  27
HETATM   27  O1  UNL     1      33.567  48.826  16.240  1.00  0.00    -0.399 OA
ATOM     28  H1  UNL     1      32.668  48.986  16.504  1.00  0.00     0.209 HD
ENDBRANCH  26  27
ENDBRANCH  25  26
ENDBRANCH  22  25
ENDBRANCH  21  22
ENDBRANCH  20  21
ENDBRANCH  17  20
ENDBRANCH  16  17
ENDBRANCH  15  16
ENDBRANCH  13  15
ENDBRANCH  10  13
BRANCH  12  29
HETATM   29  N9  UNL     1      36.699  55.073  17.116  1.00  0.00    -0.275 N
ATOM     30  H9  UNL     1      35.957  55.595  17.584  1.00  0.00     0.185 HD
BRANCH  29  31
HETATM   31  C12 UNL     1      37.923  54.816  17.867  1.00  0.00     0.327 A
HETATM   32  N10 UNL     1      38.734  53.716  17.709  1.00  0.00    -0.297 N
HETATM   33  N11 UNL     1      37.901  53.721  18.834  1.00  0.00    -0.093 NA
ATOM     34  H10 UNL     1      39.444  53.234  17.158  1.00  0.00     0.179 HD
ENDBRANCH  29  31
ENDBRANCH  12  29
BRANCH   1  35
HETATM   35  N1  UNL     1      37.365  56.456  14.623  1.00  0.00    -0.233 N
ATOM     36  H12 UNL     1      38.250  56.665  14.161  1.00  0.00     0.174 HD
ATOM     37  H11 UNL     1      36.993  57.312  15.033  1.00  0.00     0.174 HD
ENDBRANCH   1  35
TORSDOF 13
ENDMDL