MODEL 5
REMARK VINA RESULT: -6.389766659      2.037      3.682
REMARK  15 active torsions:
REMARK  status: ('A' for Active; 'I' for Inactive)
REMARK    1  A    between atoms: N1_2  and  N2_4
REMARK    2  A    between atoms: N3_6  and  N4_8
REMARK    3  A    between atoms: N4_8  and  C2_10
REMARK    4  A    between atoms: C2_10  and  C3_11
REMARK    5  A    between atoms: C3_11  and  N5_12
REMARK    6  A    between atoms: N5_12  and  C4_14
REMARK    7  A    between atoms: C4_14  and  C5_15
REMARK    8  A    between atoms: C5_15  and  N6_16
REMARK    9  A    between atoms: N6_16  and  C6_18
REMARK   10  A    between atoms: C8_22  and  C9_23
REMARK   11  A    between atoms: C9_23  and  O1_24
REMARK   12  A    between atoms: C10_26  and  O2_27
REMARK   13  A    between atoms: C10_26  and  C11_29
REMARK   14  A    between atoms: C11_29  and  O3_30
REMARK   15  A    between atoms: C12_32  and  O4_33
ROOT
HETATM    1  C6  UNL     1      35.259  51.961  19.680  1.00  0.00     0.105 C
HETATM    2  N7  UNL     1      35.085  51.081  18.785  1.00  0.00    -0.377 N
ATOM      3  H7  UNL     1      35.776  50.981  18.041  1.00  0.00     0.160 HD
HETATM    4  C7  UNL     1      33.951  50.233  18.796  1.00  0.00     0.131 C
HETATM    5  C8  UNL     1      33.428  49.956  20.204  1.00  0.00     0.067 C
HETATM    6  C10 UNL     1      33.168  51.282  20.883  1.00  0.00     0.118 C
HETATM    7  C12 UNL     1      34.348  52.186  20.773  1.00  0.00     0.222 C
ENDROOT
BRANCH   1   8
HETATM    8  N6  UNL     1      36.449  52.771  19.575  1.00  0.00    -0.376 N
ATOM      9  H6  UNL     1      37.204  52.644  20.249  1.00  0.00     0.160 HD
BRANCH   8  10
HETATM   10  C5  UNL     1      36.584  53.745  18.543  1.00  0.00     0.140 C
BRANCH  10  11
HETATM   11  C4  UNL     1      37.526  54.859  18.770  1.00  0.00     0.133 C
BRANCH  11  12
HETATM   12  N5  UNL     1      37.655  55.843  17.757  1.00  0.00    -0.418 N
ATOM     13  H5  UNL     1      37.217  56.758  17.868  1.00  0.00     0.153 HD
BRANCH  12  14
HETATM   14  C3  UNL     1      38.399  55.541  16.589  1.00  0.00     0.135 C
BRANCH  14  15
HETATM   15  C2  UNL     1      37.643  56.036  15.352  1.00  0.00     0.160 C
BRANCH  15  16
HETATM   16  N4  UNL     1      37.040  54.906  14.696  1.00  0.00    -0.319 N
ATOM     17  H4  UNL     1      37.571  54.371  14.009  1.00  0.00     0.181 HD
BRANCH  16  18
HETATM   18  N3  UNL     1      35.717  54.541  15.003  1.00  0.00    -0.233 N
HETATM   19  N2  UNL     1      34.907  54.489  14.040  1.00  0.00    -0.233 N
ATOM     20  H2  UNL     1      35.270  54.714  13.113  1.00  0.00     0.209 HD
ATOM     21  H3  UNL     1      35.428  54.329  15.957  1.00  0.00     0.209 HD
BRANCH  19  22
HETATM   22  N1  UNL     1      33.575  54.154  14.125  1.00  0.00    -0.325 N
HETATM   23  C1  UNL     1      32.762  53.777  12.981  1.00  0.00     0.169 C
ATOM     24  H1  UNL     1      33.133  54.173  15.044  1.00  0.00     0.181 HD
ENDBRANCH  19  22
ENDBRANCH  16  18
ENDBRANCH  15  16
ENDBRANCH  14  15
ENDBRANCH  12  14
ENDBRANCH  11  12
ENDBRANCH  10  11
ENDBRANCH   8  10
ENDBRANCH   1   8
BRANCH   7  25
HETATM   25  O4  UNL     1      33.905  53.524  20.738  1.00  0.00    -0.385 OA
ATOM     26  H4  UNL     1      33.339  53.684  21.484  1.00  0.00     0.210 HD
ENDBRANCH   7  25
BRANCH   6  27
HETATM   27  O2  UNL     1      32.087  51.867  20.214  1.00  0.00    -0.384 OA
ATOM     28  H2  UNL     1      32.175  52.806  20.328  1.00  0.00     0.210 HD
ENDBRANCH   6  27
BRANCH   6  29
HETATM   29  C11 UNL     1      32.871  51.136  22.356  1.00  0.00     0.205 C
BRANCH  29  30
HETATM   30  O3  UNL     1      33.698  51.814  23.198  1.00  0.00    -0.398 OA
ATOM     31  H3  UNL     1      33.332  52.039  24.046  1.00  0.00     0.209 HD
ENDBRANCH  29  30
ENDBRANCH   6  29
BRANCH   5  32
HETATM   32  C9  UNL     1      32.193  49.124  20.017  1.00  0.00     0.173 C
BRANCH  32  33
HETATM   33  O1  UNL     1      31.430  49.571  18.933  1.00  0.00    -0.400 OA
ATOM     34  H1  UNL     1      31.332  50.516  18.939  1.00  0.00     0.209 HD
ENDBRANCH  32  33
ENDBRANCH   5  32
TORSDOF 15
ENDMDL