MODEL 2
REMARK VINA RESULT: -7.073890178      2.051      2.701
REMARK  13 active torsions:
REMARK  status: ('A' for Active; 'I' for Inactive)
REMARK    1  A    between atoms: N2_4  and  N3_6
REMARK       I    between atoms: N3_6  and  C1_8
REMARK       I    between atoms: C1_8  and  N5_13
REMARK    2  A    between atoms: N4_9  and  O1_11
REMARK    3  A    between atoms: N5_13  and  C2_15
REMARK    4  A    between atoms: C2_15  and  C3_16
REMARK    5  A    between atoms: C5_19  and  C6_20
REMARK    6  A    between atoms: C6_20  and  N6_21
REMARK    7  A    between atoms: N6_21  and  C7_24
REMARK    8  A    between atoms: C7_24  and  C8_25
REMARK    9  A    between atoms: C8_25  and  O3_26
REMARK   10  A    between atoms: O3_26  and  C9_27
REMARK   11  A    between atoms: C9_27  and  C10_28
REMARK   12  A    between atoms: C10_28  and  N7_29
REMARK   13  A    between atoms: C11_36  and  O4_37
ROOT
HETATM    1  C3  UNL     1      33.582  52.250  19.771  1.00  0.00     0.216 C
HETATM    2  O2  UNL     1      33.634  51.497  18.595  1.00  0.00    -0.374 OA
HETATM    3  C4  UNL     1      34.584  52.005  17.710  1.00  0.00     0.203 C
HETATM    4  C5  UNL     1      34.461  53.534  17.653  1.00  0.00     0.238 C
HETATM    5  N8  UNL     1      35.020  54.030  18.878  1.00  0.00    -0.038 N
ATOM      6  H81 UNL     1      34.696  54.975  19.079  1.00  0.00     0.281 HD
ATOM      7  H82 UNL     1      36.018  54.221  18.781  1.00  0.00     0.281 HD
HETATM    8  C11 UNL     1      34.757  53.127  19.994  1.00  0.00     0.353 C
ENDROOT
BRANCH   1   9
HETATM    9  C2  UNL     1      33.366  51.234  20.865  1.00  0.00     0.115 C
BRANCH   9  10
HETATM   10  N5  UNL     1      33.483  49.880  20.509  1.00  0.00    -0.200 N
HETATM   11  C1  UNL     1      34.707  49.234  20.322  1.00  0.00     0.717 C
HETATM   12  N3  UNL     1      35.768  49.306  21.230  1.00  0.00    -0.116 N
HETATM   13  N4  UNL     1      34.886  48.520  19.253  1.00  0.00    -0.097 N
ATOM     14  H3  UNL     1      36.412  48.514  21.235  1.00  0.00     0.207 HD
ATOM     15  H4  UNL     1      35.772  48.038  19.099  1.00  0.00     0.213 HD
ATOM     16  H5  UNL     1      32.628  49.340  20.381  1.00  0.00     0.183 HD
BRANCH  12  17
HETATM   17  N2  UNL     1      36.048  50.332  22.127  1.00  0.00    -0.235 N
HETATM   18  N1  UNL     1      37.188  50.511  22.601  1.00  0.00    -0.330 N
ATOM     19  H12 UNL     1      37.929  49.873  22.311  1.00  0.00     0.178 HD
ATOM     20  H11 UNL     1      37.393  51.263  23.259  1.00  0.00     0.178 HD
ATOM     21  H2  UNL     1      35.294  50.960  22.406  1.00  0.00     0.208 HD
ENDBRANCH  12  17
BRANCH  13  22
HETATM   22  O1  UNL     1      33.889  48.418  18.345  1.00  0.00    -0.276 OA
ATOM     23  H1  UNL     1      34.051  48.667  17.442  1.00  0.00     0.245 HD
ENDBRANCH  13  22
ENDBRANCH   9  10
ENDBRANCH   1   9
BRANCH   8  24
HETATM   24  O4  UNL     1      35.942  52.456  20.266  1.00  0.00    -0.367 OA
ATOM     25  H4  UNL     1      36.711  53.011  20.316  1.00  0.00     0.212 HD
ENDBRANCH   8  24
BRANCH   4  26
HETATM   26  C6  UNL     1      35.129  53.948  16.381  1.00  0.00     0.267 C
BRANCH  26  27
HETATM   27  N6  UNL     1      35.997  52.998  15.800  1.00  0.00    -0.071 N
ATOM     28  H62 UNL     1      36.975  53.206  16.001  1.00  0.00     0.277 HD
ATOM     29  H61 UNL     1      35.936  52.093  16.266  1.00  0.00     0.277 HD
BRANCH  27  30
HETATM   30  C7  UNL     1      35.743  52.891  14.351  1.00  0.00     0.258 C
BRANCH  30  31
HETATM   31  C8  UNL     1      34.975  51.651  14.021  1.00  0.00     0.195 C
BRANCH  31  32
HETATM   32  O3  UNL     1      33.658  51.739  13.884  1.00  0.00    -0.388 OA
BRANCH  32  33
HETATM   33  C9  UNL     1      32.995  52.299  12.879  1.00  0.00     0.195 C
BRANCH  33  34
HETATM   34  C10 UNL     1      32.666  53.770  12.965  1.00  0.00     0.255 C
BRANCH  34  35
HETATM   35  N7  UNL     1      32.151  54.021  14.317  1.00  0.00    -0.077 N
ATOM     36  H73 UNL     1      31.132  54.051  14.358  1.00  0.00     0.274 HD
ATOM     37  H72 UNL     1      32.284  53.230  14.948  1.00  0.00     0.274 HD
ATOM     38  H71 UNL     1      32.590  54.878  14.653  1.00  0.00     0.274 HD
ENDBRANCH  34  35
ENDBRANCH  33  34
ENDBRANCH  32  33
ENDBRANCH  31  32
ENDBRANCH  30  31
ENDBRANCH  27  30
ENDBRANCH  26  27
ENDBRANCH   4  26
TORSDOF 13
ENDMDL