MODEL 1
REMARK VINA RESULT: -6.149668259      0.000      0.000
REMARK  15 active torsions:
REMARK  status: ('A' for Active; 'I' for Inactive)
REMARK    1  A    between atoms: N1_1  and  C1_5
REMARK    2  A    between atoms: C1_5  and  C2_6
REMARK    3  A    between atoms: C2_6  and  C3_7
REMARK    4  A    between atoms: C3_7  and  C4_8
REMARK    5  A    between atoms: C4_8  and  C5_9
REMARK    6  A    between atoms: C5_9  and  N2_10
REMARK    7  A    between atoms: N2_10  and  C6_12
REMARK    8  A    between atoms: C7_15  and  O1_16
REMARK    9  A    between atoms: O1_16  and  C8_17
REMARK   10  A    between atoms: C8_17  and  O2_18
REMARK   11  A    between atoms: O2_18  and  N5_19
REMARK   12  A    between atoms: C9_22  and  O3_23
REMARK   13  A    between atoms: C10_25  and  O4_26
REMARK   14  A    between atoms: C11_28  and  C12_29
REMARK   15  A    between atoms: C12_29  and  O5_30
ROOT
HETATM    1  C6  UNL     1      35.167  52.607  18.670  1.00  0.00     0.196 C
HETATM    2  N3  UNL     1      34.402  52.077  17.525  1.00  0.00    -0.120 NA
HETATM    3  N4  UNL     1      33.906  53.150  16.760  1.00  0.00    -0.111 NA
HETATM    4  C7  UNL     1      34.748  53.361  15.589  1.00  0.00     0.264 C
HETATM    5  C9  UNL     1      36.093  52.732  15.859  1.00  0.00     0.193 C
HETATM    6  C10 UNL     1      36.822  53.387  16.967  1.00  0.00     0.160 C
HETATM    7  C11 UNL     1      36.000  53.736  18.202  1.00  0.00     0.080 C
ENDROOT
BRANCH   1   8
HETATM    8  N2  UNL     1      35.691  51.554  19.403  1.00  0.00    -0.403 N
ATOM      9  H2  UNL     1      36.582  51.159  19.101  1.00  0.00     0.154 HD
BRANCH   8  10
HETATM   10  C5  UNL     1      35.076  50.996  20.531  1.00  0.00     0.115 C
BRANCH  10  11
HETATM   11  C4  UNL     1      34.887  49.481  20.415  1.00  0.00     0.019 C
BRANCH  11  12
HETATM   12  C3  UNL     1      33.391  49.202  20.234  1.00  0.00     0.003 C
BRANCH  12  13
HETATM   13  C2  UNL     1      33.067  49.057  18.760  1.00  0.00     0.027 C
BRANCH  13  14
HETATM   14  C1  UNL     1      34.192  48.369  18.014  1.00  0.00     0.229 C
BRANCH  14  15
HETATM   15  N1  UNL     1      34.554  49.020  16.795  1.00  0.00    -0.079 N
ATOM     16  H13 UNL     1      35.271  49.726  16.962  1.00  0.00     0.274 HD
ATOM     17  H12 UNL     1      35.076  48.387  16.190  1.00  0.00     0.274 HD
ATOM     18  H11 UNL     1      33.762  49.424  16.295  1.00  0.00     0.274 HD
ENDBRANCH  14  15
ENDBRANCH  13  14
ENDBRANCH  12  13
ENDBRANCH  11  12
ENDBRANCH  10  11
ENDBRANCH   8  10
ENDBRANCH   1   8
BRANCH   7  19
HETATM   19  C12 UNL     1      36.965  54.317  19.190  1.00  0.00     0.174 C
BRANCH  19  20
HETATM   20  O5  UNL     1      38.147  53.540  19.272  1.00  0.00    -0.400 OA
ATOM     21  H5  UNL     1      38.889  54.001  18.898  1.00  0.00     0.209 HD
ENDBRANCH  19  20
ENDBRANCH   7  19
BRANCH   6  22
HETATM   22  O4  UNL     1      37.369  54.566  16.464  1.00  0.00    -0.392 OA
ATOM     23  H4  UNL     1      38.180  54.337  16.025  1.00  0.00     0.210 HD
ENDBRANCH   6  22
BRANCH   4  24
HETATM   24  O1  UNL     1      34.954  54.680  15.278  1.00  0.00    -0.339 OA
BRANCH  24  25
HETATM   25  C8  UNL     1      35.245  54.845  13.915  1.00  0.00     0.371 C
BRANCH  25  26
HETATM   26  O2  UNL     1      36.300  55.743  13.755  1.00  0.00    -0.261 OA
BRANCH  26  27
HETATM   27  N5  UNL     1      37.460  55.139  13.443  1.00  0.00    -0.309 N
ATOM     28  H52 UNL     1      37.632  54.716  12.531  1.00  0.00     0.184 HD
ATOM     29  H51 UNL     1      38.135  55.152  14.207  1.00  0.00     0.184 HD
ENDBRANCH  26  27
ENDBRANCH  25  26
ENDBRANCH  24  25
ENDBRANCH   4  24
BRANCH   5  30
HETATM   30  O3  UNL     1      36.065  51.342  15.915  1.00  0.00    -0.389 OA
ATOM     31  H3  UNL     1      36.011  50.922  15.065  1.00  0.00     0.210 HD
ENDBRANCH   5  30
TORSDOF 15
ENDMDL