MODEL 5
REMARK VINA RESULT: -6.367212823      2.882      6.227
REMARK  14 active torsions:
REMARK  status: ('A' for Active; 'I' for Inactive)
REMARK    1  A    between atoms: N1_1  and  C1_5
REMARK    2  A    between atoms: C1_5  and  C2_6
REMARK    3  A    between atoms: C2_6  and  N2_7
REMARK    4  A    between atoms: N2_7  and  C3_9
REMARK    5  A    between atoms: C4_10  and  C5_11
REMARK    6  A    between atoms: C5_11  and  N3_12
REMARK    7  A    between atoms: C6_16  and  N4_17
REMARK    8  A    between atoms: N4_17  and  O1_19
REMARK    9  A    between atoms: O1_19  and  C7_20
REMARK   10  A    between atoms: C8_22  and  C9_23
REMARK   11  A    between atoms: C9_23  and  N5_24
REMARK   12  A    between atoms: C10_29  and  C11_30
REMARK   13  A    between atoms: C11_30  and  O4_31
REMARK   14  A    between atoms: C12_33  and  O5_34
ROOT
HETATM    1  N4  UNL     1      34.413  53.635  18.447  1.00  0.00    -0.292 N
ATOM      2  H4  UNL     1      34.848  54.168  19.201  1.00  0.00     0.188 HD
ENDROOT
BRANCH   1   3
HETATM    3  C6  UNL     1      34.641  54.022  17.104  1.00  0.00     0.136 A
HETATM    4  C3  UNL     1      34.938  53.030  16.067  1.00  0.00     0.109 A
HETATM    5  C4  UNL     1      36.086  53.742  16.602  1.00  0.00     0.062 A
BRANCH   4   6
HETATM    6  N2  UNL     1      34.443  52.995  14.747  1.00  0.00    -0.413 N
ATOM      7  H2  UNL     1      34.754  52.296  14.073  1.00  0.00     0.153 HD
BRANCH   6   8
HETATM    8  C2  UNL     1      33.482  53.991  14.409  1.00  0.00     0.141 C
BRANCH   8   9
HETATM    9  C1  UNL     1      32.866  53.612  13.068  1.00  0.00     0.248 C
BRANCH   9  10
HETATM   10  N1  UNL     1      33.036  52.192  12.866  1.00  0.00    -0.078 N
ATOM     11  H13 UNL     1      33.707  51.784  13.515  1.00  0.00     0.274 HD
ATOM     12  H12 UNL     1      32.217  51.656  13.153  1.00  0.00     0.274 HD
ATOM     13  H11 UNL     1      33.287  52.029  11.890  1.00  0.00     0.274 HD
ENDBRANCH   9  10
ENDBRANCH   8   9
ENDBRANCH   6   8
ENDBRANCH   4   6
BRANCH   5  14
HETATM   14  C5  UNL     1      36.718  54.978  16.067  1.00  0.00     0.238 C
BRANCH  14  15
HETATM   15  N3  UNL     1      37.571  55.694  16.984  1.00  0.00    -0.079 N
ATOM     16  H33 UNL     1      37.052  55.931  17.829  1.00  0.00     0.274 HD
ATOM     17  H32 UNL     1      38.272  55.063  17.372  1.00  0.00     0.274 HD
ATOM     18  H31 UNL     1      38.024  56.527  16.609  1.00  0.00     0.274 HD
ENDBRANCH  14  15
ENDBRANCH   5  14
ENDBRANCH   1   3
BRANCH   1  19
HETATM   19  O1  UNL     1      33.658  52.615  18.740  1.00  0.00    -0.249 OA
BRANCH  19  20
HETATM   20  C7  UNL     1      33.887  52.094  20.012  1.00  0.00     0.322 C
HETATM   21  O2  UNL     1      32.988  51.073  20.326  1.00  0.00    -0.325 OA
HETATM   22  C8  UNL     1      33.440  49.802  20.215  1.00  0.00     0.289 C
HETATM   23  O3  UNL     1      34.683  49.558  20.737  1.00  0.00    -0.349 OA
HETATM   24  C10 UNL     1      35.285  50.645  21.321  1.00  0.00     0.181 C
HETATM   25  C12 UNL     1      35.311  51.768  20.283  1.00  0.00     0.206 C
BRANCH  22  26
HETATM   26  C9  UNL     1      33.300  49.275  18.776  1.00  0.00     0.290 C
BRANCH  26  27
HETATM   27  N5  UNL     1      34.575  48.757  18.310  1.00  0.00    -0.075 N
ATOM     28  H53 UNL     1      34.461  47.927  17.728  1.00  0.00     0.274 HD
ATOM     29  H52 UNL     1      35.006  49.368  17.617  1.00  0.00     0.274 HD
ATOM     30  H51 UNL     1      35.192  48.585  19.104  1.00  0.00     0.274 HD
ENDBRANCH  26  27
ENDBRANCH  22  26
BRANCH  24  31
HETATM   31  C11 UNL     1      36.651  50.330  21.803  1.00  0.00     0.199 C
BRANCH  31  32
HETATM   32  O4  UNL     1      36.773  50.722  23.146  1.00  0.00    -0.398 OA
ATOM     33  H4  UNL     1      36.478  51.620  23.240  1.00  0.00     0.209 HD
ENDBRANCH  31  32
ENDBRANCH  24  31
BRANCH  25  34
HETATM   34  O5  UNL     1      36.046  51.365  19.175  1.00  0.00    -0.388 OA
ATOM     35  H5  UNL     1      35.789  50.530  18.802  1.00  0.00     0.210 HD
ENDBRANCH  25  34
ENDBRANCH  19  20
ENDBRANCH   1  19
TORSDOF 14
ENDMDL