MODEL 1
REMARK VINA RESULT: -6.850932622      0.000      0.000
REMARK  15 active torsions:
REMARK  status: ('A' for Active; 'I' for Inactive)
REMARK    1  A    between atoms: N1_1  and  C1_5
REMARK    2  A    between atoms: C1_5  and  C2_6
REMARK    3  A    between atoms: C2_6  and  N2_7
REMARK    4  A    between atoms: N2_7  and  C3_10
REMARK    5  A    between atoms: C3_10  and  C4_11
REMARK    6  A    between atoms: C4_11  and  C5_12
REMARK    7  A    between atoms: C5_12  and  C6_13
REMARK    8  A    between atoms: C6_13  and  C7_14
REMARK    9  A    between atoms: C7_14  and  C8_15
REMARK   10  A    between atoms: C9_18  and  O1_19
REMARK   11  A    between atoms: O1_19  and  C10_20
REMARK   12  A    between atoms: C11_23  and  N6_24
REMARK   13  A    between atoms: C12_28  and  O2_29
REMARK   14  A    between atoms: C13_31  and  O3_32
REMARK   15  A    between atoms: C14_34  and  O4_35
ROOT
HETATM    1  C8  UNL     1      34.195  49.563  19.900  1.00  0.00     0.114 C
HETATM    2  N3  UNL     1      35.274  50.490  19.614  1.00  0.00    -0.365 N
ATOM      3  H3  UNL     1      36.078  50.118  19.107  1.00  0.00     0.161 HD
HETATM    4  C9  UNL     1      35.315  51.716  19.931  1.00  0.00     0.148 C
HETATM    5  C12 UNL     1      34.162  52.270  20.662  1.00  0.00     0.223 C
HETATM    6  C13 UNL     1      32.879  51.716  20.144  1.00  0.00     0.185 C
HETATM    7  C14 UNL     1      32.894  50.288  19.729  1.00  0.00     0.172 C
ENDROOT
BRANCH   1   8
HETATM    8  C7  UNL     1      34.300  48.487  18.830  1.00  0.00     0.028 C
BRANCH   8   9
HETATM    9  C6  UNL     1      33.451  48.769  17.620  1.00  0.00     0.002 C
BRANCH   9  10
HETATM   10  C5  UNL     1      34.342  48.851  16.405  1.00  0.00     0.002 C
BRANCH  10  11
HETATM   11  C4  UNL     1      35.068  50.143  16.253  1.00  0.00     0.027 C
BRANCH  11  12
HETATM   12  C3  UNL     1      34.818  50.760  14.903  1.00  0.00     0.232 C
BRANCH  12  13
HETATM   13  N2  UNL     1      35.266  52.134  14.827  1.00  0.00    -0.074 N
ATOM     14  H22 UNL     1      36.281  52.204  14.907  1.00  0.00     0.277 HD
ATOM     15  H21 UNL     1      35.009  52.661  15.661  1.00  0.00     0.277 HD
BRANCH  13  16
HETATM   16  C2  UNL     1      34.783  52.766  13.630  1.00  0.00     0.259 C
BRANCH  16  17
HETATM   17  C1  UNL     1      34.322  54.181  13.966  1.00  0.00     0.257 C
BRANCH  17  18
HETATM   18  N1  UNL     1      33.476  54.157  15.138  1.00  0.00    -0.078 N
ATOM     19  H13 UNL     1      32.553  53.772  14.936  1.00  0.00     0.274 HD
ATOM     20  H12 UNL     1      33.782  53.462  15.817  1.00  0.00     0.274 HD
ATOM     21  H11 UNL     1      33.421  55.091  15.544  1.00  0.00     0.274 HD
ENDBRANCH  17  18
ENDBRANCH  16  17
ENDBRANCH  13  16
ENDBRANCH  12  13
ENDBRANCH  11  12
ENDBRANCH  10  11
ENDBRANCH   9  10
ENDBRANCH   8   9
ENDBRANCH   1   8
BRANCH   7  22
HETATM   22  O4  UNL     1      31.839  49.620  20.371  1.00  0.00    -0.391 OA
ATOM     23  H4  UNL     1      31.217  50.229  20.750  1.00  0.00     0.210 HD
ENDBRANCH   7  22
BRANCH   4  24
HETATM   24  O1  UNL     1      36.448  52.467  19.570  1.00  0.00    -0.310 OA
BRANCH  24  25
HETATM   25  C10 UNL     1      36.541  52.943  18.226  1.00  0.00     0.286 A
HETATM   26  N4  UNL     1      35.276  53.057  17.572  1.00  0.00    -0.110 NA
HETATM   27  N5  UNL     1      35.387  54.414  17.502  1.00  0.00    -0.108 NA
HETATM   28  C11 UNL     1      36.700  54.397  18.064  1.00  0.00     0.337 A
BRANCH  28  29
HETATM   29  N6  UNL     1      36.739  55.082  19.346  1.00  0.00    -0.056 N
ATOM     30  H63 UNL     1      36.014  54.734  19.974  1.00  0.00     0.276 HD
ATOM     31  H62 UNL     1      37.561  54.812  19.885  1.00  0.00     0.276 HD
ATOM     32  H61 UNL     1      36.681  56.094  19.236  1.00  0.00     0.276 HD
ENDBRANCH  28  29
ENDBRANCH  24  25
ENDBRANCH   4  24
BRANCH   6  33
HETATM   33  O3  UNL     1      31.813  51.977  21.044  1.00  0.00    -0.390 OA
ATOM     34  H3  UNL     1      31.624  51.214  21.577  1.00  0.00     0.210 HD
ENDBRANCH   6  33
BRANCH   5  35
HETATM   35  O2  UNL     1      34.190  53.677  20.526  1.00  0.00    -0.385 OA
ATOM     36  H2  UNL     1      33.403  54.029  20.925  1.00  0.00     0.210 HD
ENDBRANCH   5  35
TORSDOF 15
ENDMDL