MODEL 3
REMARK VINA RESULT: -7.350763590      1.359      1.525
REMARK  14 active torsions:
REMARK  status: ('A' for Active; 'I' for Inactive)
REMARK    1  A    between atoms: N1_1  and  C1_4
REMARK    2  A    between atoms: C3_6  and  N2_7
REMARK    3  A    between atoms: N2_7  and  C4_9
REMARK    4  A    between atoms: C4_9  and  C5_10
REMARK    5  A    between atoms: C5_10  and  O1_11
REMARK    6  A    between atoms: O1_11  and  C6_12
REMARK    7  A    between atoms: C6_12  and  C7_13
REMARK    8  A    between atoms: C7_13  and  N3_14
REMARK    9  A    between atoms: N3_14  and  C8_16
REMARK   10  A    between atoms: C9_17  and  O2_18
REMARK   11  A    between atoms: N4_20  and  O3_21
REMARK   12  A    between atoms: C10_23  and  C11_24
REMARK   13  A    between atoms: C11_24  and  O4_25
REMARK   14  A    between atoms: C12_29  and  N6_30
ROOT
HETATM    1  C4  UNL     1      35.670  53.762  18.338  1.00  0.00     0.147 C
ENDROOT
BRANCH   1   2
HETATM    2  N2  UNL     1      35.034  52.483  18.362  1.00  0.00    -0.374 N
ATOM      3  H2  UNL     1      34.772  52.058  17.472  1.00  0.00     0.161 HD
BRANCH   2   4
HETATM    4  C3  UNL     1      34.750  51.779  19.542  1.00  0.00     0.120 A
HETATM    5  C2  UNL     1      33.666  52.077  20.338  1.00  0.00     0.097 A
HETATM    6  C1  UNL     1      33.423  51.363  21.486  1.00  0.00     0.118 A
HETATM    7  N7  UNL     1      34.222  50.357  21.876  1.00  0.00    -0.177 N
HETATM    8  C12 UNL     1      35.276  50.077  21.089  1.00  0.00     0.678 A
ATOM      9  H7  UNL     1      34.038  49.830  22.729  1.00  0.00     0.185 HD
HETATM   10  N5  UNL     1      35.541  50.756  19.959  1.00  0.00    -0.177 N
ATOM     11  H5  UNL     1      36.356  50.498  19.403  1.00  0.00     0.185 HD
BRANCH   6  12
HETATM   12  N1  UNL     1      32.399  51.690  22.185  1.00  0.00    -0.385 N
ATOM     13  H12 UNL     1      32.220  52.666  22.419  1.00  0.00     0.157 HD
ATOM     14  H11 UNL     1      31.778  50.941  22.493  1.00  0.00     0.157 HD
ENDBRANCH   6  12
BRANCH   8  15
HETATM   15  N6  UNL     1      36.043  49.103  21.472  1.00  0.00    -0.234 N
ATOM     16  H62 UNL     1      35.868  48.191  21.049  1.00  0.00     0.174 HD
ATOM     17  H61 UNL     1      36.779  49.259  22.162  1.00  0.00     0.174 HD
ENDBRANCH   8  15
ENDBRANCH   2   4
ENDBRANCH   1   2
BRANCH   1  18
HETATM   18  C5  UNL     1      37.142  53.639  17.907  1.00  0.00     0.187 C
BRANCH  18  19
HETATM   19  O1  UNL     1      37.110  53.641  16.522  1.00  0.00    -0.388 OA
BRANCH  19  20
HETATM   20  C6  UNL     1      36.808  54.854  15.991  1.00  0.00     0.186 C
BRANCH  20  21
HETATM   21  C7  UNL     1      36.113  54.833  14.651  1.00  0.00     0.140 C
BRANCH  21  22
HETATM   22  N3  UNL     1      34.845  54.158  14.774  1.00  0.00    -0.410 N
ATOM     23  H3  UNL     1      34.319  54.146  15.648  1.00  0.00     0.153 HD
BRANCH  22  24
HETATM   24  C8  UNL     1      34.373  53.510  13.598  1.00  0.00     0.144 C
HETATM   25  C9  UNL     1      32.915  53.292  13.411  1.00  0.00     0.242 C
HETATM   26  N4  UNL     1      33.077  51.841  13.331  1.00  0.00    -0.160 NA
HETATM   27  C10 UNL     1      34.453  52.002  13.725  1.00  0.00     0.138 C
BRANCH  25  28
HETATM   28  O2  UNL     1      32.100  53.664  14.477  1.00  0.00    -0.377 OA
ATOM     29  H2  UNL     1      31.457  54.338  14.294  1.00  0.00     0.211 HD
ENDBRANCH  25  28
BRANCH  26  30
HETATM   30  O3  UNL     1      32.860  51.305  12.124  1.00  0.00    -0.310 OA
ATOM     31  H3  UNL     1      32.950  51.903  11.391  1.00  0.00     0.237 HD
ENDBRANCH  26  30
BRANCH  27  32
HETATM   32  C11 UNL     1      34.691  51.465  15.105  1.00  0.00     0.188 C
BRANCH  32  33
HETATM   33  O4  UNL     1      36.042  51.325  15.403  1.00  0.00    -0.399 OA
ATOM     34  H4  UNL     1      36.306  51.828  16.165  1.00  0.00     0.209 HD
ENDBRANCH  32  33
ENDBRANCH  27  32
ENDBRANCH  22  24
ENDBRANCH  21  22
ENDBRANCH  20  21
ENDBRANCH  19  20
ENDBRANCH  18  19
ENDBRANCH   1  18
TORSDOF 14
ENDMDL