MODEL 2
REMARK VINA RESULT: -10.922026688      2.990      4.948
REMARK  8 active torsions:
REMARK  status: ('A' for Active; 'I' for Inactive)
REMARK       I    between atoms: C1_2  and  N1_3
REMARK    1  A    between atoms: C1_2  and  C15_23
REMARK    2  A    between atoms: N1_3  and  C2_4
REMARK    3  A    between atoms: C2_4  and  C3_5
REMARK    4  A    between atoms: C8_11  and  O2_12
REMARK    5  A    between atoms: O2_12  and  C9_13
REMARK    6  A    between atoms: C9_13  and  C10_14
REMARK    7  A    between atoms: C18_26  and  S1_27
REMARK    8  A    between atoms: S1_27  and  C19_30
ROOT
HETATM    1  O1  UNL     1     -15.696  17.308  -9.146  1.00  0.00    -0.251 OA
HETATM    2  C1  UNL     1     -16.142  18.354  -8.557  1.00  0.00     0.325 C
HETATM    3  N1  UNL     1     -16.953  18.380  -7.436  1.00  0.00    -0.378 NA
ENDROOT
BRANCH   3   4
HETATM    4  C2  UNL     1     -17.720  18.405  -6.376  1.00  0.00     0.200 C
BRANCH   4   5
HETATM    5  C3  UNL     1     -17.993  17.167  -5.591  1.00  0.00     0.028 A
HETATM    6  C4  UNL     1     -17.313  15.996  -5.760  1.00  0.00     0.040 A
HETATM    7  C5  UNL     1     -17.647  14.855  -5.012  1.00  0.00     0.035 A
HETATM    8 CL1  UNL     1     -16.779  13.352  -5.231  1.00  0.00    -0.084 Cl
HETATM    9  C6  UNL     1     -18.676  14.920  -4.100  1.00  0.00     0.026 A
HETATM   10  C7  UNL     1     -19.371  16.105  -3.922  1.00  0.00     0.039 A
HETATM   11  C8  UNL     1     -19.032  17.215  -4.660  1.00  0.00     0.082 A
BRANCH  11  12
HETATM   12  O2  UNL     1     -19.681  18.392  -4.515  1.00  0.00    -0.344 OA
BRANCH  12  13
HETATM   13  C9  UNL     1     -21.018  18.604  -4.831  1.00  0.00     0.232 C
BRANCH  13  14
HETATM   14  C10 UNL     1     -21.260  18.929  -6.262  1.00  0.00     0.035 A
HETATM   15  C11 UNL     1     -21.882  18.012  -7.046  1.00  0.00     0.030 A
HETATM   16  C12 UNL     1     -22.105  18.284  -8.373  1.00  0.00     0.047 A
HETATM   17  C13 UNL     1     -21.692  19.489  -8.876  1.00  0.00     0.154 A
HETATM   18  F1  UNL     1     -21.882  19.812 -10.183  1.00  0.00    -0.203 F
HETATM   19  C14 UNL     1     -21.067  20.413  -8.085  1.00  0.00     0.142 A
HETATM   20 CL2  UNL     1     -20.560  21.955  -8.778  1.00  0.00    -0.061 Cl
HETATM   21  N2  UNL     1     -20.864  20.103  -6.779  1.00  0.00    -0.346 N
ATOM     22  H2  UNL     1     -20.399  20.780  -6.174  1.00  0.00     0.167 HD
ENDBRANCH  13  14
ENDBRANCH  12  13
ENDBRANCH  11  12
ENDBRANCH   4   5
ENDBRANCH   3   4
BRANCH   2  23
HETATM   23  C15 UNL     1     -15.690  19.595  -9.229  1.00  0.00     0.048 A
HETATM   24  C16 UNL     1     -14.414  19.587  -9.779  1.00  0.00     0.020 A
HETATM   25  C17 UNL     1     -13.908  20.680 -10.436  1.00  0.00     0.026 A
HETATM   26  C18 UNL     1     -14.649  21.863 -10.586  1.00  0.00     0.086 A
HETATM   27  C25 UNL     1     -15.903  21.847 -10.037  1.00  0.00     0.057 A
HETATM   28 CL4  UNL     1     -16.907  23.273 -10.189  1.00  0.00    -0.083 Cl
HETATM   29  C26 UNL     1     -16.426  20.729  -9.363  1.00  0.00     0.043 A
BRANCH  26  30
HETATM   30  S1  UNL     1     -13.933  23.222 -11.413  1.00  0.00     0.208 S
HETATM   31  O3  UNL     1     -12.416  23.095 -11.303  1.00  0.00    -0.217 OA
HETATM   32  O4  UNL     1     -14.248  24.511 -10.660  1.00  0.00    -0.217 OA
BRANCH  30  33
HETATM   33  C19 UNL     1     -14.431  23.435 -13.043  1.00  0.00     0.064 A
HETATM   34  C20 UNL     1     -13.510  23.767 -14.048  1.00  0.00     0.025 A
HETATM   35  C21 UNL     1     -13.909  23.911 -15.350  1.00  0.00     0.025 A
HETATM   36  C22 UNL     1     -15.213  23.742 -15.752  1.00  0.00     0.034 A
HETATM   37 CL3  UNL     1     -15.689  23.942 -17.427  1.00  0.00    -0.084 Cl
HETATM   38  C23 UNL     1     -16.139  23.410 -14.759  1.00  0.00     0.025 A
HETATM   39  C24 UNL     1     -15.725  23.269 -13.456  1.00  0.00     0.025 A
ENDBRANCH  30  33
ENDBRANCH  26  30
ENDBRANCH   2  23
TORSDOF 8
ENDMDL