MODEL 4
REMARK VINA RESULT: -11.601224554      0.435      1.456
REMARK  9 active torsions:
REMARK  status: ('A' for Active; 'I' for Inactive)
REMARK    1  A    between atoms: C2_2  and  C4_4
REMARK    2  A    between atoms: C8_10  and  C9_11
REMARK    3  A    between atoms: C9_11  and  N2_12
REMARK    4  A    between atoms: N2_12  and  C10_13
REMARK    5  A    between atoms: N2_12  and  C17_22
REMARK    6  A    between atoms: C10_13  and  C11_14
REMARK    7  A    between atoms: C20_27  and  N4_28
REMARK       I    between atoms: N4_28  and  C21_30
REMARK    8  A    between atoms: C21_30  and  C22_32
REMARK    9  A    between atoms: C22_32  and  C23_33
ROOT
HETATM    1  N2  UNL     1     -18.275  18.449  -7.607  1.00  0.00    -0.358 N
ENDROOT
BRANCH   1   2
HETATM    2  C9  UNL     1     -17.104  19.095  -7.111  1.00  0.00     0.163 C
BRANCH   2   3
HETATM    3  C8  UNL     1     -16.142  19.509  -8.168  1.00  0.00    -0.039 A
HETATM    4  C7  UNL     1     -15.001  18.839  -8.487  1.00  0.00     0.011 A
HETATM    5  C6  UNL     1     -14.158  19.250  -9.465  1.00  0.00     0.031 A
HETATM    6  C5  UNL     1     -14.405  20.406 -10.223  1.00  0.00     0.050 A
HETATM    7  N1  UNL     1     -13.663  20.882 -11.179  1.00  0.00    -0.352 N
HETATM    8  C30 UNL     1     -15.550  21.090  -9.911  1.00  0.00     0.034 A
HETATM    9  C4  UNL     1     -14.021  21.985 -11.810  1.00  0.00     0.055 A
ATOM     10  H1  UNL     1     -12.803  20.401 -11.442  1.00  0.00     0.166 HD
HETATM   11  S1  UNL     1     -15.487  22.387 -11.023  1.00  0.00    -0.074 SA
HETATM   12  C29 UNL     1     -16.415  20.652  -8.895  1.00  0.00     0.030 A
BRANCH   9  13
HETATM   13  C2  UNL     1     -13.314  22.698 -12.935  1.00  0.00     0.035 C
HETATM   14  C1  UNL     1     -12.682  23.934 -12.285  1.00  0.00     0.016 C
HETATM   15  C3  UNL     1     -14.252  23.053 -14.045  1.00  0.00     0.016 C
ENDBRANCH   9  13
ENDBRANCH   2   3
ENDBRANCH   1   2
BRANCH   1  16
HETATM   16  C10 UNL     1     -18.319  17.125  -8.104  1.00  0.00     0.166 C
BRANCH  16  17
HETATM   17  C11 UNL     1     -17.670  16.066  -7.336  1.00  0.00    -0.002 A
HETATM   18  C12 UNL     1     -16.358  15.681  -7.423  1.00  0.00     0.015 A
HETATM   19  C13 UNL     1     -15.898  14.645  -6.639  1.00  0.00     0.043 A
HETATM   20  C14 UNL     1     -16.714  13.971  -5.759  1.00  0.00     0.119 A
HETATM   21  F1  UNL     1     -16.275  12.952  -4.983  1.00  0.00    -0.206 F
HETATM   22  C15 UNL     1     -18.034  14.353  -5.667  1.00  0.00     0.085 A
HETATM   23  C16 UNL     1     -18.521  15.382  -6.437  1.00  0.00     0.127 A
HETATM   24  F2  UNL     1     -19.826  15.705  -6.297  1.00  0.00    -0.205 F
ENDBRANCH  16  17
ENDBRANCH   1  16
BRANCH   1  25
HETATM   25  C17 UNL     1     -19.489  19.234  -7.580  1.00  0.00     0.120 A
HETATM   26  C18 UNL     1     -20.018  19.677  -8.766  1.00  0.00     0.066 A
HETATM   27  C19 UNL     1     -21.172  20.426  -8.743  1.00  0.00     0.110 A
HETATM   28  N3  UNL     1     -21.757  20.708  -7.572  1.00  0.00    -0.201 N
HETATM   29  C20 UNL     1     -21.259  20.289  -6.398  1.00  0.00     0.686 A
ATOM     30  H3  UNL     1     -22.612  21.264  -7.572  1.00  0.00     0.183 HD
HETATM   31  N5  UNL     1     -20.122  19.553  -6.445  1.00  0.00    -0.176 N
ATOM     32  H5  UNL     1     -19.726  19.223  -5.565  1.00  0.00     0.186 HD
BRANCH  29  33
HETATM   33  N4  UNL     1     -21.816  20.564  -5.250  1.00  0.00    -0.159 N
HETATM   34  C21 UNL     1     -23.112  20.066  -4.992  1.00  0.00     0.240 C
HETATM   35  O1  UNL     1     -24.106  20.546  -5.586  1.00  0.00    -0.272 OA
ATOM     36  H4  UNL     1     -21.325  21.127  -4.555  1.00  0.00     0.187 HD
BRANCH  34  37
HETATM   37  C22 UNL     1     -23.280  18.976  -4.014  1.00  0.00     0.145 C
BRANCH  37  38
HETATM   38  C23 UNL     1     -22.016  18.657  -3.307  1.00  0.00    -0.004 A
HETATM   39  C24 UNL     1     -21.648  19.434  -2.226  1.00  0.00     0.056 A
HETATM   40  C25 UNL     1     -20.469  19.121  -1.581  1.00  0.00     0.158 A
HETATM   41  F3  UNL     1     -20.097  19.870  -0.522  1.00  0.00    -0.203 F
HETATM   42  C26 UNL     1     -19.678  18.079  -1.986  1.00  0.00     0.196 A
HETATM   43  F4  UNL     1     -18.526  17.794  -1.335  1.00  0.00    -0.199 F
HETATM   44  C27 UNL     1     -20.043  17.314  -3.055  1.00  0.00     0.197 A
HETATM   45  F5  UNL     1     -19.286  16.266  -3.494  1.00  0.00    -0.199 F
HETATM   46  C28 UNL     1     -21.234  17.607  -3.730  1.00  0.00     0.165 A
HETATM   47  F6  UNL     1     -21.584  16.851  -4.776  1.00  0.00    -0.202 F
ENDBRANCH  37  38
ENDBRANCH  34  37
ENDBRANCH  29  33
ENDBRANCH   1  25
TORSDOF 9
ENDMDL