MODEL 1
REMARK VINA RESULT: -9.304069078      0.000      0.000
REMARK  8 active torsions:
REMARK  status: ('A' for Active; 'I' for Inactive)
REMARK    1  A    between atoms: C2_3  and  C3_4
REMARK    2  A    between atoms: N2_5  and  C4_6
REMARK    3  A    between atoms: N2_5  and  N3_9
REMARK    4  A    between atoms: C4_6  and  C5_7
REMARK       I    between atoms: N3_9  and  C6_10
REMARK    5  A    between atoms: C6_10  and  C7_12
REMARK    6  A    between atoms: C12_18  and  S1_19
REMARK    7  A    between atoms: S1_19  and  C13_22
REMARK    8  A    between atoms: C18_29  and  C19_30
ROOT
HETATM    1  N1  UNL     1     -24.066  26.030  -8.022  1.00  0.00    -0.197 NA
HETATM    2  C1  UNL     1     -24.356  25.209  -7.264  1.00  0.00     0.064 C
HETATM    3  C2  UNL     1     -24.658  24.122  -6.348  1.00  0.00     0.171 C
ENDROOT
BRANCH   3   4
HETATM    4  C3  UNL     1     -23.547  23.071  -6.491  1.00  0.00     0.111 C
HETATM    5  N2  UNL     1     -23.929  21.777  -6.529  1.00  0.00    -0.237 N
BRANCH   5   6
HETATM    6  C4  UNL     1     -24.598  21.339  -7.766  1.00  0.00     0.177 C
BRANCH   6   7
HETATM    7  C5  UNL     1     -23.714  21.485  -9.019  1.00  0.00     0.137 C
HETATM    8 CL1  UNL     1     -24.266  22.906  -9.964  1.00  0.00    -0.129 Cl
ENDBRANCH   6   7
ENDBRANCH   5   6
BRANCH   5   9
HETATM    9  N3  UNL     1     -23.978  20.813  -5.689  1.00  0.00    -0.280 NA
HETATM   10  C6  UNL     1     -24.063  19.742  -4.765  1.00  0.00     0.347 C
HETATM   11  O1  UNL     1     -25.003  19.065  -4.482  1.00  0.00    -0.249 OA
BRANCH  10  12
HETATM   12  C7  UNL     1     -22.762  19.446  -4.072  1.00  0.00     0.070 A
HETATM   13  C8  UNL     1     -22.683  20.178  -2.853  1.00  0.00     0.021 A
HETATM   14  C9  UNL     1     -21.636  19.869  -1.988  1.00  0.00     0.025 A
HETATM   15  C10 UNL     1     -20.723  18.921  -2.290  1.00  0.00     0.035 A
HETATM   16 CL2  UNL     1     -19.430  18.593  -1.145  1.00  0.00    -0.084 Cl
HETATM   17  C11 UNL     1     -20.775  18.197  -3.494  1.00  0.00     0.048 A
HETATM   18  C12 UNL     1     -21.824  18.487  -4.366  1.00  0.00     0.082 A
BRANCH  18  19
HETATM   19  S1  UNL     1     -21.661  17.809  -6.010  1.00  0.00     0.208 S
HETATM   20  O2  UNL     1     -22.990  18.048  -6.695  1.00  0.00    -0.217 OA
HETATM   21  O3  UNL     1     -21.422  16.374  -5.926  1.00  0.00    -0.217 OA
BRANCH  19  22
HETATM   22  C13 UNL     1     -20.434  18.665  -6.915  1.00  0.00     0.077 A
HETATM   23  C14 UNL     1     -20.784  19.899  -7.526  1.00  0.00     0.050 A
HETATM   24  C15 UNL     1     -19.869  20.635  -8.204  1.00  0.00     0.057 A
HETATM   25 CL3  UNL     1     -20.346  22.137  -9.045  1.00  0.00    -0.083 Cl
HETATM   26  C16 UNL     1     -18.597  20.223  -8.322  1.00  0.00     0.056 A
HETATM   27 CL4  UNL     1     -17.398  21.094  -9.220  1.00  0.00    -0.083 Cl
HETATM   28  C17 UNL     1     -18.224  19.059  -7.758  1.00  0.00     0.039 A
HETATM   29  C18 UNL     1     -19.166  18.277  -7.050  1.00  0.00     0.001 A
BRANCH  29  30
HETATM   30  C19 UNL     1     -18.589  16.964  -6.680  1.00  0.00     0.014 A
HETATM   31  C20 UNL     1     -18.375  15.973  -7.620  1.00  0.00     0.017 A
HETATM   32  C21 UNL     1     -17.702  14.837  -7.214  1.00  0.00     0.025 A
HETATM   33  C22 UNL     1     -17.193  14.609  -5.968  1.00  0.00     0.037 A
HETATM   34 CL5  UNL     1     -16.330  13.171  -5.497  1.00  0.00    -0.084 Cl
HETATM   35  C23 UNL     1     -17.430  15.641  -5.003  1.00  0.00     0.066 A
HETATM   36  C24 UNL     1     -18.099  16.741  -5.403  1.00  0.00     0.129 A
HETATM   37  F1  UNL     1     -18.348  17.752  -4.504  1.00  0.00    -0.205 F
ENDBRANCH  29  30
ENDBRANCH  19  22
ENDBRANCH  18  19
ENDBRANCH  10  12
ENDBRANCH   5   9
ENDBRANCH   3   4
TORSDOF 8
ENDMDL