MODEL 2
REMARK VINA RESULT: -7.941350287      1.587      1.731
REMARK  8 active torsions:
REMARK  status: ('A' for Active; 'I' for Inactive)
REMARK    1  A    between atoms: C2_2  and  C3_3
REMARK    2  A    between atoms: C3_3  and  C4_4
REMARK    3  A    between atoms: C4_4  and  C5_5
REMARK    4  A    between atoms: C5_5  and  S1_6
REMARK    5  A    between atoms: S1_6  and  N1_9
REMARK    6  A    between atoms: N1_9  and  C6_11
REMARK    7  A    between atoms: C17_29  and  C18_30
REMARK    8  A    between atoms: C18_30  and  C19_31
ROOT
HETATM    1  C6  UNL     1     -21.386  19.475  -4.358  1.00  0.00     0.130 A
HETATM    2  N2  UNL     1     -20.834  19.245  -3.143  1.00  0.00    -0.337 N
ATOM      3  H2  UNL     1     -19.885  18.871  -3.111  1.00  0.00     0.168 HD
HETATM    4  C7  UNL     1     -21.459  19.477  -1.979  1.00  0.00     0.183 A
HETATM    5  N3  UNL     1     -22.701  19.968  -2.043  1.00  0.00    -0.338 N
ATOM      6  H3  UNL     1     -23.189  20.152  -1.167  1.00  0.00     0.168 HD
HETATM    7  C8  UNL     1     -23.344  20.233  -3.190  1.00  0.00     0.126 A
HETATM    8  C9  UNL     1     -22.667  19.979  -4.396  1.00  0.00     0.065 A
HETATM    9  C10 UNL     1     -23.312  20.248  -5.574  1.00  0.00     0.009 A
HETATM   10  C11 UNL     1     -22.736  20.026  -6.881  1.00  0.00     0.036 A
HETATM   11  C12 UNL     1     -22.043  21.005  -7.562  1.00  0.00     0.132 A
HETATM   12  F1  UNL     1     -21.826  22.238  -7.008  1.00  0.00    -0.205 F
HETATM   13  C13 UNL     1     -21.532  20.800  -8.824  1.00  0.00     0.085 A
HETATM   14  C14 UNL     1     -21.699  19.597  -9.454  1.00  0.00     0.120 A
HETATM   15  F2  UNL     1     -21.196  19.382 -10.709  1.00  0.00    -0.206 F
HETATM   16  C15 UNL     1     -22.392  18.628  -8.763  1.00  0.00     0.067 A
HETATM   17  C16 UNL     1     -22.911  18.810  -7.502  1.00  0.00     0.051 A
HETATM   18 CL1  UNL     1     -23.754  17.451  -6.793  1.00  0.00    -0.083 Cl
HETATM   19  C17 UNL     1     -24.624  20.770  -5.509  1.00  0.00     0.027 A
HETATM   20  C24 UNL     1     -25.242  21.002  -4.322  1.00  0.00     0.256 A
HETATM   21  O3  UNL     1     -26.403  21.468  -4.253  1.00  0.00    -0.267 OA
HETATM   22  N5  UNL     1     -24.591  20.728  -3.158  1.00  0.00    -0.303 N
HETATM   23  C25 UNL     1     -25.235  20.963  -1.879  1.00  0.00     0.161 C
ENDROOT
BRANCH   1  24
HETATM   24  N1  UNL     1     -20.726  19.240  -5.431  1.00  0.00    -0.269 N
ATOM     25  H1  UNL     1     -20.746  19.907  -6.203  1.00  0.00     0.180 HD
BRANCH  24  26
HETATM   26  S1  UNL     1     -19.807  17.793  -5.559  1.00  0.00     0.232 S
HETATM   27  O1  UNL     1     -18.666  17.881  -4.567  1.00  0.00    -0.206 OA
HETATM   28  O2  UNL     1     -20.694  16.633  -5.265  1.00  0.00    -0.206 OA
BRANCH  26  29
HETATM   29  C5  UNL     1     -19.066  17.707  -7.162  1.00  0.00     0.163 C
BRANCH  29  30
HETATM   30  C4  UNL     1     -18.522  19.103  -7.473  1.00  0.00     0.017 C
BRANCH  30  31
HETATM   31  C3  UNL     1     -17.018  19.038  -7.521  1.00  0.00     0.001 C
BRANCH  31  32
HETATM   32  C2  UNL     1     -16.639  17.606  -7.806  1.00  0.00    -0.005 C
HETATM   33  C1  UNL     1     -15.745  17.534  -9.025  1.00  0.00     0.005 C
ENDBRANCH  31  32
ENDBRANCH  30  31
ENDBRANCH  29  30
ENDBRANCH  26  29
ENDBRANCH  24  26
ENDBRANCH   1  24
BRANCH  19  34
HETATM   34  C18 UNL     1     -25.244  21.068  -6.794  1.00  0.00     0.087 C
BRANCH  34  35
HETATM   35  C19 UNL     1     -26.049  22.294  -6.906  1.00  0.00    -0.007 A
HETATM   36  C20 UNL     1     -25.524  23.546  -6.720  1.00  0.00     0.057 A
HETATM   37 CL2  UNL     1     -23.851  23.748  -6.323  1.00  0.00    -0.082 Cl
HETATM   38  C21 UNL     1     -26.290  24.708  -6.829  1.00  0.00     0.112 A
HETATM   39  N4  UNL     1     -27.578  24.612  -7.123  1.00  0.00    -0.372 N
HETATM   40  C22 UNL     1     -28.140  23.408  -7.314  1.00  0.00     0.112 A
ATOM     41  H4  UNL     1     -28.145  25.456  -7.204  1.00  0.00     0.164 HD
HETATM   42  C23 UNL     1     -27.420  22.240  -7.216  1.00  0.00     0.057 A
HETATM   43 CL3  UNL     1     -28.119  20.673  -7.457  1.00  0.00    -0.082 Cl
ENDBRANCH  34  35
ENDBRANCH  19  34
TORSDOF 8
ENDMDL