MODEL 2
REMARK VINA RESULT: -10.167625016      3.376      5.081
REMARK  8 active torsions:
REMARK  status: ('A' for Active; 'I' for Inactive)
REMARK    1  A    between atoms: C2_2  and  C3_3
REMARK    2  A    between atoms: C5_5  and  C6_6
REMARK    3  A    between atoms: C6_6  and  C7_7
REMARK       I    between atoms: C7_7  and  N1_9
REMARK    4  A    between atoms: N1_9  and  S1_11
REMARK    5  A    between atoms: S1_11  and  C8_14
REMARK    6  A    between atoms: C14_24  and  S2_25
REMARK    7  A    between atoms: S2_25  and  C15_27
REMARK    8  A    between atoms: S2_25  and  C16_30
ROOT
HETATM    1  C3  UNL     1     -16.488  15.605  -7.149  1.00  0.00    -0.054 A
HETATM    2  C4  UNL     1     -15.664  16.295  -8.004  1.00  0.00     0.032 A
HETATM    3  C5  UNL     1     -16.102  17.495  -8.580  1.00  0.00     0.019 A
HETATM    4  N2  UNL     1     -17.330  17.955  -8.283  1.00  0.00    -0.352 N
ATOM      5  H2  UNL     1     -17.639  18.830  -8.708  1.00  0.00     0.166 HD
HETATM    6  C14 UNL     1     -18.166  17.315  -7.453  1.00  0.00     0.103 A
HETATM    7  C22 UNL     1     -17.728  16.119  -6.883  1.00  0.00     0.046 A
ENDROOT
BRANCH   3   8
HETATM    8  C6  UNL     1     -15.201  18.209  -9.509  1.00  0.00     0.160 C
BRANCH   8   9
HETATM    9  C7  UNL     1     -15.362  19.681  -9.511  1.00  0.00     0.236 C
HETATM   10  O1  UNL     1     -15.599  20.293  -8.437  1.00  0.00    -0.272 OA
HETATM   11  N1  UNL     1     -15.243  20.379 -10.735  1.00  0.00    -0.250 N
ATOM     12  H1  UNL     1     -15.045  19.848 -11.583  1.00  0.00     0.181 HD
BRANCH  11  13
HETATM   13  S1  UNL     1     -15.418  22.068 -10.853  1.00  0.00     0.267 S
HETATM   14  O2  UNL     1     -14.443  22.729  -9.887  1.00  0.00    -0.200 OA
HETATM   15  O3  UNL     1     -16.831  22.507 -10.529  1.00  0.00    -0.200 OA
BRANCH  13  16
HETATM   16  C8  UNL     1     -15.038  22.720 -12.427  1.00  0.00     0.103 A
HETATM   17  C9  UNL     1     -15.935  22.964 -13.415  1.00  0.00     0.027 A
HETATM   18  C10 UNL     1     -15.497  23.478 -14.619  1.00  0.00     0.003 A
HETATM   19  C11 UNL     1     -14.145  23.745 -14.814  1.00  0.00     0.026 A
HETATM   20  C12 UNL     1     -13.227  23.509 -13.832  1.00  0.00     0.057 A
HETATM   21 CL1  UNL     1     -11.511  23.845 -14.070  1.00  0.00    -0.083 Cl
HETATM   22  C13 UNL     1     -13.685  22.998 -12.647  1.00  0.00     0.079 A
HETATM   23 CL2  UNL     1     -12.485  22.701 -11.389  1.00  0.00    -0.081 Cl
ENDBRANCH  13  16
ENDBRANCH  11  13
ENDBRANCH   8   9
ENDBRANCH   3   8
BRANCH   1  24
HETATM   24  C2  UNL     1     -15.984  14.339  -6.562  1.00  0.00     0.034 C
HETATM   25  C1  UNL     1     -16.727  13.937  -5.331  1.00  0.00     0.010 C
ENDBRANCH   1  24
BRANCH   6  26
HETATM   26  S2  UNL     1     -19.764  17.938  -7.062  1.00  0.00     0.106 S
HETATM   27  O4  UNL     1     -20.852  17.077  -7.685  1.00  0.00    -0.249 OA
BRANCH  26  28
HETATM   28  C15 UNL     1     -20.023  19.300  -7.847  1.00  0.00     0.332 C
HETATM   29  F1  UNL     1     -19.148  20.264  -7.685  1.00  0.00    -0.163 F
HETATM   30  F2  UNL     1     -21.109  19.378  -8.580  1.00  0.00    -0.163 F
ENDBRANCH  26  28
BRANCH  26  31
HETATM   31  C16 UNL     1     -19.965  18.172  -5.368  1.00  0.00     0.036 A
HETATM   32  C17 UNL     1     -19.038  17.649  -4.495  1.00  0.00     0.023 A
HETATM   33  C18 UNL     1     -19.170  17.822  -3.146  1.00  0.00     0.027 A
HETATM   34  C19 UNL     1     -20.232  18.524  -2.621  1.00  0.00     0.055 A
HETATM   35 CL3  UNL     1     -20.366  18.724  -0.870  1.00  0.00    -0.083 Cl
HETATM   36  C20 UNL     1     -21.183  19.064  -3.466  1.00  0.00     0.057 A
HETATM   37 CL4  UNL     1     -22.543  19.961  -2.801  1.00  0.00    -0.083 Cl
HETATM   38  C21 UNL     1     -21.023  18.872  -4.826  1.00  0.00     0.046 A
ENDBRANCH  26  31
ENDBRANCH   6  26
TORSDOF 8
ENDMDL