MODEL 5
REMARK VINA RESULT: -9.761910513      4.480      9.276
REMARK  10 active torsions:
REMARK  status: ('A' for Active; 'I' for Inactive)
REMARK    1  A    between atoms: C7_8  and  C8_9
REMARK    2  A    between atoms: C8_9  and  C9_10
REMARK    3  A    between atoms: C8_9  and  C22_29
REMARK    4  A    between atoms: C12_13  and  N1_14
REMARK    5  A    between atoms: N1_14  and  C13_16
REMARK    6  A    between atoms: C13_16  and  O1_17
REMARK    7  A    between atoms: C13_16  and  C14_19
REMARK    8  A    between atoms: C25_32  and  O2_33
REMARK    9  A    between atoms: O2_33  and  S1_34
REMARK   10  A    between atoms: S1_34  and  C26_37
ROOT
HETATM    1  C1  UNL     1     -16.441  14.072  -5.675  1.00  0.00     0.018 C
HETATM    2  C2  UNL     1     -16.228  14.888  -6.547  1.00  0.00    -0.071 C
HETATM    3  C3  UNL     1     -15.964  15.847  -7.606  1.00  0.00     0.094 A
HETATM    4  C4  UNL     1     -15.414  15.379  -8.807  1.00  0.00     0.138 A
HETATM    5  F1  UNL     1     -15.146  14.059  -8.949  1.00  0.00    -0.204 F
HETATM    6  C5  UNL     1     -15.180  16.320  -9.787  1.00  0.00     0.044 A
HETATM    7  C6  UNL     1     -15.484  17.645  -9.558  1.00  0.00     0.014 A
HETATM    8  C7  UNL     1     -16.028  18.100  -8.366  1.00  0.00    -0.004 A
HETATM    9  C28 UNL     1     -16.262  17.176  -7.396  1.00  0.00     0.145 A
HETATM   10  F4  UNL     1     -16.794  17.486  -6.184  1.00  0.00    -0.204 F
ENDROOT
BRANCH   8  11
HETATM   11  C8  UNL     1     -16.320  19.526  -8.209  1.00  0.00     0.104 C
BRANCH  11  12
HETATM   12  C9  UNL     1     -15.405  20.404  -8.988  1.00  0.00    -0.044 A
HETATM   13  C10 UNL     1     -14.920  20.064 -10.233  1.00  0.00     0.010 A
HETATM   14  C11 UNL     1     -14.089  20.863 -10.955  1.00  0.00     0.030 A
HETATM   15  C12 UNL     1     -13.666  22.111 -10.466  1.00  0.00     0.034 A
HETATM   16  C20 UNL     1     -14.148  22.445  -9.228  1.00  0.00     0.030 A
HETATM   17  C21 UNL     1     -14.998  21.637  -8.480  1.00  0.00     0.010 A
BRANCH  15  18
HETATM   18  N1  UNL     1     -12.771  22.896 -11.242  1.00  0.00    -0.336 N
ATOM     19  H1  UNL     1     -11.776  22.676 -11.194  1.00  0.00     0.168 HD
BRANCH  18  20
HETATM   20  C13 UNL     1     -13.170  23.957 -12.068  1.00  0.00     0.154 C
BRANCH  20  21
HETATM   21  O1  UNL     1     -13.000  25.148 -11.567  1.00  0.00    -0.345 OA
ATOM     22  H1  UNL     1     -12.750  25.819 -12.192  1.00  0.00     0.219 HD
ENDBRANCH  20  21
BRANCH  20  23
HETATM   23  C14 UNL     1     -13.743  23.914 -13.381  1.00  0.00     0.058 A
HETATM   24  C15 UNL     1     -12.865  23.983 -14.481  1.00  0.00     0.050 A
HETATM   25 CL1  UNL     1     -11.152  24.167 -14.161  1.00  0.00    -0.083 Cl
HETATM   26  C16 UNL     1     -13.270  23.921 -15.775  1.00  0.00     0.025 A
HETATM   27  C17 UNL     1     -14.597  23.786 -16.052  1.00  0.00     0.003 A
HETATM   28  C18 UNL     1     -15.485  23.714 -15.012  1.00  0.00     0.025 A
HETATM   29  C19 UNL     1     -15.062  23.776 -13.680  1.00  0.00     0.050 A
HETATM   30 CL2  UNL     1     -16.250  23.624 -12.409  1.00  0.00    -0.083 Cl
ENDBRANCH  20  23
ENDBRANCH  18  20
ENDBRANCH  15  18
ENDBRANCH  11  12
BRANCH  11  31
HETATM   31  C22 UNL     1     -17.757  19.880  -8.347  1.00  0.00     0.022 A
HETATM   32  C23 UNL     1     -18.281  20.751  -9.265  1.00  0.00     0.029 A
HETATM   33  C24 UNL     1     -19.642  21.008  -9.319  1.00  0.00     0.041 A
HETATM   34  C25 UNL     1     -20.465  20.362  -8.420  1.00  0.00     0.104 A
HETATM   35  C27 UNL     1     -19.954  19.486  -7.491  1.00  0.00     0.126 A
HETATM   36  N2  UNL     1     -18.642  19.283  -7.492  1.00  0.00    -0.366 N
ATOM     37  H2  UNL     1     -18.265  18.632  -6.803  1.00  0.00     0.165 HD
BRANCH  34  38
HETATM   38  O2  UNL     1     -21.836  20.577  -8.422  1.00  0.00    -0.227 OA
BRANCH  38  39
HETATM   39  S1  UNL     1     -22.611  21.666  -7.381  1.00  0.00     0.332 S
HETATM   40  O3  UNL     1     -22.302  21.370  -5.931  1.00  0.00    -0.193 OA
HETATM   41  O4  UNL     1     -24.102  21.658  -7.534  1.00  0.00    -0.193 OA
BRANCH  39  42
HETATM   42  C26 UNL     1     -21.951  23.301  -7.701  1.00  0.00     0.501 C
HETATM   43  F2  UNL     1     -20.753  23.469  -7.039  1.00  0.00    -0.195 F
HETATM   44  F3  UNL     1     -21.773  23.505  -9.044  1.00  0.00    -0.195 F
ENDBRANCH  39  42
ENDBRANCH  38  39
ENDBRANCH  34  38
ENDBRANCH  11  31
ENDBRANCH   8  11
TORSDOF 10
ENDMDL