MODEL 2
REMARK VINA RESULT: -10.184510437      1.217      1.469
REMARK  7 active torsions:
REMARK  status: ('A' for Active; 'I' for Inactive)
REMARK    1  A    between atoms: C2_2  and  C3_4
REMARK    2  A    between atoms: C3_4  and  C4_5
REMARK    3  A    between atoms: C4_5  and  N1_6
REMARK    4  A    between atoms: C4_5  and  C11_20
REMARK    5  A    between atoms: N1_6  and  S1_8
REMARK    6  A    between atoms: S1_8  and  C5_11
REMARK    7  A    between atoms: C20_33  and  C21_34
ROOT
HETATM    1  C11 UNL     1     -20.784  17.513  -5.422  1.00  0.00     0.049 A
HETATM    2  C12 UNL     1     -20.597  16.144  -5.386  1.00  0.00     0.115 A
HETATM    3  N2  UNL     1     -19.499  15.647  -5.961  1.00  0.00    -0.361 N
ATOM      4  H2  UNL     1     -19.347  14.638  -5.942  1.00  0.00     0.165 HD
HETATM    5  C13 UNL     1     -18.565  16.448  -6.580  1.00  0.00     0.073 A
HETATM    6  C14 UNL     1     -17.404  15.864  -7.194  1.00  0.00     0.032 A
HETATM    7  C15 UNL     1     -17.245  15.893  -8.551  1.00  0.00     0.020 A
HETATM    8  C16 UNL     1     -16.147  15.341  -9.177  1.00  0.00     0.043 A
HETATM    9  C17 UNL     1     -15.182  14.741  -8.426  1.00  0.00     0.119 A
HETATM   10  F2  UNL     1     -14.080  14.186  -9.044  1.00  0.00    -0.206 F
HETATM   11  C18 UNL     1     -15.305  14.689  -7.056  1.00  0.00     0.085 A
HETATM   12  C19 UNL     1     -16.431  15.258  -6.441  1.00  0.00     0.131 A
HETATM   13  F3  UNL     1     -16.487  15.171  -5.093  1.00  0.00    -0.205 F
HETATM   14  C20 UNL     1     -18.759  17.804  -6.610  1.00  0.00     0.070 A
HETATM   15  N3  UNL     1     -19.873  18.292  -6.023  1.00  0.00    -0.354 N
ATOM     16  H3  UNL     1     -20.029  19.299  -6.038  1.00  0.00     0.166 HD
ENDROOT
BRANCH   1  17
HETATM   17  C4  UNL     1     -21.967  18.094  -4.787  1.00  0.00     0.151 C
BRANCH  17  18
HETATM   18  C3  UNL     1     -21.920  17.898  -3.261  1.00  0.00     0.110 C
BRANCH  18  19
HETATM   19  C2  UNL     1     -21.043  18.852  -2.565  1.00  0.00     0.125 C
HETATM   20  C1  UNL     1     -19.724  18.335  -2.083  1.00  0.00     0.091 C
HETATM   21  O1  UNL     1     -21.295  20.016  -2.349  1.00  0.00    -0.298 OA
ENDBRANCH  18  19
ENDBRANCH  17  18
BRANCH  17  22
HETATM   22  N1  UNL     1     -22.115  19.515  -4.980  1.00  0.00    -0.304 N
ATOM     23  H1  UNL     1     -21.598  20.176  -4.401  1.00  0.00     0.173 HD
BRANCH  22  24
HETATM   24  S1  UNL     1     -23.150  20.053  -6.169  1.00  0.00     0.262 S
HETATM   25  O2  UNL     1     -24.510  20.479  -5.593  1.00  0.00    -0.200 OA
HETATM   26  O3  UNL     1     -23.521  18.975  -7.176  1.00  0.00    -0.200 OA
BRANCH  24  27
HETATM   27  C5  UNL     1     -22.608  21.407  -7.110  1.00  0.00     0.119 A
HETATM   28  C6  UNL     1     -21.411  22.062  -6.962  1.00  0.00     0.030 A
HETATM   29  C7  UNL     1     -21.098  23.165  -7.770  1.00  0.00     0.027 A
HETATM   30  C8  UNL     1     -21.967  23.626  -8.730  1.00  0.00     0.059 A
HETATM   31 CL1  UNL     1     -21.604  25.006  -9.758  1.00  0.00    -0.082 Cl
HETATM   32  C9  UNL     1     -23.156  22.990  -8.888  1.00  0.00     0.095 A
HETATM   33 CL2  UNL     1     -24.341  23.502 -10.086  1.00  0.00    -0.079 Cl
HETATM   34  C10 UNL     1     -23.457  21.920  -8.102  1.00  0.00     0.163 A
HETATM   35  F1  UNL     1     -24.660  21.283  -8.268  1.00  0.00    -0.203 F
ENDBRANCH  24  27
ENDBRANCH  22  24
ENDBRANCH  17  22
ENDBRANCH   1  17
BRANCH  14  36
HETATM   36  C21 UNL     1     -17.775  18.659  -7.248  1.00  0.00    -0.005 A
HETATM   37  C22 UNL     1     -16.422  18.539  -6.940  1.00  0.00     0.014 A
HETATM   38  C23 UNL     1     -15.443  19.330  -7.516  1.00  0.00     0.003 A
HETATM   39  C24 UNL     1     -15.849  20.272  -8.434  1.00  0.00     0.024 A
HETATM   40  C25 UNL     1     -17.186  20.398  -8.744  1.00  0.00     0.035 A
HETATM   41 CL3  UNL     1     -17.690  21.603  -9.914  1.00  0.00    -0.084 Cl
HETATM   42  C26 UNL     1     -18.151  19.621  -8.178  1.00  0.00     0.037 A
ENDBRANCH  14  36
TORSDOF 7
ENDMDL