MODEL 1
REMARK VINA RESULT: -10.203411268      0.000      0.000
REMARK  9 active torsions:
REMARK  status: ('A' for Active; 'I' for Inactive)
REMARK    1  A    between atoms: O1_2  and  C2_3
REMARK    2  A    between atoms: C5_7  and  S1_8
REMARK    3  A    between atoms: S1_8  and  N1_11
REMARK    4  A    between atoms: N1_11  and  C6_13
REMARK    5  A    between atoms: C9_16  and  S2_17
REMARK    6  A    between atoms: S2_17  and  O4_18
REMARK    7  A    between atoms: S2_17  and  C10_22
REMARK    8  A    between atoms: C10_22  and  C11_23
REMARK    9  A    between atoms: C10_22  and  C17_30
ROOT
HETATM    1  C6  UNL     1     -15.142  19.876  -9.050  1.00  0.00     0.042 A
HETATM    2  C7  UNL     1     -15.295  18.698  -9.700  1.00  0.00     0.031 A
HETATM    3  C8  UNL     1     -15.983  17.592  -9.157  1.00  0.00     0.025 A
HETATM    4  C9  UNL     1     -16.514  17.729  -7.924  1.00  0.00     0.051 A
HETATM    5  C18 UNL     1     -16.406  18.862  -7.214  1.00  0.00     0.025 A
HETATM    6  C19 UNL     1     -15.728  19.931  -7.765  1.00  0.00     0.031 A
ENDROOT
BRANCH   4   7
HETATM    7  S2  UNL     1     -17.607  16.239  -7.099  1.00  0.00     0.115 SA
HETATM    8  F1  UNL     1     -15.545  15.588  -6.864  1.00  0.00    -0.138 F
HETATM    9  F2  UNL     1     -17.313  14.591  -8.078  1.00  0.00    -0.138 F
BRANCH   7  10
HETATM   10  O4  UNL     1     -18.645  16.475  -7.591  1.00  0.00    -0.307 OA
ATOM     11  H4  UNL     1     -19.012  15.598  -7.597  1.00  0.00     0.230 HD
ENDBRANCH   7  10
BRANCH   7  12
HETATM   12  C10 UNL     1     -17.617  16.148  -5.259  1.00  0.00     0.170 C
BRANCH  12  13
HETATM   13  C11 UNL     1     -18.630  17.087  -4.623  1.00  0.00    -0.037 A
HETATM   14  C12 UNL     1     -18.697  17.173  -3.247  1.00  0.00     0.010 A
HETATM   15  C13 UNL     1     -19.615  18.027  -2.683  1.00  0.00     0.024 A
HETATM   16  C14 UNL     1     -20.475  18.805  -3.422  1.00  0.00     0.034 A
HETATM   17 CL2  UNL     1     -21.637  19.887  -2.635  1.00  0.00    -0.084 Cl
HETATM   18  C15 UNL     1     -20.396  18.708  -4.786  1.00  0.00     0.024 A
HETATM   19  C16 UNL     1     -19.480  17.856  -5.391  1.00  0.00     0.010 A
ENDBRANCH  12  13
BRANCH  12  20
HETATM   20  C17 UNL     1     -17.960  14.790  -4.691  1.00  0.00     0.201 C
HETATM   21 CL3  UNL     1     -16.804  13.522  -5.192  1.00  0.00    -0.106 Cl
HETATM   22 CL4  UNL     1     -19.619  14.266  -5.056  1.00  0.00    -0.106 Cl
ENDBRANCH  12  20
ENDBRANCH   7  12
ENDBRANCH   4   7
BRANCH   1  23
HETATM   23  N1  UNL     1     -14.506  21.024  -9.569  1.00  0.00    -0.281 N
ATOM     24  H1  UNL     1     -13.493  21.061  -9.456  1.00  0.00     0.179 HD
BRANCH  23  25
HETATM   25  S1  UNL     1     -15.213  22.357 -10.361  1.00  0.00     0.265 S
HETATM   26  O2  UNL     1     -16.716  22.085 -10.483  1.00  0.00    -0.200 OA
HETATM   27  O3  UNL     1     -15.112  23.528  -9.395  1.00  0.00    -0.200 OA
BRANCH  25  28
HETATM   28  C5  UNL     1     -14.603  22.767 -11.910  1.00  0.00     0.103 A
HETATM   29  C4  UNL     1     -13.309  22.975 -12.262  1.00  0.00     0.060 A
HETATM   30  C3  UNL     1     -12.959  23.309 -13.581  1.00  0.00     0.064 A
HETATM   31 CL1  UNL     1     -11.993  22.852 -11.143  1.00  0.00    -0.083 Cl
HETATM   32  C2  UNL     1     -13.909  23.437 -14.566  1.00  0.00     0.091 A
HETATM   33  C21 UNL     1     -15.222  23.229 -14.227  1.00  0.00     0.069 A
HETATM   34  C20 UNL     1     -15.562  22.904 -12.942  1.00  0.00     0.053 A
HETATM   35 CL5  UNL     1     -16.466  23.384 -15.461  1.00  0.00    -0.081 Cl
BRANCH  32  36
HETATM   36  O1  UNL     1     -13.597  23.762 -15.863  1.00  0.00    -0.354 OA
HETATM   37  C1  UNL     1     -12.378  24.319 -16.277  1.00  0.00     0.210 C
ENDBRANCH  32  36
ENDBRANCH  25  28
ENDBRANCH  23  25
ENDBRANCH   1  23
TORSDOF 9
ENDMDL