MODEL 1
REMARK VINA RESULT: -11.022659007      0.000      0.000
REMARK  11 active torsions:
REMARK  status: ('A' for Active; 'I' for Inactive)
REMARK    1  A    between atoms: O1_2  and  C2_3
REMARK    2  A    between atoms: C5_6  and  C6_7
REMARK    3  A    between atoms: C6_7  and  C7_8
REMARK    4  A    between atoms: C7_8  and  O2_9
REMARK    5  A    between atoms: O2_9  and  C8_10
REMARK    6  A    between atoms: C11_13  and  N1_14
REMARK    7  A    between atoms: N1_14  and  C12_16
REMARK    8  A    between atoms: C13_19  and  C14_20
REMARK    9  A    between atoms: C24_37  and  O3_38
REMARK   10  A    between atoms: O3_38  and  C25_39
REMARK   11  A    between atoms: C26_40  and  C27_41
ROOT
HETATM    1  C8  UNL     1     -17.577  18.598  -6.321  1.00  0.00     0.068 A
HETATM    2  C9  UNL     1     -16.201  18.552  -6.676  1.00  0.00     0.039 A
HETATM    3  C10 UNL     1     -15.792  19.053  -7.843  1.00  0.00     0.033 A
HETATM    4  C11 UNL     1     -16.633  19.634  -8.779  1.00  0.00     0.049 A
HETATM    5  C22 UNL     1     -17.976  19.686  -8.467  1.00  0.00     0.033 A
HETATM    6  C23 UNL     1     -18.425  19.181  -7.274  1.00  0.00     0.039 A
ENDROOT
BRANCH   1   7
HETATM    7  O2  UNL     1     -17.950  18.117  -5.156  1.00  0.00    -0.351 OA
BRANCH   7   8
HETATM    8  C7  UNL     1     -18.296  17.642  -3.997  1.00  0.00     0.180 C
BRANCH   8   9
HETATM    9  C6  UNL     1     -19.684  18.087  -3.569  1.00  0.00     0.068 C
BRANCH   9  10
HETATM   10  C5  UNL     1     -20.695  18.259  -4.601  1.00  0.00    -0.021 A
HETATM   11  C4  UNL     1     -21.104  19.589  -4.889  1.00  0.00     0.013 A
HETATM   12  C3  UNL     1     -22.054  19.813  -5.899  1.00  0.00     0.037 A
HETATM   13  C2  UNL     1     -22.581  18.763  -6.589  1.00  0.00     0.070 A
HETATM   14  C33 UNL     1     -22.150  17.472  -6.269  1.00  0.00     0.075 A
HETATM   15  C24 UNL     1     -21.216  17.231  -5.291  1.00  0.00     0.096 A
BRANCH  13  16
HETATM   16  O1  UNL     1     -23.520  19.012  -7.582  1.00  0.00    -0.356 OA
HETATM   17  C1  UNL     1     -23.991  17.915  -8.356  1.00  0.00     0.210 C
ENDBRANCH  13  16
BRANCH  15  18
HETATM   18  O3  UNL     1     -20.803  15.862  -5.017  1.00  0.00    -0.260 OA
BRANCH  18  19
HETATM   19  C25 UNL     1     -19.850  15.473  -6.023  1.00  0.00     0.065 C
HETATM   20  C26 UNL     1     -18.860  15.216  -6.673  1.00  0.00    -0.036 C
BRANCH  20  21
HETATM   21  C27 UNL     1     -17.585  15.073  -7.261  1.00  0.00     0.022 A
HETATM   22  C28 UNL     1     -16.536  14.589  -6.440  1.00  0.00     0.021 A
HETATM   23  C29 UNL     1     -15.223  14.584  -6.829  1.00  0.00     0.004 A
HETATM   24  C30 UNL     1     -14.856  15.053  -8.055  1.00  0.00     0.042 A
HETATM   25  C31 UNL     1     -15.851  15.529  -8.872  1.00  0.00     0.117 A
HETATM   26  F6  UNL     1     -15.448  16.018 -10.092  1.00  0.00    -0.206 F
HETATM   27  C32 UNL     1     -17.202  15.538  -8.484  1.00  0.00     0.062 A
ENDBRANCH  20  21
ENDBRANCH  18  19
ENDBRANCH  15  18
ENDBRANCH   9  10
ENDBRANCH   8   9
ENDBRANCH   7   8
ENDBRANCH   1   7
BRANCH   4  28
HETATM   28  N1  UNL     1     -16.114  20.106  -9.981  1.00  0.00    -0.192 N
ATOM     29  H1  UNL     1     -16.007  19.445 -10.750  1.00  0.00     0.184 HD
BRANCH  28  30
HETATM   30  C12 UNL     1     -15.763  21.327 -10.178  1.00  0.00     0.683 A
HETATM   31  N2  UNL     1     -15.386  21.660 -11.403  1.00  0.00    -0.191 N
HETATM   32  C13 UNL     1     -14.993  22.893 -11.719  1.00  0.00     0.067 A
ATOM     33  H2  UNL     1     -15.395  20.946 -12.131  1.00  0.00     0.184 HD
HETATM   34  C20 UNL     1     -14.969  23.867 -10.774  1.00  0.00     0.049 A
HETATM   35  C21 UNL     1     -15.369  23.538  -9.492  1.00  0.00     0.108 A
HETATM   36  N3  UNL     1     -15.754  22.277  -9.204  1.00  0.00    -0.202 N
ATOM     37  H3  UNL     1     -16.040  22.036  -8.256  1.00  0.00     0.183 HD
BRANCH  32  38
HETATM   38  C14 UNL     1     -14.380  23.163 -13.019  1.00  0.00     0.075 A
HETATM   39  C15 UNL     1     -13.076  23.377 -13.263  1.00  0.00     0.173 A
HETATM   40  F1  UNL     1     -12.124  23.303 -12.321  1.00  0.00    -0.202 F
HETATM   41  C16 UNL     1     -12.620  23.687 -14.559  1.00  0.00     0.197 A
HETATM   42  F2  UNL     1     -11.324  23.900 -14.782  1.00  0.00    -0.199 F
HETATM   43  C17 UNL     1     -13.526  23.757 -15.561  1.00  0.00     0.199 A
HETATM   44  F3  UNL     1     -13.138  24.068 -16.838  1.00  0.00    -0.199 F
HETATM   45  C18 UNL     1     -14.871  23.545 -15.341  1.00  0.00     0.197 A
HETATM   46  F4  UNL     1     -15.724  23.630 -16.372  1.00  0.00    -0.199 F
HETATM   47  C19 UNL     1     -15.291  23.250 -14.084  1.00  0.00     0.173 A
HETATM   48  F5  UNL     1     -16.609  23.012 -13.791  1.00  0.00    -0.202 F
ENDBRANCH  32  38
ENDBRANCH  28  30
ENDBRANCH   4  28
TORSDOF 11
ENDMDL