MODEL 2
REMARK VINA RESULT: -10.249310396      0.747      1.152
REMARK  10 active torsions:
REMARK  status: ('A' for Active; 'I' for Inactive)
REMARK    1  A    between atoms: C5_5  and  C6_6
REMARK    2  A    between atoms: C6_6  and  N1_7
REMARK    3  A    between atoms: C8_11  and  N3_12
REMARK    4  A    between atoms: N3_12  and  C9_13
REMARK    5  A    between atoms: N3_12  and  S1_19
REMARK    6  A    between atoms: C9_13  and  C10_14
REMARK    7  A    between atoms: C10_14  and  C11_15
REMARK    8  A    between atoms: S1_19  and  C12_22
REMARK    9  A    between atoms: C15_25  and  N4_26
REMARK   10  A    between atoms: N4_26  and  C16_28
ROOT
HETATM    1  N3  UNL     1     -21.408  19.278  -5.447  1.00  0.00    -0.267 N
ENDROOT
BRANCH   1   2
HETATM    2  C8  UNL     1     -21.050  17.914  -5.566  1.00  0.00     0.102 A
HETATM    3  C7  UNL     1     -21.875  16.933  -6.135  1.00  0.00     0.141 A
HETATM    4  N2  UNL     1     -21.217  15.758  -6.065  1.00  0.00    -0.306 N
HETATM    5  N1  UNL     1     -20.042  15.930  -5.496  1.00  0.00    -0.275 N
ATOM      6  H2  UNL     1     -21.577  14.865  -6.404  1.00  0.00     0.186 HD
HETATM    7  C23 UNL     1     -19.926  17.231  -5.188  1.00  0.00     0.149 A
HETATM    8 CL2  UNL     1     -18.522  17.945  -4.426  1.00  0.00    -0.060 Cl
BRANCH   5   9
HETATM    9  C6  UNL     1     -19.075  14.908  -5.255  1.00  0.00     0.190 C
BRANCH   9  10
HETATM   10  C5  UNL     1     -17.950  14.959  -6.178  1.00  0.00    -0.017 A
HETATM   11  C4  UNL     1     -18.060  15.559  -7.398  1.00  0.00     0.011 A
HETATM   12  C3  UNL     1     -17.001  15.611  -8.277  1.00  0.00     0.007 A
HETATM   13  C2  UNL     1     -15.785  15.050  -7.938  1.00  0.00    -0.060 A
HETATM   14  C1  UNL     1     -14.665  15.123  -8.908  1.00  0.00     0.048 C
HETATM   15  C25 UNL     1     -15.659  14.446  -6.722  1.00  0.00     0.031 A
HETATM   16  C24 UNL     1     -16.741  14.400  -5.842  1.00  0.00     0.042 A
HETATM   17 CL3  UNL     1     -16.471  13.603  -4.306  1.00  0.00    -0.084 Cl
ENDBRANCH   9  10
ENDBRANCH   5   9
ENDBRANCH   1   2
BRANCH   1  18
HETATM   18  C9  UNL     1     -21.774  19.816  -4.168  1.00  0.00     0.151 C
BRANCH  18  19
HETATM   19  C10 UNL     1     -23.003  19.255  -3.545  1.00  0.00     0.138 C
BRANCH  19  20
HETATM   20  C11 UNL     1     -23.550  20.337  -2.610  1.00  0.00     0.389 C
HETATM   21  F1  UNL     1     -24.051  21.397  -3.368  1.00  0.00    -0.171 F
HETATM   22  F2  UNL     1     -24.603  19.844  -1.876  1.00  0.00    -0.171 F
HETATM   23  F3  UNL     1     -22.504  20.756  -1.811  1.00  0.00    -0.171 F
ENDBRANCH  19  20
ENDBRANCH  18  19
ENDBRANCH   1  18
BRANCH   1  24
HETATM   24  S1  UNL     1     -21.444  20.300  -6.830  1.00  0.00     0.265 S
HETATM   25  O1  UNL     1     -22.608  19.923  -7.738  1.00  0.00    -0.200 OA
HETATM   26  O2  UNL     1     -21.763  21.720  -6.376  1.00  0.00    -0.200 OA
BRANCH  24  27
HETATM   27  C12 UNL     1     -19.947  20.311  -7.722  1.00  0.00     0.080 A
HETATM   28  C13 UNL     1     -19.693  21.158  -8.788  1.00  0.00     0.027 A
HETATM   29  C14 UNL     1     -18.504  21.146  -9.476  1.00  0.00     0.031 A
HETATM   30  C15 UNL     1     -17.493  20.277  -9.131  1.00  0.00     0.033 A
HETATM   31  C21 UNL     1     -17.722  19.425  -8.074  1.00  0.00     0.031 A
HETATM   32  C22 UNL     1     -18.920  19.450  -7.395  1.00  0.00     0.027 A
BRANCH  30  33
HETATM   33  N4  UNL     1     -16.250  20.237  -9.819  1.00  0.00    -0.343 N
ATOM     34  H4  UNL     1     -15.848  19.322 -10.024  1.00  0.00     0.167 HD
BRANCH  33  35
HETATM   35  C16 UNL     1     -15.605  21.267 -10.197  1.00  0.00     0.105 A
HETATM   36  C17 UNL     1     -15.003  22.035  -9.209  1.00  0.00     0.050 A
HETATM   37  C18 UNL     1     -14.278  23.174  -9.493  1.00  0.00     0.029 A
HETATM   38  C19 UNL     1     -14.139  23.569 -10.788  1.00  0.00     0.049 A
HETATM   39 CL1  UNL     1     -13.222  25.009 -11.162  1.00  0.00    -0.083 Cl
HETATM   40  C20 UNL     1     -14.745  22.795 -11.777  1.00  0.00     0.113 A
HETATM   41  N5  UNL     1     -15.452  21.678 -11.457  1.00  0.00    -0.351 N
ATOM     42  H5  UNL     1     -15.881  21.135 -12.206  1.00  0.00     0.166 HD
ENDBRANCH  33  35
ENDBRANCH  30  33
ENDBRANCH  24  27
ENDBRANCH   1  24
TORSDOF 10
ENDMDL