MODEL 2
REMARK VINA RESULT: -7.687045807      2.141      3.046
REMARK  8 active torsions:
REMARK  status: ('A' for Active; 'I' for Inactive)
REMARK    1  A    between atoms: C2_2  and  C3_3
REMARK    2  A    between atoms: C3_3  and  N1_4
REMARK       I    between atoms: N1_4  and  C4_6
REMARK    3  A    between atoms: C4_6  and  C5_8
REMARK    4  A    between atoms: C5_8  and  S1_9
REMARK    5  A    between atoms: S1_9  and  C6_10
REMARK    6  A    between atoms: C7_15  and  N4_16
REMARK    7  A    between atoms: N4_16  and  N5_18
REMARK    8  A    between atoms: N6_20  and  N7_22
ROOT
HETATM    1  C6  UNL     1       6.402  25.626  30.992  1.00  0.00     0.174 A
HETATM    2  N2  UNL     1       6.353  26.395  32.079  1.00  0.00    -0.265 N
ATOM      3  H2  UNL     1       6.889  27.253  32.206  1.00  0.00     0.189 HD
HETATM    4  N3  UNL     1       5.515  25.893  32.971  1.00  0.00    -0.129 N
ATOM      5  H3  UNL     1       5.307  26.300  33.884  1.00  0.00     0.205 HD
HETATM    6  C7  UNL     1       4.993  24.777  32.489  1.00  0.00     0.714 A
HETATM    7  N8  UNL     1       5.536  24.610  31.269  1.00  0.00    -0.166 N
ATOM      8  H8  UNL     1       5.329  23.833  30.641  1.00  0.00     0.186 HD
ENDROOT
BRANCH   1   9
HETATM    9  S1  UNL     1       7.318  25.753  29.470  1.00  0.00    -0.083 SA
BRANCH   9  10
HETATM   10  C5  UNL     1       8.891  26.610  29.658  1.00  0.00     0.185 C
BRANCH  10  11
HETATM   11  C4  UNL     1      10.063  25.752  29.699  1.00  0.00     0.227 C
HETATM   12  N1  UNL     1      11.354  26.149  29.353  1.00  0.00    -0.357 N
ATOM     13  H1  UNL     1      11.515  27.109  29.048  1.00  0.00     0.162 HD
HETATM   14  O1  UNL     1       9.893  24.543  30.083  1.00  0.00    -0.273 OA
BRANCH  12  15
HETATM   15  C3  UNL     1      12.476  25.226  29.419  1.00  0.00     0.149 C
BRANCH  15  16
HETATM   16  C2  UNL     1      13.239  25.193  28.150  1.00  0.00    -0.018 C
HETATM   17  C1  UNL     1      14.502  24.839  28.101  1.00  0.00     0.008 C
ENDBRANCH  15  16
ENDBRANCH  12  15
ENDBRANCH  10  11
ENDBRANCH   9  10
ENDBRANCH   1   9
BRANCH   6  18
HETATM   18  N4  UNL     1       4.044  23.881  33.080  1.00  0.00    -0.115 N
ATOM     19  H4  UNL     1       4.094  22.891  32.842  1.00  0.00     0.207 HD
BRANCH  18  20
HETATM   20  N5  UNL     1       3.060  24.306  33.962  1.00  0.00    -0.214 N
HETATM   21  N6  UNL     1       2.701  23.491  34.880  1.00  0.00    -0.233 N
ATOM     22  H6  UNL     1       1.980  23.771  35.545  1.00  0.00     0.209 HD
ATOM     23  H5  UNL     1       2.639  25.233  33.880  1.00  0.00     0.210 HD
BRANCH  21  24
HETATM   24  N7  UNL     1       3.279  22.222  34.989  1.00  0.00    -0.325 N
HETATM   25  C8  UNL     1       2.431  21.125  35.404  1.00  0.00     0.169 C
ATOM     26  H7  UNL     1       4.267  22.074  34.782  1.00  0.00     0.181 HD
ENDBRANCH  21  24
ENDBRANCH  18  20
ENDBRANCH   6  18
TORSDOF 8
ENDMDL