MODEL 3
REMARK VINA RESULT: -6.911138075      3.008      7.768
REMARK  10 active torsions:
REMARK  status: ('A' for Active; 'I' for Inactive)
REMARK    1  A    between atoms: C2_2  and  C3_3
REMARK    2  A    between atoms: C3_3  and  N1_4
REMARK    3  A    between atoms: N1_4  and  C4_7
REMARK    4  A    between atoms: C4_7  and  C5_8
REMARK    5  A    between atoms: C5_8  and  N2_9
REMARK    6  A    between atoms: N2_9  and  C6_11
REMARK    7  A    between atoms: C9_14  and  N3_15
REMARK    8  A    between atoms: C10_18  and  C11_19
REMARK    9  A    between atoms: N4_20  and  N5_22
REMARK   10  A    between atoms: N5_22  and  N6_24
ROOT
HETATM    1  C6  UNL     1       8.895  26.610  29.335  1.00  0.00     0.029 A
HETATM    2  C7  UNL     1       8.326  26.113  28.195  1.00  0.00     0.031 A
HETATM    3  C8  UNL     1       7.194  25.338  28.212  1.00  0.00     0.039 A
HETATM    4  C9  UNL     1       6.548  25.005  29.420  1.00  0.00     0.114 A
HETATM    5  C10 UNL     1       7.121  25.502  30.565  1.00  0.00     0.016 A
HETATM    6  C12 UNL     1       8.278  26.295  30.521  1.00  0.00     0.044 A
ENDROOT
BRANCH   1   7
HETATM    7  N2  UNL     1      10.096  27.416  29.353  1.00  0.00    -0.388 N
ATOM      8  H2  UNL     1      10.049  28.375  29.699  1.00  0.00     0.159 HD
BRANCH   7   9
HETATM    9  C5  UNL     1      11.338  26.900  28.900  1.00  0.00     0.147 C
BRANCH   9  10
HETATM   10  C4  UNL     1      11.713  25.538  29.425  1.00  0.00     0.252 C
BRANCH  10  11
HETATM   11  N1  UNL     1      13.155  25.392  29.204  1.00  0.00    -0.071 N
ATOM     12  H12 UNL     1      13.613  24.773  29.872  1.00  0.00     0.277 HD
ATOM     13  H11 UNL     1      13.693  26.229  29.431  1.00  0.00     0.277 HD
BRANCH  11  14
HETATM   14  C3  UNL     1      13.287  24.965  27.817  1.00  0.00     0.259 C
BRANCH  14  15
HETATM   15  C2  UNL     1      14.724  24.958  27.476  1.00  0.00    -0.010 C
HETATM   16  C1  UNL     1      15.391  23.812  27.459  1.00  0.00     0.008 C
ENDBRANCH  14  15
ENDBRANCH  11  14
ENDBRANCH  10  11
ENDBRANCH   9  10
ENDBRANCH   7   9
ENDBRANCH   1   7
BRANCH   5  17
HETATM   17  C11 UNL     1       6.552  25.184  31.863  1.00  0.00     0.122 C
HETATM   18  N4  UNL     1       5.659  25.955  32.415  1.00  0.00    -0.297 N
ATOM     19  H4  UNL     1       5.364  26.793  31.914  1.00  0.00     0.187 HD
BRANCH  18  20
HETATM   20  N5  UNL     1       5.093  25.693  33.641  1.00  0.00    -0.250 N
ATOM     21  H5  UNL     1       5.540  24.984  34.222  1.00  0.00     0.207 HD
BRANCH  20  22
HETATM   22  N6  UNL     1       3.961  26.317  34.149  1.00  0.00    -0.331 N
ATOM     23  H62 UNL     1       3.072  25.842  33.989  1.00  0.00     0.178 HD
ATOM     24  H61 UNL     1       3.957  27.200  34.661  1.00  0.00     0.178 HD
ENDBRANCH  20  22
ENDBRANCH  18  20
ENDBRANCH   5  17
BRANCH   4  25
HETATM   25  N3  UNL     1       5.397  24.192  29.349  1.00  0.00    -0.115 N
HETATM   26  O1  UNL     1       4.396  24.513  30.015  1.00  0.00    -0.532 OA
HETATM   27  O2  UNL     1       5.327  23.070  28.602  1.00  0.00    -0.532 OA
ENDBRANCH   4  25
TORSDOF 10
ENDMDL