MODEL 3
REMARK VINA RESULT: -7.343429433      1.732      2.229
REMARK  10 active torsions:
REMARK  status: ('A' for Active; 'I' for Inactive)
REMARK    1  A    between atoms: N1_1  and  N2_4
REMARK    2  A    between atoms: N3_6  and  N4_8
REMARK    3  A    between atoms: C1_10  and  N5_11
REMARK    4  A    between atoms: N5_11  and  C2_13
REMARK    5  A    between atoms: C2_13  and  C3_14
REMARK    6  A    between atoms: C3_14  and  C4_15
REMARK    7  A    between atoms: C4_15  and  N6_16
REMARK    8  A    between atoms: N6_16  and  C5_18
REMARK    9  A    between atoms: C6_19  and  O1_20
REMARK   10  A    between atoms: C9_24  and  N7_25
ROOT
HETATM    1  C3  UNL     1       7.126  25.053  30.385  1.00  0.00     0.039 C
ENDROOT
BRANCH   1   2
HETATM    2  C2  UNL     1       6.248  25.714  31.419  1.00  0.00     0.122 C
BRANCH   2   3
HETATM    3  N5  UNL     1       5.373  24.702  31.999  1.00  0.00    -0.385 N
ATOM      4  H5  UNL     1       5.410  23.750  31.633  1.00  0.00     0.160 HD
BRANCH   3   5
HETATM    5  C1  UNL     1       4.475  24.995  33.051  1.00  0.00     0.194 C
HETATM    6  N4  UNL     1       4.584  26.099  33.687  1.00  0.00    -0.281 N
ATOM      7  H4  UNL     1       5.329  26.732  33.399  1.00  0.00     0.189 HD
BRANCH   6   8
HETATM    8  N3  UNL     1       3.777  26.505  34.728  1.00  0.00    -0.228 N
HETATM    9  N2  UNL     1       3.112  27.573  34.725  1.00  0.00    -0.235 N
ATOM     10  H2  UNL     1       2.538  27.805  35.535  1.00  0.00     0.209 HD
ATOM     11  H3  UNL     1       3.716  25.904  35.550  1.00  0.00     0.210 HD
BRANCH   9  12
HETATM   12  N1  UNL     1       3.145  28.447  33.634  1.00  0.00    -0.330 N
ATOM     13  H12 UNL     1       3.684  28.175  32.812  1.00  0.00     0.178 HD
ATOM     14  H11 UNL     1       2.645  29.337  33.652  1.00  0.00     0.178 HD
ENDBRANCH   9  12
ENDBRANCH   6   8
ENDBRANCH   3   5
ENDBRANCH   2   3
ENDBRANCH   1   2
BRANCH   1  15
HETATM   15  C4  UNL     1       7.160  25.849  29.093  1.00  0.00     0.116 C
BRANCH  15  16
HETATM   16  N6  UNL     1       8.464  25.689  28.515  1.00  0.00    -0.412 N
ATOM     17  H6  UNL     1       8.595  25.480  27.525  1.00  0.00     0.153 HD
BRANCH  16  18
HETATM   18  C5  UNL     1       9.564  25.839  29.404  1.00  0.00     0.134 C
HETATM   19  C6  UNL     1      10.283  27.145  29.273  1.00  0.00     0.142 C
HETATM   20  C7  UNL     1      11.772  26.811  29.106  1.00  0.00     0.036 C
HETATM   21  C8  UNL     1      11.855  25.423  29.675  1.00  0.00     0.036 C
HETATM   22  C9  UNL     1      10.597  24.760  29.149  1.00  0.00     0.180 C
BRANCH  19  23
HETATM   23  O1  UNL     1       9.902  27.929  28.214  1.00  0.00    -0.393 OA
ATOM     24  H1  UNL     1       9.678  28.828  28.427  1.00  0.00     0.210 HD
ENDBRANCH  19  23
BRANCH  22  25
HETATM   25  N7  UNL     1      10.688  24.323  27.800  1.00  0.00    -0.148 N
HETATM   26  O2  UNL     1      10.959  23.110  27.570  1.00  0.00    -0.536 OA
HETATM   27  O3  UNL     1      10.508  25.094  26.693  1.00  0.00    -0.536 OA
ENDBRANCH  22  25
ENDBRANCH  16  18
ENDBRANCH  15  16
ENDBRANCH   1  15
TORSDOF 10
ENDMDL