MODEL 2
REMARK VINA RESULT: -7.215177475      3.453      7.651
REMARK  9 active torsions:
REMARK  status: ('A' for Active; 'I' for Inactive)
REMARK    1  A    between atoms: C2_2  and  C3_3
REMARK    2  A    between atoms: C3_3  and  C4_4
REMARK    3  A    between atoms: C3_3  and  N4_17
REMARK    4  A    between atoms: C4_4  and  C5_5
REMARK    5  A    between atoms: C7_11  and  N3_12
REMARK    6  A    between atoms: N3_12  and  C8_14
REMARK    7  A    between atoms: C8_14  and  C9_15
REMARK    8  A    between atoms: N4_17  and  C10_19
REMARK    9  A    between atoms: C10_19  and  C11_20
ROOT
HETATM    1  C3  UNL     1       6.639  26.011  30.416  1.00  0.00     0.105 C
ENDROOT
BRANCH   1   2
HETATM    2  C2  UNL     1       5.722  25.532  29.402  1.00  0.00    -0.012 C
HETATM    3  C1  UNL     1       5.940  24.240  29.027  1.00  0.00     0.009 C
ENDBRANCH   1   2
BRANCH   1   4
HETATM    4  C4  UNL     1       8.019  25.391  30.128  1.00  0.00     0.089 C
BRANCH   4   5
HETATM    5  C5  UNL     1       9.100  26.339  29.860  1.00  0.00     0.056 A
HETATM    6  N1  UNL     1       9.279  27.622  30.040  1.00  0.00    -0.353 N
HETATM    7  C6  UNL     1      10.476  28.042  29.646  1.00  0.00     0.182 A
ATOM      8  H1  UNL     1       8.572  28.237  30.441  1.00  0.00     0.166 HD
HETATM    9  N2  UNL     1      11.092  26.944  29.187  1.00  0.00    -0.337 N
HETATM   10  C7  UNL     1      10.312  25.870  29.290  1.00  0.00     0.125 A
ATOM     11  H2  UNL     1      12.038  26.932  28.807  1.00  0.00     0.168 HD
BRANCH  10  12
HETATM   12  N3  UNL     1      10.583  24.522  29.049  1.00  0.00    -0.368 N
ATOM     13  H3  UNL     1      10.489  23.921  29.869  1.00  0.00     0.161 HD
BRANCH  12  14
HETATM   14  C8  UNL     1      10.973  23.831  27.843  1.00  0.00     0.190 C
BRANCH  14  15
HETATM   15  C9  UNL     1      10.854  24.719  26.692  1.00  0.00     0.250 C
HETATM   16  O1  UNL     1      11.692  25.520  26.335  1.00  0.00    -0.305 OA
ENDBRANCH  14  15
ENDBRANCH  12  14
ENDBRANCH  10  12
ENDBRANCH   4   5
ENDBRANCH   1   4
BRANCH   1  17
HETATM   17  N4  UNL     1       6.470  25.985  31.749  1.00  0.00    -0.407 N
ATOM     18  H4  UNL     1       6.460  26.860  32.274  1.00  0.00     0.154 HD
BRANCH  17  19
HETATM   19  C10 UNL     1       6.304  24.731  32.444  1.00  0.00     0.194 C
BRANCH  19  20
HETATM   20  C11 UNL     1       4.959  24.905  33.116  1.00  0.00     0.130 A
HETATM   21  N5  UNL     1       4.350  25.935  33.633  1.00  0.00    -0.271 N
HETATM   22  N6  UNL     1       3.215  25.514  34.238  1.00  0.00    -0.227 N
ATOM     23  H5  UNL     1       4.676  26.901  33.588  1.00  0.00     0.190 HD
HETATM   24  N7  UNL     1       3.119  24.218  34.092  1.00  0.00    -0.227 N
ATOM     25  H6  UNL     1       2.546  26.109  34.727  1.00  0.00     0.210 HD
HETATM   26  N8  UNL     1       4.161  23.818  33.414  1.00  0.00    -0.271 N
ATOM     27  H7  UNL     1       2.366  23.627  34.445  1.00  0.00     0.210 HD
ATOM     28  H8  UNL     1       4.355  22.853  33.145  1.00  0.00     0.190 HD
ENDBRANCH  19  20
ENDBRANCH  17  19
ENDBRANCH   1  17
TORSDOF 9
ENDMDL