MODEL 2
REMARK VINA RESULT: -4.767599041      1.261      2.121
REMARK  10 active torsions:
REMARK  status: ('A' for Active; 'I' for Inactive)
REMARK    1  A    between atoms: C2_2  and  C3_3
REMARK    2  A    between atoms: C3_3  and  N1_4
REMARK    3  A    between atoms: N1_4  and  C4_5
REMARK    4  A    between atoms: N1_4  and  C6_9
REMARK    5  A    between atoms: C4_5  and  C5_6
REMARK    6  A    between atoms: C5_6  and  O1_7
REMARK    7  A    between atoms: C9_20  and  N6_21
REMARK    8  A    between atoms: N6_21  and  C10_23
REMARK    9  A    between atoms: C10_23  and  C11_24
REMARK   10  A    between atoms: C11_24  and  N7_25
ROOT
HETATM    1  C6  UNL     1       2.591  27.331  33.781  1.00  0.00     0.136 A
HETATM    2  N2  UNL     1       1.793  27.231  34.912  1.00  0.00    -0.283 N
ATOM      3  H2  UNL     1       1.242  27.995  35.302  1.00  0.00     0.188 HD
HETATM    4  N3  UNL     1       1.844  26.030  35.407  1.00  0.00    -0.283 N
ATOM      5  H3  UNL     1       1.352  25.694  36.235  1.00  0.00     0.188 HD
HETATM    6  C7  UNL     1       2.674  25.312  34.615  1.00  0.00     0.138 A
HETATM    7  N4  UNL     1       3.056  24.041  34.699  1.00  0.00    -0.337 N
ATOM      8  H4  UNL     1       2.712  23.445  35.451  1.00  0.00     0.168 HD
HETATM    9  C8  UNL     1       3.902  23.556  33.776  1.00  0.00     0.183 A
HETATM   10  N5  UNL     1       4.375  24.302  32.777  1.00  0.00    -0.338 N
ATOM     11  H5  UNL     1       5.015  23.893  32.096  1.00  0.00     0.168 HD
HETATM   12  C9  UNL     1       4.005  25.603  32.662  1.00  0.00     0.120 A
HETATM   13  C12 UNL     1       3.155  26.117  33.581  1.00  0.00     0.098 A
ENDROOT
BRANCH   1  14
HETATM   14  N1  UNL     1       2.733  28.553  33.100  1.00  0.00    -0.360 N
BRANCH  14  15
HETATM   15  C3  UNL     1       1.864  28.840  31.992  1.00  0.00     0.151 C
BRANCH  15  16
HETATM   16  C2  UNL     1       0.709  29.609  32.533  1.00  0.00    -0.017 C
HETATM   17  C1  UNL     1      -0.487  29.050  32.733  1.00  0.00     0.008 C
ENDBRANCH  15  16
ENDBRANCH  14  15
BRANCH  14  18
HETATM   18  C4  UNL     1       3.769  29.473  33.448  1.00  0.00     0.151 C
BRANCH  18  19
HETATM   19  C5  UNL     1       3.375  30.729  34.130  1.00  0.00     0.183 C
BRANCH  19  20
HETATM   20  O1  UNL     1       4.149  31.806  33.724  1.00  0.00    -0.399 OA
ATOM     21  H1  UNL     1       4.005  32.573  34.266  1.00  0.00     0.209 HD
ENDBRANCH  19  20
ENDBRANCH  18  19
ENDBRANCH  14  18
ENDBRANCH   1  14
BRANCH  12  22
HETATM   22  N6  UNL     1       4.487  26.327  31.557  1.00  0.00    -0.374 N
ATOM     23  H6  UNL     1       3.934  27.099  31.184  1.00  0.00     0.161 HD
BRANCH  22  24
HETATM   24  C10 UNL     1       5.752  25.995  30.940  1.00  0.00     0.148 C
BRANCH  24  25
HETATM   25  C11 UNL     1       5.646  25.534  29.519  1.00  0.00     0.249 C
BRANCH  25  26
HETATM   26  N7  UNL     1       5.557  24.085  29.413  1.00  0.00    -0.078 N
ATOM     27  H73 UNL     1       5.291  23.666  30.304  1.00  0.00     0.274 HD
ATOM     28  H72 UNL     1       4.751  23.806  28.855  1.00  0.00     0.274 HD
ATOM     29  H71 UNL     1       6.415  23.669  29.053  1.00  0.00     0.274 HD
ENDBRANCH  25  26
ENDBRANCH  24  25
ENDBRANCH  22  24
ENDBRANCH  12  22
TORSDOF 10
ENDMDL