MODEL 5
REMARK VINA RESULT: -5.892823488      1.094      3.952
REMARK  11 active torsions:
REMARK  status: ('A' for Active; 'I' for Inactive)
REMARK    1  A    between atoms: C2_2  and  N1_4
REMARK    2  A    between atoms: N1_4  and  C4_6
REMARK    3  A    between atoms: C5_9  and  C6_10
REMARK    4  A    between atoms: C6_10  and  N3_12
REMARK    5  A    between atoms: N5_18  and  C8_19
REMARK    6  A    between atoms: C8_19  and  O1_20
REMARK    7  A    between atoms: O1_20  and  C9_21
REMARK    8  A    between atoms: C9_21  and  C10_22
REMARK    9  A    between atoms: C10_22  and  C11_23
REMARK   10  A    between atoms: C11_23  and  N6_24
REMARK   11  A    between atoms: C11_23  and  N7_28
ROOT
HETATM    1  C4  UNL     1       3.628  24.245  33.882  1.00  0.00     0.698 A
HETATM    2  N2  UNL     1       4.657  23.953  33.010  1.00  0.00    -0.176 N
ATOM      3  H2  UNL     1       5.031  23.017  32.847  1.00  0.00     0.185 HD
HETATM    4  C5  UNL     1       5.094  25.055  32.413  1.00  0.00     0.142 A
HETATM    5  N4  UNL     1       4.350  26.052  32.898  1.00  0.00    -0.268 N
ATOM      6  H4  UNL     1       4.437  27.035  32.639  1.00  0.00     0.189 HD
HETATM    7  N5  UNL     1       3.464  25.550  33.788  1.00  0.00    -0.099 N
ENDROOT
BRANCH   7   8
HETATM    8  C8  UNL     1       2.553  26.461  34.465  1.00  0.00     0.335 C
BRANCH   8   9
HETATM    9  O1  UNL     1       2.251  27.564  33.713  1.00  0.00    -0.370 OA
BRANCH   9  10
HETATM   10  C9  UNL     1       2.545  28.713  34.415  1.00  0.00     0.173 C
BRANCH  10  11
HETATM   11  C10 UNL     1       2.302  29.995  33.692  1.00  0.00     0.088 C
BRANCH  11  12
HETATM   12  C11 UNL     1       0.808  30.206  33.421  1.00  0.00     0.380 C
BRANCH  12  13
HETATM   13  N6  UNL     1       0.007  29.628  34.501  1.00  0.00    -0.050 N
ATOM     14  H63 UNL     1       0.517  28.904  35.007  1.00  0.00     0.276 HD
ATOM     15  H62 UNL     1      -0.126  30.285  35.270  1.00  0.00     0.276 HD
ATOM     16  H61 UNL     1      -0.882  29.283  34.139  1.00  0.00     0.276 HD
ENDBRANCH  12  13
BRANCH  12  17
HETATM   17  N7  UNL     1       0.496  29.456  32.223  1.00  0.00    -0.050 N
ATOM     18  H73 UNL     1       0.175  28.507  32.414  1.00  0.00     0.276 HD
ATOM     19  H72 UNL     1      -0.346  29.783  31.750  1.00  0.00     0.276 HD
ATOM     20  H71 UNL     1       1.328  29.489  31.634  1.00  0.00     0.276 HD
ENDBRANCH  12  17
ENDBRANCH  11  12
ENDBRANCH  10  11
ENDBRANCH   9  10
ENDBRANCH   8   9
ENDBRANCH   7   8
BRANCH   1  21
HETATM   21  N1  UNL     1       2.994  23.224  34.602  1.00  0.00    -0.221 N
ATOM     22  H1  UNL     1       2.243  23.544  35.214  1.00  0.00     0.178 HD
BRANCH  21  23
HETATM   23  C2  UNL     1       3.216  21.815  34.629  1.00  0.00     0.091 C
HETATM   24  C1  UNL     1       2.095  20.981  35.142  1.00  0.00     0.032 C
HETATM   25  C3  UNL     1       4.430  21.490  35.545  1.00  0.00     0.032 C
ENDBRANCH  21  23
ENDBRANCH   1  21
BRANCH   4  26
HETATM   26  C6  UNL     1       6.193  25.162  31.404  1.00  0.00     0.248 C
HETATM   27  C7  UNL     1       5.557  25.490  30.062  1.00  0.00     0.048 C
BRANCH  26  28
HETATM   28  N3  UNL     1       6.974  23.948  31.346  1.00  0.00    -0.069 N
ATOM     29  H33 UNL     1       6.692  23.288  32.070  1.00  0.00     0.275 HD
ATOM     30  H32 UNL     1       6.740  23.391  30.525  1.00  0.00     0.275 HD
ATOM     31  H31 UNL     1       7.973  24.147  31.391  1.00  0.00     0.275 HD
ENDBRANCH  26  28
ENDBRANCH   4  26
TORSDOF 11
ENDMDL