MODEL 5
REMARK VINA RESULT: -8.282360801      1.929      8.389
REMARK  10 active torsions:
REMARK  status: ('A' for Active; 'I' for Inactive)
REMARK    1  A    between atoms: N1_1  and  C1_5
REMARK    2  A    between atoms: C1_5  and  C2_6
REMARK    3  A    between atoms: C2_6  and  C3_7
REMARK    4  A    between atoms: C3_7  and  C4_8
REMARK    5  A    between atoms: C4_8  and  N2_9
REMARK    6  A    between atoms: C4_8  and  C5_13
REMARK    7  A    between atoms: C5_13  and  N3_14
REMARK    8  A    between atoms: C5_13  and  N4_18
REMARK    9  A    between atoms: N4_18  and  C6_20
REMARK   10  A    between atoms: C6_20  and  C7_21
ROOT
HETATM    1  C5  UNL     1       6.354  25.435  31.215  1.00  0.00     0.312 C
ENDROOT
BRANCH   1   2
HETATM    2  C4  UNL     1       5.919  25.390  29.761  1.00  0.00     0.233 C
BRANCH   2   3
HETATM    3  C3  UNL     1       6.978  25.896  28.841  1.00  0.00     0.038 C
BRANCH   3   4
HETATM    4  C2  UNL     1       8.302  26.296  29.313  1.00  0.00     0.029 C
BRANCH   4   5
HETATM    5  C1  UNL     1       9.410  25.338  28.932  1.00  0.00     0.229 C
BRANCH   5   6
HETATM    6  N1  UNL     1       9.723  24.438  30.030  1.00  0.00    -0.079 N
ATOM      7  H13 UNL     1      10.337  24.879  30.716  1.00  0.00     0.274 HD
ATOM      8  H12 UNL     1       8.912  24.278  30.628  1.00  0.00     0.274 HD
ATOM      9  H11 UNL     1      10.115  23.561  29.685  1.00  0.00     0.274 HD
ENDBRANCH   5   6
ENDBRANCH   4   5
ENDBRANCH   3   4
ENDBRANCH   2   3
BRANCH   2  10
HETATM   10  N2  UNL     1       5.487  24.082  29.356  1.00  0.00    -0.071 N
ATOM     11  H23 UNL     1       5.269  23.489  30.157  1.00  0.00     0.274 HD
ATOM     12  H22 UNL     1       4.561  24.104  28.927  1.00  0.00     0.274 HD
ATOM     13  H21 UNL     1       6.180  23.652  28.743  1.00  0.00     0.274 HD
ENDBRANCH   2  10
ENDBRANCH   1   2
BRANCH   1  14
HETATM   14  N3  UNL     1       6.560  24.036  31.667  1.00  0.00    -0.056 N
ATOM     15  H33 UNL     1       6.755  23.967  32.667  1.00  0.00     0.276 HD
ATOM     16  H32 UNL     1       5.700  23.487  31.660  1.00  0.00     0.276 HD
ATOM     17  H31 UNL     1       7.295  23.629  31.091  1.00  0.00     0.276 HD
ENDBRANCH   1  14
BRANCH   1  18
HETATM   18  N4  UNL     1       5.450  26.007  32.113  1.00  0.00    -0.367 N
ATOM     19  H4  UNL     1       5.650  26.955  32.433  1.00  0.00     0.161 HD
BRANCH  18  20
HETATM   20  C6  UNL     1       4.286  25.391  32.615  1.00  0.00     0.143 C
BRANCH  20  21
HETATM   21  C7  UNL     1       3.483  26.594  33.100  1.00  0.00     0.187 A
HETATM   22  N5  UNL     1       3.409  27.873  32.885  1.00  0.00    -0.318 N
HETATM   23  C8  UNL     1       2.420  28.427  33.663  1.00  0.00     0.138 A
ATOM     24  H5  UNL     1       3.998  28.391  32.234  1.00  0.00     0.169 HD
HETATM   25  C9  UNL     1       1.938  29.752  33.931  1.00  0.00     0.010 A
HETATM   26  N6  UNL     1       1.900  27.374  34.384  1.00  0.00    -0.242 N
HETATM   27  C10 UNL     1       2.666  30.897  33.933  1.00  0.00     0.015 A
HETATM   28  C14 UNL     1       0.554  29.875  34.088  1.00  0.00     0.015 A
HETATM   29  C11 UNL     1       2.072  32.131  34.079  1.00  0.00     0.001 A
HETATM   30  C12 UNL     1       0.759  32.238  34.233  1.00  0.00     0.000 A
HETATM   31  C13 UNL     1      -0.049  31.101  34.251  1.00  0.00     0.001 A
HETATM   32  O1  UNL     1       2.549  26.338  34.027  1.00  0.00    -0.217 OA
ATOM     33  H6  UNL     1       1.145  27.416  35.069  1.00  0.00     0.196 HD
ENDBRANCH  20  21
ENDBRANCH  18  20
ENDBRANCH   1  18
TORSDOF 10
ENDMDL