MODEL 5
REMARK VINA RESULT: -5.598576871      5.174      8.521
REMARK  10 active torsions:
REMARK  status: ('A' for Active; 'I' for Inactive)
REMARK    1  A    between atoms: N1_1  and  C1_5
REMARK    2  A    between atoms: C1_5  and  C2_6
REMARK    3  A    between atoms: C3_9  and  S1_10
REMARK    4  A    between atoms: S1_10  and  C4_11
REMARK    5  A    between atoms: C4_11  and  C5_12
REMARK    6  A    between atoms: C5_12  and  O1_13
REMARK    7  A    between atoms: O1_13  and  C6_14
REMARK    8  A    between atoms: C6_14  and  C7_15
REMARK    9  A    between atoms: C7_15  and  S2_16
REMARK   10  A    between atoms: S2_16  and  N3_17
ROOT
HETATM    1  C2  UNL     1       4.407  25.631  32.535  1.00  0.00     0.078 A
HETATM    2  N2  UNL     1       4.046  26.894  32.856  1.00  0.00    -0.336 N
ATOM      3  H2  UNL     1       4.385  27.733  32.386  1.00  0.00     0.168 HD
HETATM    4  C3  UNL     1       3.201  26.888  33.857  1.00  0.00     0.146 A
HETATM    5  N4  UNL     1       2.990  25.603  34.237  1.00  0.00    -0.324 N
ATOM      6  H4  UNL     1       2.385  25.289  34.996  1.00  0.00     0.169 HD
HETATM    7  C8  UNL     1       3.722  24.821  33.434  1.00  0.00     0.142 A
HETATM    8  N5  UNL     1       3.764  23.385  33.553  1.00  0.00    -0.081 NA
ENDROOT
BRANCH   4   9
HETATM    9  S1  UNL     1       2.226  28.189  34.634  1.00  0.00    -0.092 SA
BRANCH   9  10
HETATM   10  C4  UNL     1       2.413  29.647  33.491  1.00  0.00     0.108 C
BRANCH  10  11
HETATM   11  C5  UNL     1       1.022  30.056  33.141  1.00  0.00     0.178 C
BRANCH  11  12
HETATM   12  O1  UNL     1       0.245  28.851  33.036  1.00  0.00    -0.390 OA
BRANCH  12  13
HETATM   13  C6  UNL     1      -0.904  29.132  32.333  1.00  0.00     0.179 C
BRANCH  13  14
HETATM   14  C7  UNL     1      -2.050  29.495  33.228  1.00  0.00     0.123 C
BRANCH  14  15
HETATM   15  S2  UNL     1      -3.632  29.175  32.351  1.00  0.00    -0.061 SA
BRANCH  15  16
HETATM   16  N3  UNL     1      -3.663  27.520  31.742  1.00  0.00    -0.374 N
ATOM     17  H32 UNL     1      -2.975  26.808  31.984  1.00  0.00     0.164 HD
ATOM     18  H31 UNL     1      -4.461  27.390  31.121  1.00  0.00     0.164 HD
ENDBRANCH  15  16
ENDBRANCH  14  15
ENDBRANCH  13  14
ENDBRANCH  12  13
ENDBRANCH  11  12
ENDBRANCH  10  11
ENDBRANCH   9  10
ENDBRANCH   4   9
BRANCH   1  19
HETATM   19  C1  UNL     1       5.196  25.117  31.408  1.00  0.00     0.290 C
BRANCH  19  20
HETATM   20  N1  UNL     1       6.331  24.324  31.886  1.00  0.00    -0.074 N
ATOM     21  H13 UNL     1       6.463  24.421  32.894  1.00  0.00     0.274 HD
ATOM     22  H12 UNL     1       6.133  23.323  31.853  1.00  0.00     0.274 HD
ATOM     23  H11 UNL     1       7.180  24.557  31.372  1.00  0.00     0.274 HD
ENDBRANCH  19  20
ENDBRANCH   1  19
TORSDOF 10
ENDMDL