MODEL 5
REMARK VINA RESULT: -7.160835109      2.604      8.414
REMARK  9 active torsions:
REMARK  status: ('A' for Active; 'I' for Inactive)
REMARK    1  A    between atoms: C2_3  and  N1_4
REMARK    2  A    between atoms: N1_4  and  C3_6
REMARK    3  A    between atoms: C3_6  and  C4_7
REMARK    4  A    between atoms: C4_7  and  N2_8
REMARK    5  A    between atoms: N2_8  and  C5_11
REMARK    6  A    between atoms: C5_11  and  C6_12
REMARK    7  A    between atoms: C6_12  and  O2_13
REMARK    8  A    between atoms: C7_15  and  N3_16
REMARK    9  A    between atoms: N3_16  and  C8_18
ROOT
HETATM    1  O1  UNL     1       3.362  23.271  34.021  1.00  0.00    -0.281 OA
HETATM    2  C1  UNL     1       3.474  24.482  33.642  1.00  0.00     0.252 A
HETATM    3  C2  UNL     1       4.049  25.140  32.588  1.00  0.00     0.114 A
HETATM    4  C7  UNL     1       3.599  26.335  33.135  1.00  0.00     0.119 A
HETATM    5  C13 UNL     1       3.033  25.667  34.183  1.00  0.00     0.253 A
HETATM    6  O3  UNL     1       2.381  25.953  35.222  1.00  0.00    -0.281 OA
ENDROOT
BRANCH   3   7
HETATM    7  N1  UNL     1       4.756  24.700  31.425  1.00  0.00    -0.383 N
ATOM      8  H1  UNL     1       4.562  23.786  31.015  1.00  0.00     0.159 HD
BRANCH   7   9
HETATM    9  C3  UNL     1       5.735  25.557  30.852  1.00  0.00     0.147 C
BRANCH   9  10
HETATM   10  C4  UNL     1       5.831  25.560  29.358  1.00  0.00     0.251 C
BRANCH  10  11
HETATM   11  N2  UNL     1       7.153  25.977  28.961  1.00  0.00    -0.072 N
ATOM     12  H22 UNL     1       7.530  25.340  28.259  1.00  0.00     0.277 HD
ATOM     13  H21 UNL     1       7.104  26.835  28.411  1.00  0.00     0.277 HD
BRANCH  11  14
HETATM   14  C5  UNL     1       8.079  26.131  30.043  1.00  0.00     0.258 C
BRANCH  14  15
HETATM   15  C6  UNL     1       9.475  26.485  29.505  1.00  0.00     0.191 C
BRANCH  15  16
HETATM   16  O2  UNL     1       9.832  27.794  29.848  1.00  0.00    -0.399 OA
ATOM     17  H2  UNL     1      10.380  27.808  30.624  1.00  0.00     0.209 HD
ENDBRANCH  15  16
ENDBRANCH  14  15
ENDBRANCH  11  14
ENDBRANCH  10  11
ENDBRANCH   9  10
ENDBRANCH   7   9
ENDBRANCH   3   7
BRANCH   4  18
HETATM   18  N3  UNL     1       3.688  27.693  32.723  1.00  0.00    -0.337 N
ATOM     19  H3  UNL     1       4.467  27.997  32.140  1.00  0.00     0.167 HD
BRANCH  18  20
HETATM   20  C8  UNL     1       2.701  28.621  33.119  1.00  0.00     0.105 A
HETATM   21  C9  UNL     1       3.108  29.895  33.521  1.00  0.00     0.048 A
HETATM   22  C10 UNL     1       2.193  30.838  33.912  1.00  0.00     0.005 A
HETATM   23  C11 UNL     1       0.838  30.503  33.902  1.00  0.00     0.017 A
HETATM   24  C12 UNL     1       0.447  29.228  33.499  1.00  0.00     0.089 A
HETATM   25  N4  UNL     1       1.395  28.352  33.127  1.00  0.00    -0.352 N
ATOM     26  H4  UNL     1       1.097  27.422  32.833  1.00  0.00     0.166 HD
ENDBRANCH  18  20
ENDBRANCH   4  18
TORSDOF 9
ENDMDL