MODEL 2
REMARK VINA RESULT: -6.790191860      2.270      3.303
REMARK  9 active torsions:
REMARK  status: ('A' for Active; 'I' for Inactive)
REMARK    1  A    between atoms: C3_3  and  C4_4
REMARK    2  A    between atoms: C4_4  and  N1_5
REMARK    3  A    between atoms: N1_5  and  C5_7
REMARK    4  A    between atoms: C5_7  and  C6_8
REMARK    5  A    between atoms: C6_8  and  O1_9
REMARK    6  A    between atoms: O1_9  and  C7_10
REMARK    7  A    between atoms: C7_10  and  C8_11
REMARK    8  A    between atoms: C8_11  and  S1_12
REMARK    9  A    between atoms: S1_12  and  C9_13
ROOT
HETATM    1  C6  UNL     1       9.270  26.241  29.621  1.00  0.00     0.186 C
ENDROOT
BRANCH   1   2
HETATM    2  C5  UNL     1       9.996  24.952  29.791  1.00  0.00     0.140 C
BRANCH   2   3
HETATM    3  N1  UNL     1      11.101  24.749  28.934  1.00  0.00    -0.414 N
ATOM      4  H1  UNL     1      10.995  24.233  28.060  1.00  0.00     0.153 HD
BRANCH   3   5
HETATM    5  C4  UNL     1      12.358  25.277  29.313  1.00  0.00     0.172 C
BRANCH   5   6
HETATM    6  C3  UNL     1      13.237  25.210  28.082  1.00  0.00     0.044 A
HETATM    7  C2  UNL     1      14.526  24.722  27.997  1.00  0.00     0.047 A
HETATM    8  C1  UNL     1      14.975  24.843  26.681  1.00  0.00     0.109 A
HETATM    9  N6  UNL     1      13.955  25.393  26.022  1.00  0.00    -0.312 N
HETATM   10  N5  UNL     1      12.930  25.613  26.830  1.00  0.00    -0.304 N
ATOM     11  H6  UNL     1      13.963  25.615  25.026  1.00  0.00     0.186 HD
ATOM     12  H5  UNL     1      12.041  26.025  26.549  1.00  0.00     0.186 HD
ENDBRANCH   5   6
ENDBRANCH   3   5
ENDBRANCH   2   3
ENDBRANCH   1   2
BRANCH   1  13
HETATM   13  O1  UNL     1       8.007  26.261  30.130  1.00  0.00    -0.389 OA
BRANCH  13  14
HETATM   14  C7  UNL     1       6.995  25.852  29.292  1.00  0.00     0.178 C
BRANCH  14  15
HETATM   15  C8  UNL     1       5.765  25.428  30.039  1.00  0.00     0.108 C
BRANCH  15  16
HETATM   16  S1  UNL     1       6.286  25.064  31.755  1.00  0.00    -0.090 SA
BRANCH  16  17
HETATM   17  C9  UNL     1       4.822  25.088  32.774  1.00  0.00     0.160 A
HETATM   18  N2  UNL     1       4.124  26.167  33.151  1.00  0.00    -0.331 N
HETATM   19  C10 UNL     1       3.084  25.806  33.914  1.00  0.00     0.199 A
ATOM     20  H2  UNL     1       4.353  27.127  32.893  1.00  0.00     0.168 HD
HETATM   21  N3  UNL     1       3.133  24.477  34.014  1.00  0.00    -0.294 N
HETATM   22  N4  UNL     1       4.176  24.039  33.330  1.00  0.00    -0.279 N
ATOM     23  H3  UNL     1       2.474  23.895  34.531  1.00  0.00     0.187 HD
ATOM     24  H4  UNL     1       4.452  23.061  33.236  1.00  0.00     0.189 HD
ENDBRANCH  16  17
ENDBRANCH  15  16
ENDBRANCH  14  15
ENDBRANCH  13  14
ENDBRANCH   1  13
TORSDOF 9
ENDMDL