MODEL 2
REMARK VINA RESULT: -7.351933674      0.722      1.049
REMARK  11 active torsions:
REMARK  status: ('A' for Active; 'I' for Inactive)
REMARK    1  A    between atoms: O1_2  and  C2_3
REMARK    2  A    between atoms: C2_3  and  C3_5
REMARK    3  A    between atoms: C3_5  and  C4_6
REMARK    4  A    between atoms: C6_8  and  O3_9
REMARK    5  A    between atoms: C6_8  and  C7_11
REMARK    6  A    between atoms: C7_11  and  C8_12
REMARK    7  A    between atoms: C15_20  and  C16_21
REMARK    8  A    between atoms: C16_21  and  C18_23
REMARK    9  A    between atoms: C18_23  and  C19_24
REMARK   10  A    between atoms: C24_31  and  O7_32
REMARK   11  A    between atoms: C25_34  and  O8_35
ROOT
HETATM    1  C4  UNL     1      25.538  28.102  18.072  1.00  0.00     0.029 C
HETATM    2  C5  UNL     1      25.651  26.666  18.427  1.00  0.00     0.046 C
HETATM    3  C6  UNL     1      26.458  26.400  19.718  1.00  0.00     0.069 C
HETATM    4  C10 UNL     1      25.543  26.543  20.907  1.00  0.00     0.027 C
HETATM    5  C11 UNL     1      26.315  26.728  22.155  1.00  0.00     0.009 C
HETATM    6  C12 UNL     1      25.599  27.522  23.256  1.00  0.00     0.010 C
HETATM    7  C13 UNL     1      24.202  27.112  23.323  1.00  0.00    -0.036 C
HETATM    8  C14 UNL     1      24.086  25.589  23.519  1.00  0.00     0.016 C
HETATM    9  C15 UNL     1      23.254  27.665  24.276  1.00  0.00    -0.002 C
HETATM   10  C20 UNL     1      21.918  27.224  23.635  1.00  0.00     0.006 C
HETATM   11  C21 UNL     1      22.215  27.010  22.151  1.00  0.00     0.006 C
HETATM   12  C22 UNL     1      23.585  27.561  22.028  1.00  0.00     0.001 C
HETATM   13  C23 UNL     1      24.323  27.372  20.766  1.00  0.00     0.029 C
HETATM   14  C24 UNL     1      24.357  28.672  20.061  1.00  0.00     0.152 C
HETATM   15  C25 UNL     1      24.200  28.548  18.537  1.00  0.00     0.152 C
ENDROOT
BRANCH   3  16
HETATM   16  O3  UNL     1      27.622  27.131  19.773  1.00  0.00    -0.389 OA
ATOM     17  H3  UNL     1      27.762  27.531  20.623  1.00  0.00     0.210 HD
ENDBRANCH   3  16
BRANCH   3  18
HETATM   18  C7  UNL     1      26.912  24.986  19.424  1.00  0.00     0.115 C
BRANCH  18  19
HETATM   19  C8  UNL     1      27.870  24.713  18.401  1.00  0.00     0.126 C
HETATM   20  C9  UNL     1      27.517  23.585  17.429  1.00  0.00     0.091 C
HETATM   21  O4  UNL     1      28.914  25.238  18.187  1.00  0.00    -0.298 OA
ENDBRANCH  18  19
ENDBRANCH   3  18
BRANCH   1  22
HETATM   22  C3  UNL     1      25.839  28.458  16.660  1.00  0.00     0.118 C
BRANCH  22  23
HETATM   23  C2  UNL     1      27.115  28.050  16.102  1.00  0.00     0.258 C
HETATM   24  O2  UNL     1      28.188  27.973  16.732  1.00  0.00    -0.265 OA
BRANCH  23  25
HETATM   25  O1  UNL     1      27.176  27.714  14.755  1.00  0.00    -0.326 OA
HETATM   26  C1  UNL     1      28.330  27.051  14.220  1.00  0.00     0.213 C
ENDBRANCH  23  25
ENDBRANCH  22  23
ENDBRANCH   1  22
BRANCH  15  27
HETATM   27  O8  UNL     1      23.145  27.713  18.238  1.00  0.00    -0.393 OA
ATOM     28  H8  UNL     1      22.934  27.620  17.316  1.00  0.00     0.210 HD
ENDBRANCH  15  27
BRANCH  14  29
HETATM   29  O7  UNL     1      25.306  29.581  20.329  1.00  0.00    -0.393 OA
ATOM     30  H7  UNL     1      26.027  29.727  19.728  1.00  0.00     0.210 HD
ENDBRANCH  14  29
BRANCH   9  31
HETATM   31  C16 UNL     1      23.095  29.033  24.682  1.00  0.00    -0.004 C
HETATM   32  C17 UNL     1      21.570  29.312  24.640  1.00  0.00     0.011 C
BRANCH  31  33
HETATM   33  C18 UNL     1      23.504  29.479  26.050  1.00  0.00     0.117 C
BRANCH  33  34
HETATM   34  C19 UNL     1      24.970  29.706  26.162  1.00  0.00     0.172 C
HETATM   35  O5  UNL     1      25.804  28.835  26.503  1.00  0.00    -0.648 OA
HETATM   36  O6  UNL     1      25.536  30.969  25.881  1.00  0.00    -0.648 OA
ENDBRANCH  33  34
ENDBRANCH  31  33
ENDBRANCH   9  31
TORSDOF 11
ENDMDL