MODEL 4
REMARK VINA RESULT: -7.545257734      4.091      9.469
REMARK  12 active torsions:
REMARK  status: ('A' for Active; 'I' for Inactive)
REMARK    1  A    between atoms: C2_2  and  N1_3
REMARK    2  A    between atoms: C2_2  and  C8_12
REMARK       I    between atoms: N1_3  and  C3_5
REMARK    3  A    between atoms: C3_5  and  O2_7
REMARK    4  A    between atoms: O2_7  and  C4_8
REMARK       I    between atoms: C8_12  and  N2_14
REMARK    5  A    between atoms: C12_18  and  C13_19
REMARK       I    between atoms: C13_19  and  N3_21
REMARK    6  A    between atoms: N3_21  and  C14_23
REMARK    7  A    between atoms: C14_23  and  C15_24
REMARK    8  A    between atoms: C14_23  and  C20_29
REMARK    9  A    between atoms: C15_24  and  C16_25
REMARK   10  A    between atoms: C20_29  and  C22_31
REMARK   11  A    between atoms: C22_31  and  O5_32
REMARK   12  A    between atoms: N4_34  and  O6_36
ROOT
HETATM    1  C13 UNL     1      25.381  27.320  20.457  1.00  0.00     0.245 C
HETATM    2  O4  UNL     1      25.154  26.192  19.966  1.00  0.00    -0.271 OA
HETATM    3  N3  UNL     1      25.919  28.280  19.572  1.00  0.00    -0.325 N
ATOM      4  H3  UNL     1      26.123  29.206  19.948  1.00  0.00     0.169 HD
ENDROOT
BRANCH   1   5
HETATM    5  C12 UNL     1      25.075  27.545  21.863  1.00  0.00     0.179 C
HETATM    6  N2  UNL     1      23.671  27.651  22.194  1.00  0.00    -0.337 N
HETATM    7  C8  UNL     1      22.830  28.707  21.764  1.00  0.00     0.243 C
HETATM    8  C9  UNL     1      23.322  26.542  23.037  1.00  0.00     0.127 C
HETATM    9  O3  UNL     1      23.318  29.566  20.939  1.00  0.00    -0.271 OA
HETATM   10  C10 UNL     1      24.601  25.970  23.630  1.00  0.00     0.022 C
HETATM   11  C11 UNL     1      25.657  26.419  22.685  1.00  0.00     0.037 C
BRANCH   7  12
HETATM   12  C2  UNL     1      21.432  28.942  22.161  1.00  0.00     0.175 C
HETATM   13  C1  UNL     1      20.564  29.668  21.230  1.00  0.00     0.042 C
BRANCH  12  14
HETATM   14  N1  UNL     1      21.406  29.402  23.539  1.00  0.00    -0.324 N
HETATM   15  C3  UNL     1      20.511  28.989  24.542  1.00  0.00     0.362 C
HETATM   16  O1  UNL     1      19.601  28.148  24.364  1.00  0.00    -0.238 OA
ATOM     17  H1  UNL     1      22.107  30.093  23.806  1.00  0.00     0.165 HD
BRANCH  15  18
HETATM   18  O2  UNL     1      20.622  29.532  25.816  1.00  0.00    -0.294 OA
BRANCH  18  19
HETATM   19  C4  UNL     1      21.646  29.249  26.736  1.00  0.00     0.061 C
HETATM   20  C5  UNL     1      20.975  29.130  28.113  1.00  0.00     0.046 C
HETATM   21  C6  UNL     1      22.333  27.949  26.443  1.00  0.00     0.046 C
HETATM   22  C7  UNL     1      22.662  30.378  26.802  1.00  0.00     0.046 C
ENDBRANCH  18  19
ENDBRANCH  15  18
ENDBRANCH  12  14
ENDBRANCH   7  12
ENDBRANCH   1   5
BRANCH   3  23
HETATM   23  C14 UNL     1      26.205  28.048  18.162  1.00  0.00     0.042 C
BRANCH  23  24
HETATM   24  C15 UNL     1      27.601  27.787  17.863  1.00  0.00     0.012 C
BRANCH  24  25
HETATM   25  C16 UNL     1      28.219  26.515  17.549  1.00  0.00    -0.032 C
HETATM   26  C17 UNL     1      27.423  25.245  17.642  1.00  0.00     0.019 C
HETATM   27  C18 UNL     1      28.977  26.444  16.244  1.00  0.00     0.019 C
HETATM   28  C19 UNL     1      29.322  26.311  18.627  1.00  0.00     0.019 C
ENDBRANCH  24  25
ENDBRANCH  23  24
BRANCH  23  29
HETATM   29  C20 UNL     1      25.354  28.894  17.280  1.00  0.00     0.017 C
HETATM   30  C21 UNL     1      25.512  28.797  15.818  1.00  0.00     0.055 C
BRANCH  29  31
HETATM   31  C22 UNL     1      23.982  29.040  17.794  1.00  0.00     0.168 C
HETATM   32  N4  UNL     1      23.391  30.163  17.914  1.00  0.00    -0.247 N
ATOM     33  H4  UNL     1      23.903  31.000  17.636  1.00  0.00     0.196 HD
BRANCH  31  34
HETATM   34  O5  UNL     1      23.231  27.909  18.184  1.00  0.00    -0.344 OA
ATOM     35  H5  UNL     1      23.197  27.637  19.094  1.00  0.00     0.219 HD
ENDBRANCH  31  34
BRANCH  32  36
HETATM   36  O6  UNL     1      22.111  30.328  18.393  1.00  0.00    -0.288 OA
ATOM     37  H6  UNL     1      21.343  29.889  18.046  1.00  0.00     0.244 HD
ENDBRANCH  32  36
ENDBRANCH  29  31
ENDBRANCH  23  29
ENDBRANCH   3  23
TORSDOF 12
ENDMDL