MODEL 1
REMARK VINA RESULT: -8.723413256      0.000      0.000
REMARK  10 active torsions:
REMARK  status: ('A' for Active; 'I' for Inactive)
REMARK    1  A    between atoms: C2_2  and  C3_3
REMARK    2  A    between atoms: C6_6  and  C7_7
REMARK    3  A    between atoms: C8_8  and  C9_9
REMARK    4  A    between atoms: C10_10  and  C11_11
REMARK    5  A    between atoms: C11_11  and  C12_12
REMARK    6  A    between atoms: C13_14  and  N1_15
REMARK    7  A    between atoms: C18_24  and  O4_25
REMARK    8  A    between atoms: C19_27  and  O5_28
REMARK    9  A    between atoms: C23_33  and  O6_34
REMARK   10  A    between atoms: C23_33  and  C24_36
ROOT
HETATM    1  C9  UNL     1      23.553  30.551  20.106  1.00  0.00    -0.004 C
HETATM    2  C10 UNL     1      22.464  30.331  20.760  1.00  0.00    -0.024 C
ENDROOT
BRANCH   2   3
HETATM    3  C11 UNL     1      22.014  29.042  21.280  1.00  0.00     0.061 C
BRANCH   3   4
HETATM    4  C12 UNL     1      22.410  28.823  22.724  1.00  0.00     0.159 C
HETATM    5  O1  UNL     1      23.522  28.033  22.878  1.00  0.00    -0.355 OA
HETATM    6  C13 UNL     1      23.231  26.979  23.701  1.00  0.00     0.263 C
HETATM    7  C18 UNL     1      22.153  27.508  24.603  1.00  0.00     0.198 C
HETATM    8  C19 UNL     1      21.288  28.184  23.517  1.00  0.00     0.180 C
BRANCH   6   9
HETATM    9  N1  UNL     1      24.357  26.417  24.371  1.00  0.00    -0.280 N
HETATM   10  C14 UNL     1      25.386  27.138  24.839  1.00  0.00     0.104 A
HETATM   11  C15 UNL     1      26.436  26.511  25.477  1.00  0.00     0.092 A
HETATM   12  C16 UNL     1      26.445  25.120  25.644  1.00  0.00     0.250 A
HETATM   13  O2  UNL     1      27.397  24.547  26.223  1.00  0.00    -0.268 OA
HETATM   14  N2  UNL     1      25.395  24.435  25.161  1.00  0.00    -0.275 N
HETATM   15  C17 UNL     1      24.380  25.077  24.539  1.00  0.00     0.331 A
ATOM     16  H2  UNL     1      25.363  23.420  25.264  1.00  0.00     0.173 HD
HETATM   17  O3  UNL     1      23.436  24.341  24.118  1.00  0.00    -0.246 OA
ENDBRANCH   6   9
BRANCH   7  18
HETATM   18  O4  UNL     1      22.596  28.578  25.387  1.00  0.00    -0.388 OA
ATOM     19  H4  UNL     1      21.883  29.006  25.848  1.00  0.00     0.210 HD
ENDBRANCH   7  18
BRANCH   8  20
HETATM   20  O5  UNL     1      20.673  27.161  22.790  1.00  0.00    -0.390 OA
ATOM     21  H5  UNL     1      21.316  26.594  22.381  1.00  0.00     0.210 HD
ENDBRANCH   8  20
ENDBRANCH   3   4
ENDBRANCH   2   3
BRANCH   1  22
HETATM   22  C8  UNL     1      24.562  29.572  19.749  1.00  0.00     0.000 C
HETATM   23  C7  UNL     1      24.794  29.201  18.508  1.00  0.00     0.007 C
BRANCH  23  24
HETATM   24  C6  UNL     1      25.745  28.254  17.998  1.00  0.00    -0.050 C
HETATM   25  C5  UNL     1      26.366  27.491  18.913  1.00  0.00    -0.006 C
HETATM   26  C3  UNL     1      27.370  26.457  18.632  1.00  0.00    -0.006 C
HETATM   27  C4  UNL     1      28.760  26.796  19.045  1.00  0.00     0.024 C
HETATM   28  C26 UNL     1      27.228  26.069  17.169  1.00  0.00     0.056 C
HETATM   29  C23 UNL     1      27.272  27.301  16.334  1.00  0.00     0.070 C
HETATM   30  C20 UNL     1      26.029  28.143  16.546  1.00  0.00     0.010 C
HETATM   31  C21 UNL     1      24.800  27.636  15.887  1.00  0.00     0.023 C
HETATM   32  C22 UNL     1      26.410  29.556  16.064  1.00  0.00     0.023 C
BRANCH  26  33
HETATM   33  C2  UNL     1      26.972  25.200  19.383  1.00  0.00    -0.024 C
HETATM   34  C1  UNL     1      27.124  24.007  18.820  1.00  0.00     0.008 C
ENDBRANCH  26  33
BRANCH  29  35
HETATM   35  O6  UNL     1      28.317  28.101  16.916  1.00  0.00    -0.389 OA
ATOM     36  H6  UNL     1      29.058  27.507  16.945  1.00  0.00     0.210 HD
ENDBRANCH  29  35
BRANCH  29  37
HETATM   37  C24 UNL     1      27.672  27.105  14.937  1.00  0.00     0.034 C
HETATM   38  C25 UNL     1      28.917  26.375  14.617  1.00  0.00     0.008 C
ENDBRANCH  29  37
ENDBRANCH  23  24
ENDBRANCH   1  22
TORSDOF 10
ENDMDL