MODEL 3
REMARK VINA RESULT: -8.065869177      2.723      7.419
REMARK  11 active torsions:
REMARK  status: ('A' for Active; 'I' for Inactive)
REMARK    1  A    between atoms: O1_2  and  C2_3
REMARK    2  A    between atoms: C2_3  and  C3_5
REMARK    3  A    between atoms: C3_5  and  C4_6
REMARK    4  A    between atoms: C3_5  and  C17_23
REMARK    5  A    between atoms: C5_7  and  C6_8
REMARK    6  A    between atoms: C6_8  and  O3_9
REMARK    7  A    between atoms: C7_11  and  O4_12
REMARK    8  A    between atoms: C17_23  and  C18_25
REMARK    9  A    between atoms: C18_25  and  C19_26
REMARK   10  A    between atoms: C18_25  and  C20_29
REMARK   11  A    between atoms: C20_29  and  O8_30
ROOT
HETATM    1  C3  UNL     1      25.499  27.558  18.400  1.00  0.00     0.183 C
ENDROOT
BRANCH   1   2
HETATM    2  C2  UNL     1      25.246  28.398  17.206  1.00  0.00     0.273 C
HETATM    3  O2  UNL     1      24.873  29.573  17.240  1.00  0.00    -0.264 OA
BRANCH   2   4
HETATM    4  O1  UNL     1      25.449  27.794  15.946  1.00  0.00    -0.326 OA
HETATM    5  C1  UNL     1      26.241  28.420  14.954  1.00  0.00     0.213 C
ENDBRANCH   2   4
ENDBRANCH   1   2
BRANCH   1   6
HETATM    6  C4  UNL     1      24.948  28.109  19.633  1.00  0.00    -0.005 C
HETATM    7  C5  UNL     1      24.471  27.359  20.595  1.00  0.00     0.011 C
BRANCH   7   8
HETATM    8  C6  UNL     1      23.900  27.817  21.865  1.00  0.00     0.109 C
HETATM    9  C7  UNL     1      22.473  27.447  22.092  1.00  0.00     0.161 C
HETATM   10  C8  UNL     1      22.463  26.307  23.068  1.00  0.00     0.069 C
HETATM   11  C9  UNL     1      23.720  26.410  23.793  1.00  0.00    -0.073 C
HETATM   12  C10 UNL     1      24.255  25.855  24.893  1.00  0.00    -0.015 C
HETATM   13  C16 UNL     1      24.600  27.385  23.101  1.00  0.00     0.055 C
HETATM   14  C11 UNL     1      25.621  26.208  25.360  1.00  0.00    -0.030 C
HETATM   15  C12 UNL     1      26.136  25.020  26.148  1.00  0.00     0.019 C
HETATM   16  C13 UNL     1      25.512  27.369  26.325  1.00  0.00     0.019 C
HETATM   17  C14 UNL     1      26.576  26.549  24.248  1.00  0.00     0.013 C
HETATM   18  C15 UNL     1      25.911  26.678  22.898  1.00  0.00     0.013 C
BRANCH   8  19
HETATM   19  O3  UNL     1      23.934  29.236  21.870  1.00  0.00    -0.382 OA
ATOM     20  H3  UNL     1      23.044  29.549  21.985  1.00  0.00     0.211 HD
ENDBRANCH   8  19
BRANCH   9  21
HETATM   21  O4  UNL     1      21.776  28.519  22.700  1.00  0.00    -0.392 OA
ATOM     22  H4  UNL     1      21.061  28.805  22.144  1.00  0.00     0.210 HD
ENDBRANCH   9  21
ENDBRANCH   7   8
ENDBRANCH   1   6
BRANCH   1  23
HETATM   23  C17 UNL     1      26.955  27.242  18.447  1.00  0.00     0.186 C
HETATM   24  O5  UNL     1      27.624  28.132  18.933  1.00  0.00    -0.291 OA
BRANCH  23  25
HETATM   25  C18 UNL     1      27.483  25.944  17.931  1.00  0.00     0.120 C
BRANCH  25  26
HETATM   26  C19 UNL     1      27.058  24.812  18.794  1.00  0.00     0.216 C
HETATM   27  O6  UNL     1      26.928  24.852  20.038  1.00  0.00    -0.644 OA
HETATM   28  O7  UNL     1      26.773  23.589  18.228  1.00  0.00    -0.644 OA
ENDBRANCH  25  26
BRANCH  25  29
HETATM   29  C20 UNL     1      28.812  25.932  17.356  1.00  0.00     0.088 C
HETATM   30  C21 UNL     1      29.396  25.095  16.374  1.00  0.00    -0.046 C
HETATM   31  C22 UNL     1      28.783  25.059  14.961  1.00  0.00     0.037 C
HETATM   32  C25 UNL     1      29.834  23.687  16.594  1.00  0.00     0.037 C
HETATM   33  C23 UNL     1      29.831  24.262  14.202  1.00  0.00     0.005 C
HETATM   34  C24 UNL     1      30.377  23.309  15.200  1.00  0.00     0.005 C
BRANCH  29  35
HETATM   35  O8  UNL     1      29.731  26.086  18.443  1.00  0.00    -0.359 OA
ATOM     36  H8  UNL     1      30.603  25.994  18.077  1.00  0.00     0.217 HD
ENDBRANCH  29  35
ENDBRANCH  25  29
ENDBRANCH  23  25
ENDBRANCH   1  23
TORSDOF 11
ENDMDL