MODEL 2
REMARK VINA RESULT: -7.913624725      2.938      7.532
REMARK  12 active torsions:
REMARK  status: ('A' for Active; 'I' for Inactive)
REMARK    1  A    between atoms: C3_3  and  O1_4
REMARK    2  A    between atoms: C5_7  and  O2_8
REMARK    3  A    between atoms: O2_8  and  C6_9
REMARK    4  A    between atoms: C6_9  and  C7_11
REMARK    5  A    between atoms: C7_11  and  C8_12
REMARK    6  A    between atoms: C8_12  and  C9_13
REMARK    7  A    between atoms: C11_15  and  C12_16
REMARK    8  A    between atoms: C13_17  and  C14_18
REMARK    9  A    between atoms: C19_25  and  O5_27
REMARK   10  A    between atoms: C22_30  and  O6_32
REMARK   11  A    between atoms: C24_34  and  C25_35
REMARK   12  A    between atoms: C25_35  and  O7_36
ROOT
HETATM    1  C1  UNL     1      24.071  26.627  25.242  1.00  0.00     0.017 C
HETATM    2  C2  UNL     1      24.426  27.118  24.089  1.00  0.00    -0.050 C
HETATM    3  C3  UNL     1      23.896  28.397  23.574  1.00  0.00     0.150 C
HETATM    4  C4  UNL     1      23.467  28.209  22.146  1.00  0.00     0.073 C
HETATM    5  C5  UNL     1      24.584  27.679  21.336  1.00  0.00     0.164 C
HETATM    6  C11 UNL     1      25.779  27.178  22.077  1.00  0.00    -0.041 C
HETATM    7  C24 UNL     1      25.433  26.331  23.263  1.00  0.00     0.071 C
ENDROOT
BRANCH   6   8
HETATM    8  C12 UNL     1      26.833  26.735  21.179  1.00  0.00     0.003 C
HETATM    9  C13 UNL     1      26.728  26.016  20.070  1.00  0.00    -0.017 C
BRANCH   9  10
HETATM   10  C14 UNL     1      27.897  25.625  19.225  1.00  0.00     0.065 C
HETATM   11  C15 UNL     1      27.769  24.192  18.873  1.00  0.00     0.099 C
HETATM   12  C16 UNL     1      26.331  23.685  18.710  1.00  0.00     0.046 C
HETATM   13  N1  UNL     1      27.957  23.854  17.494  1.00  0.00    -0.344 N
HETATM   14  C17 UNL     1      27.040  22.733  17.734  1.00  0.00     0.128 C
HETATM   15  C18 UNL     1      28.698  24.388  16.432  1.00  0.00     0.254 C
HETATM   16  O4  UNL     1      28.428  23.909  15.303  1.00  0.00    -0.270 OA
HETATM   17  C19 UNL     1      29.735  25.427  16.495  1.00  0.00     0.137 C
HETATM   18  C20 UNL     1      31.073  24.739  16.692  1.00  0.00     0.056 C
HETATM   19  C21 UNL     1      29.548  26.400  17.615  1.00  0.00     0.085 C
HETATM   20  C22 UNL     1      28.126  26.541  18.070  1.00  0.00     0.066 C
HETATM   21  C23 UNL     1      27.966  27.993  18.536  1.00  0.00     0.047 C
BRANCH  17  22
HETATM   22  O5  UNL     1      29.790  26.081  15.262  1.00  0.00    -0.380 OA
ATOM     23  H5  UNL     1      29.277  26.880  15.317  1.00  0.00     0.211 HD
ENDBRANCH  17  22
BRANCH  20  24
HETATM   24  O6  UNL     1      27.201  26.364  17.048  1.00  0.00    -0.389 OA
ATOM     25  H6  UNL     1      26.507  27.013  17.062  1.00  0.00     0.210 HD
ENDBRANCH  20  24
ENDBRANCH   9  10
ENDBRANCH   6   8
BRANCH   5  26
HETATM   26  O2  UNL     1      25.022  28.698  20.430  1.00  0.00    -0.311 OA
BRANCH  26  27
HETATM   27  C6  UNL     1      24.281  29.162  19.374  1.00  0.00     0.259 C
HETATM   28  O3  UNL     1      23.645  30.245  19.508  1.00  0.00    -0.265 OA
BRANCH  27  29
HETATM   29  C7  UNL     1      24.269  28.363  18.126  1.00  0.00     0.111 C
BRANCH  29  30
HETATM   30  C8  UNL     1      24.951  29.151  17.044  1.00  0.00     0.009 C
BRANCH  30  31
HETATM   31  C9  UNL     1      25.044  28.382  15.748  1.00  0.00    -0.004 C
HETATM   32  C10 UNL     1      26.232  28.847  14.925  1.00  0.00     0.005 C
ENDBRANCH  30  31
ENDBRANCH  29  30
ENDBRANCH  27  29
ENDBRANCH  26  27
ENDBRANCH   5  26
BRANCH   7  33
HETATM   33  C25 UNL     1      24.800  25.023  22.990  1.00  0.00     0.177 C
BRANCH  33  34
HETATM   34  O7  UNL     1      25.243  23.961  23.778  1.00  0.00    -0.400 OA
ATOM     35  H7  UNL     1      24.712  23.764  24.541  1.00  0.00     0.209 HD
ENDBRANCH  33  34
ENDBRANCH   7  33
BRANCH   3  36
HETATM   36  O1  UNL     1      22.877  28.890  24.371  1.00  0.00    -0.391 OA
ATOM     37  H1  UNL     1      22.164  29.247  23.853  1.00  0.00     0.210 HD
ENDBRANCH   3  36
TORSDOF 12
ENDMDL