MODEL 3
REMARK VINA RESULT: -8.166882816      3.775      7.940
REMARK  9 active torsions:
REMARK  status: ('A' for Active; 'I' for Inactive)
REMARK    1  A    between atoms: C2_2  and  C5_5
REMARK    2  A    between atoms: C5_5  and  C6_7
REMARK    3  A    between atoms: C6_7  and  O2_8
REMARK    4  A    between atoms: C6_7  and  N1_10
REMARK    5  A    between atoms: N1_10  and  C7_12
REMARK    6  A    between atoms: C9_14  and  C10_15
REMARK    7  A    between atoms: C10_15  and  N2_16
REMARK    8  A    between atoms: C10_15  and  C22_30
REMARK       I    between atoms: N2_16  and  C11_18
REMARK    9  A    between atoms: C11_18  and  C12_20
ROOT
HETATM    1  C10 UNL     1      25.246  27.159  21.586  1.00  0.00     0.214 C
ENDROOT
BRANCH   1   2
HETATM    2  C9  UNL     1      25.908  26.867  20.280  1.00  0.00     0.158 C
HETATM    3  C8  UNL     1      26.648  25.570  20.222  1.00  0.00     0.070 C
HETATM    4  C7  UNL     1      27.332  25.500  18.846  1.00  0.00     0.146 C
HETATM    5  S1  UNL     1      28.697  26.737  19.026  1.00  0.00    -0.118 SA
HETATM    6  C23 UNL     1      27.932  27.994  20.127  1.00  0.00     0.244 C
HETATM    7  O6  UNL     1      26.590  27.978  19.867  1.00  0.00    -0.373 OA
BRANCH   4   8
HETATM    8  N1  UNL     1      27.866  24.218  18.546  1.00  0.00    -0.378 N
ATOM      9  H1  UNL     1      28.407  23.695  19.236  1.00  0.00     0.157 HD
BRANCH   8  10
HETATM   10  C6  UNL     1      27.620  23.689  17.250  1.00  0.00     0.286 C
BRANCH  10  11
HETATM   11  C5  UNL     1      28.798  23.492  16.392  1.00  0.00     0.182 C
HETATM   12  O1  UNL     1      29.298  22.392  16.273  1.00  0.00    -0.292 OA
BRANCH  11  13
HETATM   13  C2  UNL     1      29.444  24.604  15.627  1.00  0.00     0.014 C
HETATM   14  C1  UNL     1      30.656  25.140  16.351  1.00  0.00     0.023 C
HETATM   15  C3  UNL     1      29.865  24.033  14.291  1.00  0.00     0.023 C
HETATM   16  C4  UNL     1      28.480  25.739  15.364  1.00  0.00     0.023 C
ENDBRANCH  11  13
ENDBRANCH  10  11
BRANCH  10  17
HETATM   17  O2  UNL     1      26.909  22.467  17.412  1.00  0.00    -0.370 OA
ATOM     18  H2  UNL     1      26.376  22.492  18.198  1.00  0.00     0.212 HD
ENDBRANCH  10  17
ENDBRANCH   8  10
ENDBRANCH   4   8
ENDBRANCH   1   2
BRANCH   1  19
HETATM   19  N2  UNL     1      25.357  26.144  22.583  1.00  0.00    -0.344 N
HETATM   20  C11 UNL     1      25.391  26.477  23.968  1.00  0.00     0.227 C
HETATM   21  O3  UNL     1      25.319  27.699  24.265  1.00  0.00    -0.273 OA
ATOM     22  H2  UNL     1      25.412  25.166  22.300  1.00  0.00     0.163 HD
BRANCH  20  23
HETATM   23  C12 UNL     1      25.505  25.448  25.032  1.00  0.00     0.042 C
HETATM   24  C13 UNL     1      24.427  25.651  26.077  1.00  0.00     0.024 C
HETATM   25  C14 UNL     1      24.430  24.553  27.087  1.00  0.00    -0.013 C
HETATM   26  C15 UNL     1      25.770  24.470  27.774  1.00  0.00     0.009 C
HETATM   27  C19 UNL     1      24.158  23.238  26.398  1.00  0.00     0.009 C
HETATM   28  C16 UNL     1      26.829  24.315  26.729  1.00  0.00    -0.013 C
HETATM   29  C17 UNL     1      26.618  22.954  26.077  1.00  0.00     0.009 C
HETATM   30  C21 UNL     1      26.841  25.423  25.707  1.00  0.00     0.024 C
HETATM   31  C18 UNL     1      25.248  22.986  25.408  1.00  0.00    -0.013 C
HETATM   32  C20 UNL     1      25.275  24.096  24.405  1.00  0.00     0.024 C
ENDBRANCH  20  23
ENDBRANCH   1  19
BRANCH   1  33
HETATM   33  C22 UNL     1      23.799  27.477  21.343  1.00  0.00     0.199 C
HETATM   34  O4  UNL     1      23.411  28.575  20.884  1.00  0.00    -0.646 OA
HETATM   35  O5  UNL     1      22.834  26.524  21.633  1.00  0.00    -0.646 OA
ENDBRANCH   1  33
TORSDOF 9
ENDMDL