MODEL 4
REMARK VINA RESULT: -6.745344209      0.915      1.014
REMARK  11 active torsions:
REMARK  status: ('A' for Active; 'I' for Inactive)
REMARK    1  A    between atoms: C2_2  and  C3_3
REMARK    2  A    between atoms: C3_3  and  C4_4
REMARK    3  A    between atoms: C6_6  and  C7_7
REMARK    4  A    between atoms: C7_7  and  O2_9
REMARK    5  A    between atoms: O2_9  and  C8_10
REMARK    6  A    between atoms: C12_14  and  O3_15
REMARK    7  A    between atoms: C13_17  and  C14_18
REMARK    8  A    between atoms: C15_21  and  O6_22
REMARK    9  A    between atoms: C17_25  and  C18_26
REMARK   10  A    between atoms: C18_26  and  C19_27
REMARK   11  A    between atoms: C25_34  and  O8_35
ROOT
HETATM    1  C8  UNL     1      22.719  29.654  22.250  1.00  0.00     0.162 C
HETATM    2  C9  UNL     1      21.428  30.412  22.064  1.00  0.00     0.008 C
HETATM    3  C10 UNL     1      20.655  29.948  20.852  1.00  0.00     0.020 C
HETATM    4  C11 UNL     1      21.681  31.914  21.895  1.00  0.00     0.020 C
HETATM    5  C12 UNL     1      20.630  30.256  23.342  1.00  0.00     0.151 C
HETATM    6  C13 UNL     1      21.083  28.895  23.829  1.00  0.00     0.120 C
HETATM    7  C15 UNL     1      20.882  28.713  25.310  1.00  0.00     0.142 C
HETATM    8  C16 UNL     1      21.990  27.851  25.916  1.00  0.00     0.053 C
HETATM    9  C17 UNL     1      23.281  28.254  25.303  1.00  0.00     0.054 C
HETATM   10  C23 UNL     1      23.320  27.794  23.866  1.00  0.00     0.153 C
HETATM   11  O7  UNL     1      23.840  26.794  23.387  1.00  0.00    -0.296 OA
HETATM   12  C24 UNL     1      22.556  28.986  23.546  1.00  0.00     0.098 C
HETATM   13  C25 UNL     1      23.230  29.679  24.737  1.00  0.00     0.154 C
ENDROOT
BRANCH   1  14
HETATM   14  O2  UNL     1      23.003  28.800  21.168  1.00  0.00    -0.310 OA
BRANCH  14  15
HETATM   15  C7  UNL     1      24.004  29.159  20.239  1.00  0.00     0.283 C
HETATM   16  O1  UNL     1      24.294  30.373  20.172  1.00  0.00    -0.260 OA
BRANCH  15  17
HETATM   17  C6  UNL     1      24.656  28.172  19.412  1.00  0.00     0.084 C
HETATM   18  C4  UNL     1      25.716  27.512  19.775  1.00  0.00    -0.078 C
HETATM   19  C5  UNL     1      26.348  27.729  21.096  1.00  0.00     0.043 C
BRANCH  18  20
HETATM   20  C3  UNL     1      26.331  26.519  18.884  1.00  0.00     0.033 C
BRANCH  20  21
HETATM   21  C2  UNL     1      26.929  25.400  19.681  1.00  0.00    -0.000 C
HETATM   22  C1  UNL     1      27.186  24.172  18.806  1.00  0.00     0.005 C
ENDBRANCH  20  21
ENDBRANCH  18  20
ENDBRANCH  15  17
ENDBRANCH  14  15
ENDBRANCH   1  14
BRANCH   5  23
HETATM   23  O3  UNL     1      19.261  30.287  23.097  1.00  0.00    -0.393 OA
ATOM     24  H3  UNL     1      19.055  29.963  22.228  1.00  0.00     0.210 HD
ENDBRANCH   5  23
BRANCH   6  25
HETATM   25  C14 UNL     1      20.428  27.785  23.113  1.00  0.00     0.188 C
HETATM   26  O4  UNL     1      21.027  26.783  22.650  1.00  0.00    -0.647 OA
HETATM   27  O5  UNL     1      19.052  27.853  22.939  1.00  0.00    -0.647 OA
ENDBRANCH   6  25
BRANCH  13  28
HETATM   28  O8  UNL     1      24.490  30.110  24.385  1.00  0.00    -0.393 OA
ATOM     29  H8  UNL     1      24.458  30.633  23.592  1.00  0.00     0.210 HD
ENDBRANCH  13  28
BRANCH   7  30
HETATM   30  O6  UNL     1      19.686  27.999  25.539  1.00  0.00    -0.394 OA
ATOM     31  H6  UNL     1      19.888  27.083  25.695  1.00  0.00     0.210 HD
ENDBRANCH   7  30
BRANCH   9  32
HETATM   32  C18 UNL     1      24.526  28.045  26.079  1.00  0.00     0.047 C
BRANCH  32  33
HETATM   33  C19 UNL     1      24.653  26.717  26.687  1.00  0.00    -0.023 C
HETATM   34  C20 UNL     1      25.668  25.907  26.412  1.00  0.00    -0.091 C
HETATM   35  C21 UNL     1      25.768  24.555  27.052  1.00  0.00     0.042 C
HETATM   36  C22 UNL     1      26.751  26.288  25.462  1.00  0.00     0.042 C
ENDBRANCH  32  33
ENDBRANCH   9  32
TORSDOF 11
ENDMDL