MODEL 5
REMARK VINA RESULT: -8.334342979      7.472     12.300
REMARK  13 active torsions:
REMARK  status: ('A' for Active; 'I' for Inactive)
REMARK    1  A    between atoms: O1_1  and  C1_3
REMARK    2  A    between atoms: C1_3  and  C2_4
REMARK    3  A    between atoms: C3_6  and  C4_7
REMARK    4  A    between atoms: C4_7  and  O3_8
REMARK    5  A    between atoms: O3_8  and  C5_9
REMARK    6  A    between atoms: C5_9  and  C6_10
REMARK    7  A    between atoms: C9_13  and  C10_14
REMARK    8  A    between atoms: C11_15  and  C12_16
REMARK    9  A    between atoms: C15_19  and  O4_20
REMARK   10  A    between atoms: O4_20  and  C16_21
REMARK   11  A    between atoms: C26_31  and  O5_32
REMARK   12  A    between atoms: C27_34  and  O6_35
REMARK   13  A    between atoms: C28_37  and  O7_38
ROOT
HETATM    1  C6  UNL     1      27.127  27.634  15.783  1.00  0.00    -0.035 A
HETATM    2  C7  UNL     1      27.199  27.437  17.136  1.00  0.00     0.011 A
HETATM    3  C8  UNL     1      26.227  28.052  17.911  1.00  0.00     0.021 A
HETATM    4  C9  UNL     1      25.221  28.833  17.387  1.00  0.00     0.018 A
HETATM    5  C24 UNL     1      25.183  29.008  16.016  1.00  0.00     0.021 A
HETATM    6  C25 UNL     1      26.149  28.399  15.204  1.00  0.00     0.011 A
ENDROOT
BRANCH   1   7
HETATM    7  C5  UNL     1      28.137  27.008  14.846  1.00  0.00     0.206 C
BRANCH   7   8
HETATM    8  O3  UNL     1      28.647  25.861  15.355  1.00  0.00    -0.384 OA
BRANCH   8   9
HETATM    9  C4  UNL     1      29.979  25.923  15.633  1.00  0.00     0.202 C
BRANCH   9  10
HETATM   10  C3  UNL     1      30.836  24.748  15.382  1.00  0.00     0.177 C
HETATM   11  O2  UNL     1      30.720  24.232  14.128  1.00  0.00    -0.371 OA
HETATM   12  C2  UNL     1      31.538  23.177  13.843  1.00  0.00     0.177 C
HETATM   13  C28 UNL     1      31.575  22.101  14.872  1.00  0.00     0.180 C
HETATM   14  C27 UNL     1      31.436  22.570  16.279  1.00  0.00     0.180 C
HETATM   15  C26 UNL     1      30.365  23.637  16.337  1.00  0.00     0.180 C
BRANCH  12  16
HETATM   16  C1  UNL     1      32.967  23.609  13.500  1.00  0.00     0.198 C
BRANCH  16  17
HETATM   17  O1  UNL     1      33.359  23.000  12.296  1.00  0.00    -0.398 OA
ATOM     18  H1  UNL     1      34.293  22.827  12.322  1.00  0.00     0.209 HD
ENDBRANCH  16  17
ENDBRANCH  12  16
BRANCH  13  19
HETATM   19  O7  UNL     1      32.830  21.461  14.765  1.00  0.00    -0.390 OA
ATOM     20  H7  UNL     1      32.667  20.526  14.735  1.00  0.00     0.210 HD
ENDBRANCH  13  19
BRANCH  14  21
HETATM   21  O6  UNL     1      32.596  23.024  16.856  1.00  0.00    -0.390 OA
ATOM     22  H6  UNL     1      32.437  23.292  17.754  1.00  0.00     0.210 HD
ENDBRANCH  14  21
BRANCH  15  23
HETATM   23  O5  UNL     1      29.197  23.059  15.813  1.00  0.00    -0.390 OA
ATOM     24  H5  UNL     1      28.451  23.583  16.081  1.00  0.00     0.210 HD
ENDBRANCH  15  23
ENDBRANCH   9  10
ENDBRANCH   8   9
ENDBRANCH   7   8
ENDBRANCH   1   7
BRANCH   4  25
HETATM   25  C10 UNL     1      24.228  29.459  18.213  1.00  0.00    -0.061 C
HETATM   26  C11 UNL     1      23.377  29.986  18.892  1.00  0.00    -0.061 C
BRANCH  26  27
HETATM   27  C12 UNL     1      22.369  30.641  19.703  1.00  0.00     0.018 A
HETATM   28  C13 UNL     1      21.373  29.935  20.336  1.00  0.00     0.023 A
HETATM   29  C14 UNL     1      20.430  30.617  21.102  1.00  0.00     0.039 A
HETATM   30  C15 UNL     1      20.478  31.989  21.238  1.00  0.00     0.076 A
HETATM   31  C22 UNL     1      21.477  32.706  20.604  1.00  0.00     0.039 A
HETATM   32  C23 UNL     1      22.411  32.010  19.842  1.00  0.00     0.023 A
BRANCH  30  33
HETATM   33  O4  UNL     1      19.560  32.709  21.990  1.00  0.00    -0.311 OA
BRANCH  33  34
HETATM   34  C16 UNL     1      18.973  32.167  23.114  1.00  0.00     0.076 A
HETATM   35  C17 UNL     1      17.684  31.684  23.142  1.00  0.00     0.037 A
HETATM   36  C18 UNL     1      17.191  31.162  24.316  1.00  0.00     0.003 A
HETATM   37  C19 UNL     1      17.936  31.098  25.479  1.00  0.00     0.000 A
HETATM   38  C20 UNL     1      19.228  31.580  25.452  1.00  0.00     0.003 A
HETATM   39  C21 UNL     1      19.724  32.108  24.262  1.00  0.00     0.037 A
ENDBRANCH  33  34
ENDBRANCH  30  33
ENDBRANCH  26  27
ENDBRANCH   4  25
TORSDOF 13
ENDMDL