MODEL 1
REMARK VINA RESULT: -7.084522194      0.000      0.000
REMARK  7 active torsions:
REMARK  status: ('A' for Active; 'I' for Inactive)
REMARK    1  A    between atoms: C3_8  and  C4_9
REMARK    2  A    between atoms: C17_27  and  C18_28
REMARK    3  A    between atoms: C18_28  and  C19_29
REMARK    4  A    between atoms: C19_29  and  C20_30
REMARK    5  A    between atoms: C20_30  and  C21_31
REMARK    6  A    between atoms: C21_31  and  C22_32
REMARK    7  A    between atoms: C22_32  and  C23_33
ROOT
HETATM    1  N1  UNL     1      21.174  30.494  20.126  1.00  0.00    -0.398 N
ATOM      2  H11 UNL     1      20.417  29.829  19.968  1.00  0.00     0.156 HD
ATOM      3  H12 UNL     1      21.171  31.445  19.757  1.00  0.00     0.156 HD
HETATM    4  C1  UNL     1      22.159  30.052  20.835  1.00  0.00     0.069 C
HETATM    5  C2  UNL     1      23.274  31.032  21.067  1.00  0.00     0.175 C
HETATM    6  N2  UNL     1      22.821  32.363  21.312  1.00  0.00    -0.403 N
ATOM      7  H2  UNL     1      22.996  33.121  20.653  1.00  0.00     0.154 HD
HETATM    8  C3  UNL     1      22.108  32.572  22.531  1.00  0.00     0.179 C
HETATM    9  C5  UNL     1      23.030  33.131  23.611  1.00  0.00     0.036 C
HETATM   10  C6  UNL     1      23.709  32.035  24.373  1.00  0.00     0.002 C
HETATM   11  C7  UNL     1      23.460  32.077  25.862  1.00  0.00     0.000 C
HETATM   12  C8  UNL     1      24.638  31.437  26.561  1.00  0.00     0.000 C
HETATM   13  C9  UNL     1      24.183  30.596  27.712  1.00  0.00     0.000 C
HETATM   14  C10 UNL     1      24.953  29.295  27.837  1.00  0.00     0.000 C
HETATM   15  C11 UNL     1      25.350  28.751  26.505  1.00  0.00     0.000 C
HETATM   16  C12 UNL     1      25.524  27.244  26.524  1.00  0.00     0.000 C
HETATM   17  C13 UNL     1      26.218  26.833  25.260  1.00  0.00     0.000 C
HETATM   18  C14 UNL     1      25.643  25.517  24.754  1.00  0.00     0.009 C
HETATM   19  C15 UNL     1      25.212  25.703  23.328  1.00  0.00     0.103 C
HETATM   20  C16 UNL     1      23.759  25.973  23.279  1.00  0.00     0.218 C
HETATM   21  O3  UNL     1      23.084  25.546  24.281  1.00  0.00    -0.274 OA
HETATM   22  N3  UNL     1      23.072  26.644  22.244  1.00  0.00    -0.349 N
ATOM     23  H3  UNL     1      22.246  26.176  21.872  1.00  0.00     0.163 HD
HETATM   24  C17 UNL     1      23.407  27.917  21.655  1.00  0.00     0.160 C
HETATM   25  C24 UNL     1      22.164  28.707  21.358  1.00  0.00     0.195 C
HETATM   26  O6  UNL     1      21.046  28.150  21.584  1.00  0.00    -0.289 OA
ENDROOT
BRANCH  24  27
HETATM   27  C18 UNL     1      24.190  27.641  20.386  1.00  0.00     0.033 C
BRANCH  27  28
HETATM   28  C19 UNL     1      25.597  28.150  20.617  1.00  0.00     0.002 C
BRANCH  28  29
HETATM   29  C20 UNL     1      26.619  27.351  19.838  1.00  0.00     0.001 C
BRANCH  29  30
HETATM   30  C21 UNL     1      25.968  27.026  18.492  1.00  0.00     0.010 C
BRANCH  30  31
HETATM   31  C22 UNL     1      26.496  27.956  17.405  1.00  0.00     0.113 C
BRANCH  31  32
HETATM   32  C23 UNL     1      25.327  28.621  16.788  1.00  0.00     0.172 C
HETATM   33  O4  UNL     1      24.650  29.479  17.383  1.00  0.00    -0.648 OA
HETATM   34  O5  UNL     1      24.977  28.263  15.493  1.00  0.00    -0.648 OA
ENDBRANCH  31  32
ENDBRANCH  30  31
ENDBRANCH  29  30
ENDBRANCH  28  29
ENDBRANCH  27  28
ENDBRANCH  24  27
BRANCH   8  35
HETATM   35  C4  UNL     1      21.064  33.644  22.337  1.00  0.00     0.196 C
HETATM   36  O1  UNL     1      21.257  34.837  22.699  1.00  0.00    -0.646 OA
HETATM   37  O2  UNL     1      19.841  33.360  21.749  1.00  0.00    -0.646 OA
ENDBRANCH   8  35
TORSDOF 7
ENDMDL