MODEL 1
REMARK VINA RESULT: -7.686048670      0.000      0.000
REMARK  13 active torsions:
REMARK  status: ('A' for Active; 'I' for Inactive)
REMARK    1  A    between atoms: C3_3  and  C4_4
REMARK    2  A    between atoms: C5_6  and  C6_7
REMARK    3  A    between atoms: C6_7  and  C7_8
REMARK    4  A    between atoms: C7_8  and  O2_9
REMARK    5  A    between atoms: O2_9  and  C8_10
REMARK    6  A    between atoms: C10_13  and  N1_14
REMARK    7  A    between atoms: N1_14  and  C11_17
REMARK    8  A    between atoms: C11_17  and  C12_18
REMARK    9  A    between atoms: C14_20  and  C15_21
REMARK   10  A    between atoms: C18_24  and  O4_25
REMARK   11  A    between atoms: C19_27  and  C20_28
REMARK   12  A    between atoms: C25_33  and  O5_34
REMARK   13  A    between atoms: C26_36  and  O6_37
ROOT
HETATM    1  C1  UNL     1      25.986  28.831  15.052  1.00  0.00     0.112 C
HETATM    2  C2  UNL     1      25.411  28.696  16.396  1.00  0.00    -0.108 C
HETATM    3  C3  UNL     1      24.958  28.578  17.506  1.00  0.00    -0.072 C
ENDROOT
BRANCH   3   4
HETATM    4  C4  UNL     1      24.426  28.430  18.871  1.00  0.00     0.231 C
HETATM    5  O1  UNL     1      25.484  28.541  19.760  1.00  0.00    -0.363 OA
HETATM    6  C5  UNL     1      25.111  28.142  21.010  1.00  0.00     0.158 C
HETATM    7  C10 UNL     1      23.727  28.441  21.446  1.00  0.00     0.246 C
HETATM    8  C25 UNL     1      22.924  29.336  20.564  1.00  0.00     0.183 C
HETATM    9  C26 UNL     1      23.486  29.574  19.197  1.00  0.00     0.190 C
BRANCH   6  10
HETATM   10  C6  UNL     1      25.327  26.619  21.057  1.00  0.00     0.061 C
BRANCH  10  11
HETATM   11  C7  UNL     1      26.767  26.291  20.768  1.00  0.00     0.181 C
BRANCH  11  12
HETATM   12  O2  UNL     1      26.854  25.074  20.091  1.00  0.00    -0.322 OA
BRANCH  12  13
HETATM   13  C8  UNL     1      27.051  24.876  18.758  1.00  0.00     0.254 C
HETATM   14  C9  UNL     1      27.229  23.475  18.246  1.00  0.00     0.126 C
HETATM   15  O3  UNL     1      27.083  25.850  17.981  1.00  0.00    -0.266 OA
ENDBRANCH  12  13
ENDBRANCH  11  12
ENDBRANCH  10  11
ENDBRANCH   6  10
BRANCH   7  16
HETATM   16  N1  UNL     1      23.669  29.042  22.793  1.00  0.00    -0.062 N
ATOM     17  H12 UNL     1      24.593  29.072  23.224  1.00  0.00     0.278 HD
ATOM     18  H11 UNL     1      23.482  30.043  22.743  1.00  0.00     0.278 HD
BRANCH  16  19
HETATM   19  C11 UNL     1      22.719  28.377  23.645  1.00  0.00     0.271 C
BRANCH  19  20
HETATM   20  C12 UNL     1      23.427  27.656  24.747  1.00  0.00    -0.032 A
HETATM   21  C13 UNL     1      23.704  28.299  25.933  1.00  0.00     0.019 A
HETATM   22  C14 UNL     1      24.366  27.641  26.976  1.00  0.00    -0.020 A
HETATM   23  C18 UNL     1      24.722  26.343  26.760  1.00  0.00     0.079 A
HETATM   24  C19 UNL     1      24.463  25.664  25.585  1.00  0.00    -0.016 A
HETATM   25  C24 UNL     1      23.810  26.333  24.575  1.00  0.00     0.019 A
BRANCH  22  26
HETATM   26  C15 UNL     1      24.665  28.310  28.267  1.00  0.00     0.013 C
HETATM   27  C16 UNL     1      25.382  29.621  27.909  1.00  0.00     0.015 C
HETATM   28  C17 UNL     1      23.411  28.600  29.057  1.00  0.00     0.015 C
ENDBRANCH  22  26
BRANCH  23  29
HETATM   29  O4  UNL     1      25.376  25.608  27.715  1.00  0.00    -0.360 OA
ATOM     30  H4  UNL     1      25.524  24.676  27.611  1.00  0.00     0.217 HD
ENDBRANCH  23  29
BRANCH  24  31
HETATM   31  C20 UNL     1      24.847  24.275  25.367  1.00  0.00    -0.021 C
HETATM   32  C21 UNL     1      23.931  23.308  26.131  1.00  0.00     0.019 C
HETATM   33  C22 UNL     1      24.702  23.971  23.891  1.00  0.00     0.019 C
HETATM   34  C23 UNL     1      26.243  23.927  25.772  1.00  0.00     0.019 C
ENDBRANCH  24  31
ENDBRANCH  19  20
ENDBRANCH  16  19
ENDBRANCH   7  16
BRANCH   8  35
HETATM   35  O5  UNL     1      22.700  30.597  21.158  1.00  0.00    -0.391 OA
ATOM     36  H5  UNL     1      23.503  31.099  21.235  1.00  0.00     0.210 HD
ENDBRANCH   8  35
BRANCH   9  37
HETATM   37  O6  UNL     1      22.497  29.716  18.226  1.00  0.00    -0.389 OA
ATOM     38  H6  UNL     1      22.440  30.611  17.915  1.00  0.00     0.210 HD
ENDBRANCH   9  37
ENDBRANCH   3   4
TORSDOF 13
ENDMDL