MODEL 3
REMARK VINA RESULT: -5.644118234      2.034      4.192
REMARK  3 active torsions:
REMARK  status: ('A' for Active; 'I' for Inactive)
REMARK    1  A    between atoms: C2_2  and  C3_6
REMARK    2  A    between atoms: C3_6  and  C5_8
REMARK    3  A    between atoms: C5_8  and  N2_9
ROOT
HETATM    1  C5  UNL     1      10.444 -23.287  17.313  1.00  0.00     0.162 C
HETATM    2  C6  UNL     1      11.172 -22.218  16.553  1.00  0.00     0.042 C
HETATM    3  C7  UNL     1      11.035 -22.268  15.078  1.00  0.00     0.003 C
HETATM    4  C8  UNL     1      11.185 -23.601  14.433  1.00  0.00     0.003 C
HETATM    5  C9  UNL     1      10.566 -24.684  15.273  1.00  0.00     0.040 C
HETATM    6  C10 UNL     1       9.670 -24.122  16.355  1.00  0.00     0.206 C
HETATM    7  F1  UNL     1       8.585 -23.469  15.802  1.00  0.00    -0.247 F
ENDROOT
BRANCH   1   8
HETATM    8  C3  UNL     1       9.540 -22.706  18.383  1.00  0.00     0.065 C
HETATM    9  C4  UNL     1       9.146 -21.287  18.155  1.00  0.00     0.018 C
BRANCH   8  10
HETATM   10  C2  UNL     1      10.104 -22.834  19.748  1.00  0.00    -0.018 C
HETATM   11  C1  UNL     1      11.283 -22.000  20.108  1.00  0.00     0.063 C
HETATM   12  N1  UNL     1       9.640 -23.619  20.625  1.00  0.00    -0.405 N
ATOM     13  H12 UNL     1      10.028 -23.707  21.564  1.00  0.00     0.155 HD
ATOM     14  H11 UNL     1       8.832 -24.190  20.378  1.00  0.00     0.155 HD
ENDBRANCH   8  10
ENDBRANCH   1   8
BRANCH   1  15
HETATM   15  N2  UNL     1      11.374 -24.157  18.037  1.00  0.00    -0.067 N
ATOM     16  H23 UNL     1      11.558 -23.859  18.995  1.00  0.00     0.275 HD
ATOM     17  H22 UNL     1      10.988 -25.071  18.271  1.00  0.00     0.275 HD
ATOM     18  H21 UNL     1      12.206 -24.198  17.448  1.00  0.00     0.275 HD
ENDBRANCH   1  15
TORSDOF 3
ENDMDL