MODEL 4
REMARK VINA RESULT: -4.555296098      2.692      4.509
REMARK  3 active torsions:
REMARK  status: ('A' for Active; 'I' for Inactive)
REMARK    1  A    between atoms: C1_2  and  N2_4
REMARK    2  A    between atoms: N2_4  and  N3_6
REMARK    3  A    between atoms: C2_8  and  C3_9
ROOT
HETATM    1  N3  UNL     1       9.325 -21.518  18.081  1.00  0.00    -0.314 N
ATOM      2  H3  UNL     1       8.437 -21.196  18.466  1.00  0.00     0.185 HD
HETATM    3  C2  UNL     1       9.358 -22.100  16.938  1.00  0.00     0.084 C
ENDROOT
BRANCH   1   4
HETATM    4  N2  UNL     1      10.490 -21.330  18.789  1.00  0.00    -0.279 N
ATOM      5  H2  UNL     1      11.147 -20.597  18.526  1.00  0.00     0.189 HD
BRANCH   4   6
HETATM    6  C1  UNL     1      10.754 -22.180  19.894  1.00  0.00     0.199 C
HETATM    7  N1  UNL     1      11.880 -21.884  20.704  1.00  0.00    -0.068 NA
HETATM    8  S1  UNL     1       9.828 -23.467  20.261  1.00  0.00    -0.043 SA
ENDBRANCH   4   6
ENDBRANCH   1   4
BRANCH   3   9
HETATM    9  C3  UNL     1      10.640 -22.569  16.377  1.00  0.00     0.025 C
HETATM   10  C4  UNL     1      10.723 -24.072  16.551  1.00  0.00     0.010 C
HETATM   11  C5  UNL     1      10.862 -24.625  15.143  1.00  0.00     0.001 C
HETATM   12  C6  UNL     1      10.050 -23.625  14.346  1.00  0.00     0.001 C
HETATM   13  C7  UNL     1      10.621 -22.310  14.888  1.00  0.00     0.010 C
ENDBRANCH   3   9
TORSDOF 3
ENDMDL