MODEL 4
REMARK VINA RESULT: -4.536190503      9.520     11.154
REMARK  3 active torsions:
REMARK  status: ('A' for Active; 'I' for Inactive)
REMARK    1  A    between atoms: C2_2  and  C3_3
REMARK    2  A    between atoms: C3_3  and  N1_4
REMARK    3  A    between atoms: C3_3  and  C4_8
ROOT
HETATM    1  C4  UNL     1       3.634 -25.292  25.219  1.00  0.00     0.232 C
HETATM    2  N2  UNL     1       4.252 -24.329  26.152  1.00  0.00    -0.067 N
ATOM      3  H21 UNL     1       3.696 -23.802  26.825  1.00  0.00     0.277 HD
ATOM      4  H22 UNL     1       4.636 -23.441  25.829  1.00  0.00     0.277 HD
HETATM    5  C5  UNL     1       5.120 -25.443  26.567  1.00  0.00     0.247 C
HETATM    6  C6  UNL     1       3.986 -26.353  26.176  1.00  0.00     0.045 C
HETATM    7  C7  UNL     1       2.972 -26.451  27.297  1.00  0.00     0.016 C
HETATM    8  C8  UNL     1       2.481 -27.869  27.155  1.00  0.00     0.004 C
HETATM    9  C9  UNL     1       3.743 -28.627  26.807  1.00  0.00     0.038 C
HETATM   10  C10 UNL     1       4.314 -27.708  25.713  1.00  0.00     0.182 C
HETATM   11  F1  UNL     1       5.648 -27.983  25.580  1.00  0.00    -0.248 F
ENDROOT
BRANCH   1  12
HETATM   12  C3  UNL     1       4.370 -25.208  23.919  1.00  0.00     0.236 C
BRANCH  12  13
HETATM   13  C2  UNL     1       3.782 -26.083  22.860  1.00  0.00    -0.003 C
HETATM   14  C1  UNL     1       4.503 -26.891  22.114  1.00  0.00     0.009 C
ENDBRANCH  12  13
BRANCH  12  15
HETATM   15  N1  UNL     1       4.168 -23.829  23.429  1.00  0.00    -0.070 N
ATOM     16  H13 UNL     1       3.674 -23.775  22.539  1.00  0.00     0.275 HD
ATOM     17  H12 UNL     1       3.489 -23.294  23.971  1.00  0.00     0.275 HD
ATOM     18  H11 UNL     1       5.100 -23.417  23.411  1.00  0.00     0.275 HD
ENDBRANCH  12  15
ENDBRANCH   1  12
TORSDOF 3
ENDMDL