MODEL 3
REMARK VINA RESULT: -4.182557447      1.814      2.353
REMARK  3 active torsions:
REMARK  status: ('A' for Active; 'I' for Inactive)
REMARK    1  A    between atoms: N1_1  and  C1_5
REMARK    2  A    between atoms: C4_8  and  N2_9
REMARK    3  A    between atoms: N2_9  and  C5_12
ROOT
HETATM    1  C1  UNL     1      10.420 -22.705  14.739  1.00  0.00     0.217 C
HETATM    2  C2  UNL     1      11.030 -21.568  15.475  1.00  0.00     0.038 C
HETATM    3  C3  UNL     1      11.603 -21.823  16.791  1.00  0.00     0.035 C
HETATM    4  C4  UNL     1      11.771 -23.196  17.298  1.00  0.00     0.189 C
HETATM    5  C9  UNL     1      10.840 -24.206  16.586  1.00  0.00     0.072 C
HETATM    6  C10 UNL     1      11.015 -24.053  15.131  1.00  0.00     0.202 C
HETATM    7  F1  UNL     1      10.319 -25.025  14.446  1.00  0.00    -0.247 F
ENDROOT
BRANCH   4   8
HETATM    8  N2  UNL     1      11.368 -23.362  18.673  1.00  0.00    -0.067 N
ATOM      9  H22 UNL     1      10.822 -24.216  18.782  1.00  0.00     0.278 HD
ATOM     10  H21 UNL     1      12.175 -23.595  19.253  1.00  0.00     0.278 HD
BRANCH   8  11
HETATM   11  C5  UNL     1      10.661 -22.244  19.227  1.00  0.00     0.186 C
HETATM   12  C6  UNL     1      10.599 -22.370  20.731  1.00  0.00     0.033 C
HETATM   13  C7  UNL     1       9.577 -23.488  20.469  1.00  0.00     0.004 C
HETATM   14  C8  UNL     1       9.179 -22.659  19.250  1.00  0.00     0.033 C
ENDBRANCH   8  11
ENDBRANCH   4   8
BRANCH   1  15
HETATM   15  N1  UNL     1       8.971 -22.712  14.890  1.00  0.00    -0.072 N
ATOM     16  H13 UNL     1       8.564 -21.808  14.650  1.00  0.00     0.274 HD
ATOM     17  H12 UNL     1       8.521 -23.281  14.173  1.00  0.00     0.274 HD
ATOM     18  H11 UNL     1       8.700 -23.007  15.828  1.00  0.00     0.274 HD
ENDBRANCH   1  15
TORSDOF 3
ENDMDL