MODEL 3
REMARK VINA RESULT: -3.847717784      1.636      4.271
REMARK  2 active torsions:
REMARK  status: ('A' for Active; 'I' for Inactive)
REMARK    1  A    between atoms: N1_2  and  C2_5
REMARK    2  A    between atoms: C2_5  and  C3_6
ROOT
HETATM    1  C3  UNL     1      10.781 -22.222  18.148  1.00  0.00     0.076 C
HETATM    2  C4  UNL     1      11.716 -21.322  17.417  1.00  0.00     0.036 C
HETATM    3  C5  UNL     1      11.310 -21.105  15.969  1.00  0.00     0.116 C
HETATM    4  N2  UNL     1      11.476 -22.307  15.244  1.00  0.00    -0.405 N
ATOM      5  H2  UNL     1      12.297 -22.466  14.660  1.00  0.00     0.154 HD
HETATM    6  C6  UNL     1      10.461 -23.276  15.361  1.00  0.00     0.067 C
HETATM    7  C7  UNL     1       9.176 -22.938  14.646  1.00  0.00     0.050 C
HETATM    8  C8  UNL     1      10.961 -24.589  14.793  1.00  0.00     0.050 C
HETATM    9  S1  UNL     1      10.058 -23.504  17.117  1.00  0.00    -0.132 SA
ENDROOT
BRANCH   1  10
HETATM   10  C2  UNL     1      11.433 -22.854  19.352  1.00  0.00     0.247 C
BRANCH  10  11
HETATM   11  N1  UNL     1      10.662 -23.926  19.914  1.00  0.00    -0.078 N
HETATM   12  C1  UNL     1       9.547 -23.338  20.634  1.00  0.00     0.267 C
ATOM     13  H12 UNL     1      11.219 -24.554  20.492  1.00  0.00     0.276 HD
ATOM     14  H11 UNL     1      10.367 -24.610  19.217  1.00  0.00     0.276 HD
ENDBRANCH  10  11
ENDBRANCH   1  10
TORSDOF 2
ENDMDL