MODEL 2
REMARK VINA RESULT: -4.518127773      1.460      2.133
REMARK  4 active torsions:
REMARK  status: ('A' for Active; 'I' for Inactive)
REMARK    1  A    between atoms: C2_2  and  N1_3
REMARK    2  A    between atoms: C2_2  and  N2_7
REMARK    3  A    between atoms: C2_2  and  C3_11
REMARK    4  A    between atoms: C3_11  and  C4_12
ROOT
HETATM    1  C1  UNL     1      10.973 -24.801  14.118  1.00  0.00     0.078 C
HETATM    2  C2  UNL     1      10.550 -23.726  15.118  1.00  0.00     0.279 C
ENDROOT
BRANCH   2   3
HETATM    3  N1  UNL     1      11.156 -22.477  14.606  1.00  0.00    -0.045 N
ATOM      4  H13 UNL     1      10.618 -22.029  13.864  1.00  0.00     0.277 HD
ATOM      5  H12 UNL     1      11.116 -21.698  15.263  1.00  0.00     0.277 HD
ATOM      6  H11 UNL     1      12.102 -22.741  14.332  1.00  0.00     0.277 HD
ENDBRANCH   2   3
BRANCH   2   7
HETATM    7  N2  UNL     1       9.145 -23.563  15.000  1.00  0.00    -0.045 N
ATOM      8  H23 UNL     1       8.883 -22.871  14.297  1.00  0.00     0.277 HD
ATOM      9  H22 UNL     1       8.686 -24.367  14.572  1.00  0.00     0.277 HD
ATOM     10  H21 UNL     1       8.783 -23.343  15.928  1.00  0.00     0.277 HD
ENDBRANCH   2   7
BRANCH   2  11
HETATM   11  C3  UNL     1      11.111 -23.933  16.467  1.00  0.00     0.081 C
BRANCH  11  12
HETATM   12  C4  UNL     1      10.636 -23.061  17.557  1.00  0.00     0.062 C
HETATM   13  C5  UNL     1      11.692 -22.037  18.053  1.00  0.00     0.091 C
HETATM   14  C6  UNL     1      11.483 -21.886  19.440  1.00  0.00    -0.182 C
HETATM   15  C7  UNL     1      11.223 -21.833  20.815  1.00  0.00     0.083 C
HETATM   16  C8  UNL     1      10.132 -22.930  21.082  1.00  0.00     0.041 C
HETATM   17  C9  UNL     1       9.430 -23.365  19.829  1.00  0.00     0.012 C
HETATM   18  C10 UNL     1      10.055 -23.921  18.659  1.00  0.00     0.095 C
HETATM   19  F1  UNL     1      10.787 -25.109  18.852  1.00  0.00    -0.211 F
ENDBRANCH  11  12
ENDBRANCH   2  11
TORSDOF 4
ENDMDL