MODEL 5
REMARK VINA RESULT: -4.407215725     10.532     11.034
REMARK  2 active torsions:
REMARK  status: ('A' for Active; 'I' for Inactive)
REMARK    1  A    between atoms: N1_1  and  N2_4
REMARK    2  A    between atoms: N2_4  and  N3_6
ROOT
HETATM    1  N3  UNL     1       3.434 -24.439  24.514  1.00  0.00    -0.294 N
ATOM      2  H3  UNL     1       2.812 -24.532  23.710  1.00  0.00     0.188 HD
HETATM    3  C1  UNL     1       3.944 -25.511  25.027  1.00  0.00     0.019 C
HETATM    4  C2  UNL     1       4.834 -25.364  26.179  1.00  0.00     0.055 C
HETATM    5  C3  UNL     1       5.017 -26.608  26.989  1.00  0.00     0.006 C
HETATM    6  C4  UNL     1       5.009 -27.871  26.194  1.00  0.00     0.002 C
HETATM    7  C5  UNL     1       3.956 -27.999  25.170  1.00  0.00     0.022 C
HETATM    8  C6  UNL     1       3.589 -26.796  24.410  1.00  0.00     0.105 C
HETATM    9 BR1  UNL     1       4.410 -26.849  22.642  1.00  0.00    -0.085 Br
ENDROOT
BRANCH   1  10
HETATM   10  N2  UNL     1       3.693 -23.176  25.003  1.00  0.00    -0.249 N
ATOM     11  H2  UNL     1       4.436 -23.050  25.690  1.00  0.00     0.207 HD
BRANCH  10  12
HETATM   12  N1  UNL     1       2.959 -22.063  24.576  1.00  0.00    -0.331 N
ATOM     13  H12 UNL     1       3.441 -21.168  24.499  1.00  0.00     0.178 HD
ATOM     14  H11 UNL     1       1.968 -22.135  24.345  1.00  0.00     0.178 HD
ENDBRANCH  10  12
ENDBRANCH   1  10
TORSDOF 2
ENDMDL