MODEL 5
REMARK VINA RESULT: -4.911591454      1.764      1.935
REMARK  3 active torsions:
REMARK  status: ('A' for Active; 'I' for Inactive)
REMARK    1  A    between atoms: C2_2  and  C3_3
REMARK    2  A    between atoms: C3_3  and  C4_4
REMARK    3  A    between atoms: C4_4  and  N1_5
ROOT
HETATM    1  C4  UNL     1      10.410 -22.861  16.209  1.00  0.00     0.176 C
HETATM    2  C5  UNL     1       9.202 -22.186  16.830  1.00  0.00     0.129 C
HETATM    3  C6  UNL     1       9.519 -21.701  18.241  1.00  0.00     0.247 C
HETATM    4  F1  UNL     1      10.776 -21.121  18.296  1.00  0.00    -0.206 F
HETATM    5  F2  UNL     1       8.607 -20.708  18.549  1.00  0.00    -0.206 F
HETATM    6  C7  UNL     1       9.363 -22.811  19.248  1.00  0.00     0.089 C
HETATM    7  C8  UNL     1       9.916 -24.134  18.726  1.00  0.00     0.082 C
HETATM    8  S1  UNL     1      11.300 -23.632  17.623  1.00  0.00    -0.130 SA
ENDROOT
BRANCH   1   9
HETATM    9  C3  UNL     1       9.954 -24.040  15.376  1.00  0.00     0.050 C
BRANCH   9  10
HETATM   10  C2  UNL     1      11.001 -25.101  15.247  1.00  0.00    -0.001 C
HETATM   11  C1  UNL     1      11.647 -24.946  13.884  1.00  0.00     0.005 C
ENDBRANCH   9  10
ENDBRANCH   1   9
BRANCH   1  12
HETATM   12  N1  UNL     1      11.253 -21.952  15.498  1.00  0.00    -0.061 N
ATOM     13  H13 UNL     1      11.482 -21.145  16.078  1.00  0.00     0.276 HD
ATOM     14  H12 UNL     1      12.186 -22.346  15.378  1.00  0.00     0.276 HD
ATOM     15  H11 UNL     1      10.868 -21.655  14.601  1.00  0.00     0.276 HD
ENDBRANCH   1  12
TORSDOF 3
ENDMDL