MODEL 1
REMARK VINA RESULT: -9.815825217      0.000      0.000
REMARK  11 active torsions:
REMARK  status: ('A' for Active; 'I' for Inactive)
REMARK    1  A    between atoms: C5_5  and  N1_6
REMARK    2  A    between atoms: N1_6  and  C6_8
REMARK    3  A    between atoms: C7_9  and  N2_10
REMARK       I    between atoms: N2_10  and  C8_12
REMARK    4  A    between atoms: C8_12  and  C9_14
REMARK    5  A    between atoms: C12_17  and  S1_18
REMARK    6  A    between atoms: S1_18  and  N3_21
REMARK       I    between atoms: N3_21  and  C13_23
REMARK    7  A    between atoms: C13_23  and  C14_25
REMARK    8  A    between atoms: C14_25  and  N4_26
REMARK    9  A    between atoms: C16_28  and  C17_29
REMARK   10  A    between atoms: C17_29  and  O5_30
REMARK   11  A    between atoms: O5_30  and  C18_31
ROOT
HETATM    1  S1  UNL     1     -15.724 -12.614 -15.262  1.00  0.00     0.281 S
HETATM    2  O2  UNL     1     -16.284 -11.218 -15.456  1.00  0.00    -0.199 OA
HETATM    3  O3  UNL     1     -16.720 -13.387 -14.470  1.00  0.00    -0.199 OA
ENDROOT
BRANCH   1   4
HETATM    4  C12 UNL     1     -15.440 -13.389 -16.802  1.00  0.00     0.149 A
HETATM    5  C11 UNL     1     -16.191 -12.995 -17.887  1.00  0.00     0.045 A
HETATM    6  C10 UNL     1     -15.956 -13.624 -19.091  1.00  0.00     0.021 A
HETATM    7  C9  UNL     1     -15.006 -14.618 -19.233  1.00  0.00     0.047 A
HETATM    8  C28 UNL     1     -14.303 -14.947 -18.096  1.00  0.00     0.106 A
HETATM    9  N7  UNL     1     -14.512 -14.350 -16.910  1.00  0.00    -0.354 N
ATOM     10  H7  UNL     1     -13.966 -14.628 -16.095  1.00  0.00     0.166 HD
BRANCH   7  11
HETATM   11  C8  UNL     1     -14.768 -15.300 -20.529  1.00  0.00     0.257 C
HETATM   12  N2  UNL     1     -13.986 -14.682 -21.487  1.00  0.00    -0.317 N
ATOM     13  H2  UNL     1     -13.593 -13.766 -21.268  1.00  0.00     0.169 HD
HETATM   14  O1  UNL     1     -15.303 -16.404 -20.664  1.00  0.00    -0.267 OA
BRANCH  12  15
HETATM   15  C7  UNL     1     -13.697 -15.246 -22.757  1.00  0.00     0.121 A
HETATM   16  C6  UNL     1     -14.007 -15.090 -24.078  1.00  0.00     0.119 A
HETATM   17  C30 UNL     1     -13.210 -16.168 -24.435  1.00  0.00     0.253 A
HETATM   18  C29 UNL     1     -12.885 -16.347 -23.134  1.00  0.00     0.253 A
HETATM   19  O7  UNL     1     -12.954 -16.699 -25.567  1.00  0.00    -0.281 OA
HETATM   20  O6  UNL     1     -12.153 -17.158 -22.491  1.00  0.00    -0.281 OA
BRANCH  16  21
HETATM   21  N1  UNL     1     -14.809 -14.173 -24.837  1.00  0.00    -0.351 N
ATOM     22  H1  UNL     1     -15.804 -14.353 -24.974  1.00  0.00     0.166 HD
BRANCH  21  23
HETATM   23  C5  UNL     1     -14.202 -12.998 -25.402  1.00  0.00     0.032 A
HETATM   24  C4  UNL     1     -13.587 -12.051 -24.611  1.00  0.00     0.030 A
HETATM   25  C3  UNL     1     -13.005 -10.922 -25.175  1.00  0.00     0.009 A
HETATM   26  C2  UNL     1     -13.028 -10.718 -26.543  1.00  0.00    -0.062 A
HETATM   27  C1  UNL     1     -12.423  -9.532 -27.199  1.00  0.00     0.048 C
HETATM   28  C32 UNL     1     -13.643 -11.669 -27.329  1.00  0.00     0.009 A
HETATM   29  C31 UNL     1     -14.217 -12.785 -26.761  1.00  0.00     0.030 A
ENDBRANCH  21  23
ENDBRANCH  16  21
ENDBRANCH  12  15
ENDBRANCH   7  11
ENDBRANCH   1   4
BRANCH   1  30
HETATM   30  N3  UNL     1     -14.221 -12.444 -14.465  1.00  0.00    -0.248 N
HETATM   31  C13 UNL     1     -13.630 -13.549 -13.824  1.00  0.00     0.251 C
HETATM   32  O4  UNL     1     -14.128 -14.703 -13.781  1.00  0.00    -0.271 OA
ATOM     33  H3  UNL     1     -13.751 -11.538 -14.455  1.00  0.00     0.182 HD
BRANCH  31  34
HETATM   34  C14 UNL     1     -12.302 -13.423 -13.111  1.00  0.00     0.253 C
BRANCH  34  35
HETATM   35  N4  UNL     1     -11.219 -13.473 -14.072  1.00  0.00    -0.278 N
HETATM   36  C15 UNL     1     -11.342 -13.913 -15.333  1.00  0.00     0.140 A
HETATM   37  C16 UNL     1     -10.095 -13.791 -15.909  1.00  0.00     0.068 A
HETATM   38  N5  UNL     1      -9.303 -13.285 -14.949  1.00  0.00    -0.287 N
HETATM   39  N6  UNL     1      -9.992 -13.100 -13.852  1.00  0.00    -0.240 N
ATOM     40  H5  UNL     1      -8.311 -13.075 -15.059  1.00  0.00     0.188 HD
ATOM     41  H6  UNL     1      -9.629 -12.727 -12.975  1.00  0.00     0.208 HD
BRANCH  37  42
HETATM   42  C17 UNL     1      -9.738 -14.160 -17.321  1.00  0.00     0.235 C
BRANCH  42  43
HETATM   43  O5  UNL     1     -10.514 -13.389 -18.191  1.00  0.00    -0.344 OA
BRANCH  43  44
HETATM   44  C18 UNL     1     -10.287 -12.092 -18.555  1.00  0.00     0.080 A
HETATM   45  C19 UNL     1      -9.080 -11.463 -18.323  1.00  0.00     0.037 A
HETATM   46  C20 UNL     1      -8.869 -10.153 -18.696  1.00  0.00     0.004 A
HETATM   47  C21 UNL     1      -9.866  -9.432 -19.315  1.00  0.00     0.012 A
HETATM   48  C22 UNL     1     -11.073 -10.044 -19.552  1.00  0.00    -0.023 A
HETATM   49  C23 UNL     1     -12.102  -9.366 -20.168  1.00  0.00     0.012 A
HETATM   50  C27 UNL     1     -11.278 -11.367 -19.173  1.00  0.00     0.007 A
HETATM   51  C24 UNL     1     -13.307  -9.983 -20.403  1.00  0.00     0.001 A
HETATM   52  C25 UNL     1     -13.501 -11.290 -20.025  1.00  0.00     0.001 A
HETATM   53  C26 UNL     1     -12.478 -11.992 -19.404  1.00  0.00     0.015 A
ENDBRANCH  43  44
ENDBRANCH  42  43
ENDBRANCH  37  42
ENDBRANCH  34  35
ENDBRANCH  31  34
ENDBRANCH   1  30
TORSDOF 11
ENDMDL