MODEL 4
REMARK VINA RESULT: -8.304091256      3.418      7.688
REMARK  13 active torsions:
REMARK  status: ('A' for Active; 'I' for Inactive)
REMARK    1  A    between atoms: C5_5  and  S1_6
REMARK    2  A    between atoms: S1_6  and  N1_9
REMARK    3  A    between atoms: N1_9  and  N2_11
REMARK       I    between atoms: N2_11  and  C7_14
REMARK    4  A    between atoms: C7_14  and  C8_16
REMARK    5  A    between atoms: C8_16  and  C9_17
REMARK    6  A    between atoms: C8_16  and  C17_28
REMARK    7  A    between atoms: C9_17  and  N4_18
REMARK    8  A    between atoms: C22_33  and  C23_34
REMARK    9  A    between atoms: C23_34  and  O5_36
REMARK   10  A    between atoms: O5_36  and  C24_37
REMARK   11  A    between atoms: C24_37  and  C25_38
REMARK       I    between atoms: C25_38  and  N6_40
REMARK   12  A    between atoms: N6_40  and  N7_42
REMARK   13  A    between atoms: C26_44  and  C27_45
ROOT
HETATM    1  N2  UNL     1     -14.203 -12.225 -17.160  1.00  0.00    -0.145 N
HETATM    2  C6  UNL     1     -15.158 -11.766 -16.214  1.00  0.00     0.208 C
HETATM    3  N3  UNL     1     -15.957 -11.363 -15.447  1.00  0.00    -0.170 NA
HETATM    4  C7  UNL     1     -14.017 -11.440 -18.319  1.00  0.00     0.262 C
HETATM    5  O3  UNL     1     -14.688 -10.331 -18.362  1.00  0.00    -0.270 OA
ENDROOT
BRANCH   1   6
HETATM    6  N1  UNL     1     -13.500 -13.385 -16.962  1.00  0.00    -0.204 N
ATOM      7  H1  UNL     1     -12.506 -13.389 -16.735  1.00  0.00     0.201 HD
BRANCH   6   8
HETATM    8  S1  UNL     1     -14.397 -14.802 -17.121  1.00  0.00     0.277 S
HETATM    9  O1  UNL     1     -15.864 -14.391 -17.255  1.00  0.00    -0.199 OA
HETATM   10  O2  UNL     1     -14.330 -15.657 -15.908  1.00  0.00    -0.199 OA
BRANCH   8  11
HETATM   11  C5  UNL     1     -13.985 -15.682 -18.584  1.00  0.00     0.081 A
HETATM   12  C4  UNL     1     -12.990 -15.248 -19.434  1.00  0.00     0.026 A
HETATM   13  C3  UNL     1     -12.651 -15.922 -20.604  1.00  0.00     0.008 A
HETATM   14  C2  UNL     1     -13.331 -17.072 -20.938  1.00  0.00    -0.062 A
HETATM   15  C1  UNL     1     -12.970 -17.790 -22.185  1.00  0.00     0.048 C
HETATM   16  C31 UNL     1     -14.327 -17.524 -20.103  1.00  0.00     0.008 A
HETATM   17  C30 UNL     1     -14.656 -16.833 -18.929  1.00  0.00     0.026 A
ENDBRANCH   8  11
ENDBRANCH   6   8
ENDBRANCH   1   6
BRANCH   4  18
HETATM   18  C8  UNL     1     -13.174 -11.687 -19.489  1.00  0.00     0.133 C
BRANCH  18  19
HETATM   19  C9  UNL     1     -13.940 -11.376 -20.795  1.00  0.00     0.149 C
BRANCH  19  20
HETATM   20  N4  UNL     1     -14.206 -12.467 -21.656  1.00  0.00    -0.340 N
HETATM   21  C10 UNL     1     -13.515 -12.783 -22.774  1.00  0.00     0.183 A
HETATM   22  N5  UNL     1     -14.044 -13.880 -23.341  1.00  0.00    -0.350 N
HETATM   23  C11 UNL     1     -15.090 -14.282 -22.586  1.00  0.00     0.060 A
ATOM     24  H5  UNL     1     -13.714 -14.332 -24.193  1.00  0.00     0.166 HD
HETATM   25  C12 UNL     1     -16.008 -15.295 -22.647  1.00  0.00     0.032 A
HETATM   26  C16 UNL     1     -15.171 -13.383 -21.540  1.00  0.00     0.062 A
HETATM   27  C13 UNL     1     -17.017 -15.442 -21.688  1.00  0.00     0.002 A
HETATM   28  C14 UNL     1     -17.101 -14.547 -20.644  1.00  0.00     0.002 A
HETATM   29  C15 UNL     1     -16.157 -13.518 -20.594  1.00  0.00     0.032 A
ENDBRANCH  19  20
ENDBRANCH  18  19
BRANCH  18  30
HETATM   30  C17 UNL     1     -12.011 -10.721 -19.510  1.00  0.00    -0.027 A
HETATM   31  C18 UNL     1     -12.178  -9.396 -19.933  1.00  0.00     0.009 A
HETATM   32  C19 UNL     1     -11.105  -8.513 -19.893  1.00  0.00     0.001 A
HETATM   33  C20 UNL     1      -9.886  -8.953 -19.438  1.00  0.00     0.001 A
HETATM   34  C21 UNL     1      -9.698 -10.239 -19.021  1.00  0.00     0.018 A
HETATM   35  C22 UNL     1     -10.788 -11.136 -19.062  1.00  0.00     0.046 A
BRANCH  35  36
HETATM   36  C23 UNL     1     -10.461 -12.479 -18.673  1.00  0.00     0.294 C
HETATM   37  O4  UNL     1     -10.262 -13.438 -19.431  1.00  0.00    -0.259 OA
BRANCH  36  38
HETATM   38  O5  UNL     1     -10.331 -12.839 -17.302  1.00  0.00    -0.308 OA
BRANCH  38  39
HETATM   39  C24 UNL     1      -9.512 -13.889 -16.869  1.00  0.00     0.283 C
BRANCH  39  40
HETATM   40  C25 UNL     1     -10.361 -15.087 -16.663  1.00  0.00     0.260 C
HETATM   41  O6  UNL     1     -11.151 -15.089 -15.690  1.00  0.00    -0.269 OA
HETATM   42  N6  UNL     1     -10.317 -16.214 -17.511  1.00  0.00    -0.269 N
ATOM     43  H6  UNL     1      -9.674 -16.217 -18.303  1.00  0.00     0.190 HD
BRANCH  42  44
HETATM   44  N7  UNL     1     -11.125 -17.314 -17.293  1.00  0.00    -0.306 N
HETATM   45  C26 UNL     1     -11.263 -18.329 -18.062  1.00  0.00     0.146 C
ATOM     46  H7  UNL     1     -11.668 -17.319 -16.430  1.00  0.00     0.186 HD
BRANCH  45  47
HETATM   47  C27 UNL     1     -12.189 -19.391 -17.618  1.00  0.00     0.117 A
HETATM   48  C28 UNL     1     -12.136 -20.716 -17.985  1.00  0.00     0.059 A
HETATM   49  C29 UNL     1     -13.188 -21.320 -17.330  1.00  0.00     0.117 A
HETATM   50  N8  UNL     1     -13.782 -20.356 -16.637  1.00  0.00    -0.272 N
HETATM   51  O7  UNL     1     -13.195 -19.224 -16.807  1.00  0.00    -0.237 OA
ATOM     52  H8  UNL     1     -14.601 -20.495 -16.045  1.00  0.00     0.194 HD
ENDBRANCH  45  47
ENDBRANCH  42  44
ENDBRANCH  39  40
ENDBRANCH  38  39
ENDBRANCH  36  38
ENDBRANCH  35  36
ENDBRANCH  18  30
ENDBRANCH   4  18
TORSDOF 13
ENDMDL