MODEL 5
REMARK VINA RESULT: -7.565893231      3.952      7.387
REMARK  12 active torsions:
REMARK  status: ('A' for Active; 'I' for Inactive)
REMARK    1  A    between atoms: C5_6  and  S1_7
REMARK    2  A    between atoms: S1_7  and  C6_9
REMARK    3  A    between atoms: C9_12  and  S2_13
REMARK    4  A    between atoms: S2_13  and  N1_16
REMARK    5  A    between atoms: N1_16  and  C10_18
REMARK    6  A    between atoms: C10_18  and  C11_19
REMARK    7  A    between atoms: C10_18  and  C26_43
REMARK    8  A    between atoms: C11_19  and  S3_20
REMARK    9  A    between atoms: S3_20  and  C12_21
REMARK   10  A    between atoms: C13_26  and  C14_27
REMARK   11  A    between atoms: C26_43  and  O5_44
REMARK   12  A    between atoms: N6_46  and  O6_48
ROOT
HETATM    1  C10 UNL     1      -9.395 -13.638 -16.070  1.00  0.00     0.179 C
ENDROOT
BRANCH   1   2
HETATM    2  N1  UNL     1     -10.570 -13.583 -15.213  1.00  0.00    -0.302 N
ATOM      3  H1  UNL     1     -10.517 -13.428 -14.206  1.00  0.00     0.173 HD
BRANCH   2   4
HETATM    4  S2  UNL     1     -12.039 -13.802 -16.042  1.00  0.00     0.259 S
HETATM    5  O3  UNL     1     -12.279 -12.737 -17.075  1.00  0.00    -0.201 OA
HETATM    6  O4  UNL     1     -13.157 -13.738 -15.010  1.00  0.00    -0.201 OA
BRANCH   4   7
HETATM    7  C9  UNL     1     -12.073 -15.404 -16.740  1.00  0.00     0.079 A
HETATM    8  C8  UNL     1     -13.256 -16.162 -16.697  1.00  0.00     0.027 A
HETATM    9  C7  UNL     1     -13.325 -17.420 -17.240  1.00  0.00     0.023 A
HETATM   10  C6  UNL     1     -12.227 -18.008 -17.861  1.00  0.00     0.038 A
HETATM   11  C28 UNL     1     -11.068 -17.256 -17.899  1.00  0.00     0.023 A
HETATM   12  C27 UNL     1     -10.987 -15.977 -17.350  1.00  0.00     0.027 A
BRANCH  10  13
HETATM   13  S1  UNL     1     -12.365 -19.609 -18.543  1.00  0.00     0.102 S
HETATM   14  O2  UNL     1     -13.480 -19.646 -19.798  1.00  0.00    -0.246 OA
BRANCH  13  15
HETATM   15  C5  UNL     1     -12.582 -20.859 -17.385  1.00  0.00     0.108 A
HETATM   16  C4  UNL     1     -13.209 -22.030 -17.735  1.00  0.00     0.040 A
HETATM   17  C3  UNL     1     -13.375 -23.020 -16.785  1.00  0.00     0.008 A
HETATM   18  C2  UNL     1     -12.927 -22.848 -15.509  1.00  0.00     0.074 A
HETATM   19  C1  UNL     1     -12.299 -21.657 -15.184  1.00  0.00     0.246 A
HETATM   20  O1  UNL     1     -11.866 -21.457 -14.002  1.00  0.00    -0.268 OA
HETATM   21  N7  UNL     1     -12.151 -20.713 -16.130  1.00  0.00    -0.316 N
ATOM     22  H7  UNL     1     -11.687 -19.841 -15.875  1.00  0.00     0.169 HD
ENDBRANCH  13  15
ENDBRANCH  10  13
ENDBRANCH   4   7
ENDBRANCH   2   4
ENDBRANCH   1   2
BRANCH   1  23
HETATM   23  C11 UNL     1      -8.929 -12.227 -16.347  1.00  0.00     0.116 C
BRANCH  23  24
HETATM   24  S3  UNL     1      -8.622 -12.005 -18.083  1.00  0.00    -0.090 SA
BRANCH  24  25
HETATM   25  C12 UNL     1     -10.138 -12.047 -19.065  1.00  0.00     0.159 A
HETATM   26  N2  UNL     1     -10.826 -10.934 -19.368  1.00  0.00    -0.279 N
HETATM   27  N3  UNL     1     -11.915 -10.963 -20.153  1.00  0.00    -0.296 N
ATOM     28  H2  UNL     1     -10.512 -10.040 -18.990  1.00  0.00     0.189 HD
HETATM   29  C13 UNL     1     -12.386 -12.110 -20.685  1.00  0.00     0.086 A
ATOM     30  H3  UNL     1     -12.402 -10.090 -20.353  1.00  0.00     0.187 HD
HETATM   31  C19 UNL     1     -11.690 -13.263 -20.381  1.00  0.00     0.073 A
HETATM   32  C20 UNL     1     -12.130 -14.524 -20.940  1.00  0.00    -0.007 A
HETATM   33  N5  UNL     1     -10.582 -13.206 -19.577  1.00  0.00    -0.333 N
HETATM   34  C21 UNL     1     -13.333 -15.098 -20.640  1.00  0.00     0.014 A
HETATM   35  C25 UNL     1     -11.306 -15.195 -21.823  1.00  0.00     0.014 A
HETATM   36  C22 UNL     1     -13.718 -16.321 -21.209  1.00  0.00     0.001 A
HETATM   37  C23 UNL     1     -12.880 -16.969 -22.086  1.00  0.00     0.000 A
HETATM   38  C24 UNL     1     -11.674 -16.401 -22.387  1.00  0.00     0.001 A
ATOM     39  H5  UNL     1     -10.080 -14.067 -19.363  1.00  0.00     0.168 HD
BRANCH  29  40
HETATM   40  C14 UNL     1     -13.535 -12.147 -21.566  1.00  0.00    -0.003 A
HETATM   41  C15 UNL     1     -14.805 -12.098 -21.077  1.00  0.00     0.031 A
HETATM   42  C16 UNL     1     -15.900 -12.121 -21.951  1.00  0.00     0.088 A
HETATM   43  N4  UNL     1     -15.684 -12.198 -23.300  1.00  0.00    -0.375 N
HETATM   44  C17 UNL     1     -14.457 -12.249 -23.805  1.00  0.00     0.088 A
ATOM     45  H4  UNL     1     -16.484 -12.216 -23.932  1.00  0.00     0.164 HD
HETATM   46  C18 UNL     1     -13.376 -12.224 -22.950  1.00  0.00     0.031 A
ENDBRANCH  29  40
ENDBRANCH  24  25
ENDBRANCH  23  24
ENDBRANCH   1  23
BRANCH   1  47
HETATM   47  C26 UNL     1      -8.343 -14.326 -15.246  1.00  0.00     0.160 C
HETATM   48  N6  UNL     1      -8.561 -14.588 -14.018  1.00  0.00    -0.249 N
ATOM     49  H6  UNL     1      -9.460 -14.320 -13.619  1.00  0.00     0.196 HD
BRANCH  47  50
HETATM   50  O5  UNL     1      -7.132 -14.686 -15.799  1.00  0.00    -0.347 OA
ATOM     51  H5  UNL     1      -6.457 -15.098 -15.273  1.00  0.00     0.219 HD
ENDBRANCH  47  50
BRANCH  48  52
HETATM   52  O6  UNL     1      -7.654 -15.208 -13.213  1.00  0.00    -0.288 OA
ATOM     53  H6  UNL     1      -7.306 -16.074 -13.388  1.00  0.00     0.244 HD
ENDBRANCH  48  52
ENDBRANCH   1  47
TORSDOF 12
ENDMDL