MODEL 3
REMARK VINA RESULT: -8.635487001      1.777      3.200
REMARK  11 active torsions:
REMARK  status: ('A' for Active; 'I' for Inactive)
REMARK       I    between atoms: C2_2  and  N1_4
REMARK    1  A    between atoms: C3_5  and  C4_6
REMARK    2  A    between atoms: C4_6  and  C5_7
REMARK    3  A    between atoms: C5_7  and  C6_8
REMARK    4  A    between atoms: C6_8  and  S1_9
REMARK    5  A    between atoms: N2_13  and  N3_15
REMARK    6  A    between atoms: N3_15  and  S2_17
REMARK    7  A    between atoms: S2_17  and  C8_20
REMARK    8  A    between atoms: C11_23  and  N4_24
REMARK       I    between atoms: N4_24  and  C12_26
REMARK    9  A    between atoms: C12_26  and  C13_28
REMARK       I    between atoms: C13_28  and  N5_30
REMARK   10  A    between atoms: N5_30  and  C14_32
REMARK   11  A    between atoms: C19_37  and  N6_38
ROOT
HETATM    1  S2  UNL     1     -15.598 -15.720 -19.613  1.00  0.00     0.276 S
HETATM    2  O4  UNL     1     -17.038 -16.033 -19.374  1.00  0.00    -0.199 OA
HETATM    3  O5  UNL     1     -14.874 -16.986 -19.873  1.00  0.00    -0.199 OA
ENDROOT
BRANCH   1   4
HETATM    4  N3  UNL     1     -15.014 -14.879 -18.219  1.00  0.00    -0.223 N
ATOM      5  H3  UNL     1     -15.720 -14.429 -17.635  1.00  0.00     0.200 HD
BRANCH   4   6
HETATM    6  N2  UNL     1     -13.724 -14.749 -17.810  1.00  0.00    -0.292 N
HETATM    7  C4  UNL     1     -13.110 -13.637 -17.592  1.00  0.00     0.072 C
ATOM      8  H2  UNL     1     -13.195 -15.609 -17.664  1.00  0.00     0.187 HD
BRANCH   7   9
HETATM    9  C3  UNL     1     -11.726 -13.607 -17.155  1.00  0.00     0.140 A
HETATM   10  N1  UNL     1     -10.625 -13.007 -17.608  1.00  0.00    -0.264 N
HETATM   11  C2  UNL     1     -10.352 -12.500 -18.873  1.00  0.00     0.226 C
HETATM   12  C27 UNL     1      -9.604 -13.086 -16.660  1.00  0.00     0.070 A
HETATM   13  C1  UNL     1     -11.111 -12.677 -20.106  1.00  0.00     0.118 C
HETATM   14  O1  UNL     1      -9.286 -11.779 -19.040  1.00  0.00    -0.273 OA
HETATM   15  C22 UNL     1     -10.141 -13.782 -15.593  1.00  0.00     0.061 A
HETATM   16  C26 UNL     1      -8.303 -12.650 -16.593  1.00  0.00     0.032 A
HETATM   17  N7  UNL     1     -11.389 -14.082 -15.896  1.00  0.00    -0.338 N
HETATM   18  C23 UNL     1      -9.371 -14.038 -14.467  1.00  0.00     0.032 A
ATOM     19  H7  UNL     1     -12.023 -14.596 -15.285  1.00  0.00     0.167 HD
HETATM   20  C24 UNL     1      -8.092 -13.591 -14.430  1.00  0.00     0.002 A
HETATM   21  C25 UNL     1      -7.530 -12.895 -15.477  1.00  0.00     0.002 A
ENDBRANCH   7   9
BRANCH   7  22
HETATM   22  C5  UNL     1     -13.880 -12.375 -17.740  1.00  0.00     0.077 C
BRANCH  22  23
HETATM   23  C6  UNL     1     -14.461 -11.752 -16.561  1.00  0.00     0.146 C
BRANCH  23  24
HETATM   24  S1  UNL     1     -15.886 -12.317 -15.766  1.00  0.00     0.141 S
HETATM   25  C7  UNL     1     -15.648 -13.194 -14.263  1.00  0.00     0.161 C
HETATM   26  O2  UNL     1     -16.837 -13.097 -16.639  1.00  0.00    -0.228 OA
HETATM   27  O3  UNL     1     -16.698 -11.050 -15.394  1.00  0.00    -0.228 OA
ENDBRANCH  23  24
ENDBRANCH  22  23
ENDBRANCH   7  22
ENDBRANCH   4   6
ENDBRANCH   1   4
BRANCH   1  28
HETATM   28  C8  UNL     1     -15.475 -14.579 -20.941  1.00  0.00     0.081 A
HETATM   29  C9  UNL     1     -15.736 -13.259 -20.745  1.00  0.00     0.027 A
HETATM   30  C10 UNL     1     -15.597 -12.329 -21.792  1.00  0.00     0.031 A
HETATM   31  C11 UNL     1     -15.200 -12.803 -22.983  1.00  0.00     0.035 A
HETATM   32  C20 UNL     1     -14.931 -14.141 -23.218  1.00  0.00     0.031 A
HETATM   33  C21 UNL     1     -15.071 -15.022 -22.196  1.00  0.00     0.027 A
BRANCH  31  34
HETATM   34  N4  UNL     1     -15.003 -11.969 -24.128  1.00  0.00    -0.319 N
HETATM   35  C12 UNL     1     -13.663 -11.625 -24.395  1.00  0.00     0.314 C
HETATM   36  O6  UNL     1     -12.760 -12.015 -23.578  1.00  0.00    -0.262 OA
ATOM     37  H4  UNL     1     -15.777 -11.646 -24.709  1.00  0.00     0.169 HD
BRANCH  35  38
HETATM   38  C13 UNL     1     -13.196 -10.852 -25.539  1.00  0.00     0.314 C
HETATM   39  O7  UNL     1     -12.016 -10.983 -25.979  1.00  0.00    -0.262 OA
HETATM   40  N5  UNL     1     -14.089  -9.951 -26.160  1.00  0.00    -0.317 N
ATOM     41  H5  UNL     1     -15.022  -9.884 -25.752  1.00  0.00     0.169 HD
BRANCH  40  42
HETATM   42  C14 UNL     1     -13.843  -9.157 -27.249  1.00  0.00     0.068 A
HETATM   43  C15 UNL     1     -12.583  -8.895 -27.736  1.00  0.00     0.032 A
HETATM   44  C16 UNL     1     -12.385  -8.177 -28.913  1.00  0.00     0.002 A
HETATM   45  C17 UNL     1     -13.444  -7.705 -29.629  1.00  0.00     0.003 A
HETATM   46  C18 UNL     1     -14.708  -7.941 -29.182  1.00  0.00     0.038 A
HETATM   47  C19 UNL     1     -14.905  -8.659 -28.004  1.00  0.00     0.129 A
BRANCH  47  48
HETATM   48  N6  UNL     1     -16.225  -8.829 -27.566  1.00  0.00    -0.113 N
HETATM   49  O8  UNL     1     -17.022  -7.902 -27.499  1.00  0.00    -0.532 OA
HETATM   50  O9  UNL     1     -16.674 -10.087 -27.237  1.00  0.00    -0.532 OA
ENDBRANCH  47  48
ENDBRANCH  40  42
ENDBRANCH  35  38
ENDBRANCH  31  34
ENDBRANCH   1  28
TORSDOF 11
ENDMDL