MODEL 2
REMARK VINA RESULT: -8.467269183      1.382      1.641
REMARK  11 active torsions:
REMARK  status: ('A' for Active; 'I' for Inactive)
REMARK    1  A    between atoms: N1_2  and  C3_4
REMARK    2  A    between atoms: C5_8  and  S1_9
REMARK    3  A    between atoms: S1_9  and  C6_12
REMARK    4  A    between atoms: C7_13  and  C8_14
REMARK    5  A    between atoms: C10_17  and  N3_18
REMARK       I    between atoms: N3_18  and  C11_20
REMARK    6  A    between atoms: C11_20  and  C12_22
REMARK    7  A    between atoms: C14_24  and  C15_25
REMARK    8  A    between atoms: C18_30  and  N4_31
REMARK    9  A    between atoms: N4_31  and  S3_33
REMARK   10  A    between atoms: S3_33  and  C19_36
REMARK   11  A    between atoms: C23_40  and  N5_41
ROOT
HETATM    1  N3  UNL     1     -12.791 -14.869 -18.305  1.00  0.00    -0.303 N
ATOM      2  H3  UNL     1     -12.981 -15.224 -17.368  1.00  0.00     0.171 HD
HETATM    3  C11 UNL     1     -11.457 -14.752 -18.774  1.00  0.00     0.259 C
HETATM    4  O3  UNL     1     -11.139 -15.444 -19.761  1.00  0.00    -0.267 OA
ENDROOT
BRANCH   3   5
HETATM    5  C12 UNL     1     -10.477 -13.879 -18.155  1.00  0.00     0.060 A
HETATM    6  C13 UNL     1      -9.827 -14.294 -16.983  1.00  0.00     0.037 A
HETATM    7  C14 UNL     1      -8.899 -13.497 -16.358  1.00  0.00     0.042 A
HETATM    8  C16 UNL     1      -8.621 -12.262 -16.923  1.00  0.00     0.021 A
HETATM    9  C17 UNL     1      -9.259 -11.851 -18.077  1.00  0.00     0.032 A
HETATM   10  C18 UNL     1     -10.202 -12.661 -18.711  1.00  0.00     0.058 A
BRANCH   7  11
HETATM   11  C15 UNL     1      -8.225 -13.943 -15.142  1.00  0.00     0.209 C
HETATM   12  O4  UNL     1      -7.241 -14.711 -15.257  1.00  0.00    -0.644 OA
HETATM   13  O5  UNL     1      -8.634 -13.549 -13.880  1.00  0.00    -0.644 OA
ENDBRANCH   7  11
BRANCH  10  14
HETATM   14  N4  UNL     1     -10.869 -12.242 -19.882  1.00  0.00    -0.280 N
ATOM     15  H4  UNL     1     -10.715 -12.732 -20.763  1.00  0.00     0.179 HD
BRANCH  14  16
HETATM   16  S3  UNL     1     -11.942 -10.908 -19.816  1.00  0.00     0.263 S
HETATM   17  O6  UNL     1     -11.205  -9.600 -19.733  1.00  0.00    -0.200 OA
HETATM   18  O7  UNL     1     -12.820 -11.038 -18.581  1.00  0.00    -0.200 OA
BRANCH  16  19
HETATM   19  C19 UNL     1     -13.012 -10.885 -21.183  1.00  0.00     0.082 A
HETATM   20  C20 UNL     1     -14.366 -10.591 -21.077  1.00  0.00     0.025 A
HETATM   21  C21 UNL     1     -15.152 -10.588 -22.199  1.00  0.00     0.004 A
HETATM   22  C22 UNL     1     -14.657 -10.868 -23.460  1.00  0.00     0.036 A
HETATM   23  C23 UNL     1     -13.322 -11.158 -23.576  1.00  0.00     0.104 A
HETATM   24  C24 UNL     1     -12.518 -11.164 -22.446  1.00  0.00     0.061 A
BRANCH  23  25
HETATM   25  N5  UNL     1     -12.729 -11.456 -24.841  1.00  0.00    -0.116 N
HETATM   26  O8  UNL     1     -11.769 -10.819 -25.293  1.00  0.00    -0.532 OA
HETATM   27  O9  UNL     1     -13.251 -12.485 -25.567  1.00  0.00    -0.532 OA
ENDBRANCH  23  25
ENDBRANCH  16  19
ENDBRANCH  14  16
ENDBRANCH  10  14
ENDBRANCH   3   5
BRANCH   1  28
HETATM   28  C10 UNL     1     -13.778 -14.512 -19.094  1.00  0.00     0.151 A
HETATM   29  S2  UNL     1     -15.226 -13.769 -18.636  1.00  0.00    -0.063 SA
HETATM   30  C9  UNL     1     -15.942 -13.636 -20.172  1.00  0.00     0.082 A
HETATM   31  C8  UNL     1     -14.975 -14.204 -21.018  1.00  0.00     0.041 A
HETATM   32  N6  UNL     1     -13.897 -14.633 -20.416  1.00  0.00    -0.336 N
ATOM     33  H6  UNL     1     -13.146 -15.059 -20.958  1.00  0.00     0.168 HD
BRANCH  31  34
HETATM   34  C7  UNL     1     -15.266 -14.281 -22.456  1.00  0.00     0.042 C
HETATM   35  C6  UNL     1     -15.147 -15.196 -23.337  1.00  0.00     0.116 C
BRANCH  35  36
HETATM   36  S1  UNL     1     -14.593 -16.811 -23.346  1.00  0.00     0.199 S
HETATM   37  O1  UNL     1     -15.690 -17.829 -23.366  1.00  0.00    -0.218 OA
HETATM   38  O2  UNL     1     -13.673 -17.125 -22.197  1.00  0.00    -0.218 OA
BRANCH  36  39
HETATM   39  C5  UNL     1     -13.570 -17.110 -24.796  1.00  0.00     0.095 A
HETATM   40  C4  UNL     1     -13.697 -16.313 -25.904  1.00  0.00     0.131 A
HETATM   41  N2  UNL     1     -12.921 -16.559 -27.000  1.00  0.00    -0.200 N
HETATM   42  C3  UNL     1     -12.028 -17.560 -27.037  1.00  0.00     0.679 A
ATOM     43  H2  UNL     1     -13.022 -15.960 -27.819  1.00  0.00     0.183 HD
HETATM   44  N7  UNL     1     -11.909 -18.337 -25.948  1.00  0.00    -0.200 N
HETATM   45  C25 UNL     1     -12.660 -18.134 -24.827  1.00  0.00     0.131 A
ATOM     46  H7  UNL     1     -11.235 -19.103 -25.958  1.00  0.00     0.183 HD
BRANCH  42  47
HETATM   47  N1  UNL     1     -11.242 -17.776 -28.208  1.00  0.00    -0.226 N
HETATM   48  C1  UNL     1     -10.009 -18.527 -28.102  1.00  0.00     0.168 C
HETATM   49  C2  UNL     1     -11.621 -17.274 -29.509  1.00  0.00     0.168 C
ENDBRANCH  42  47
ENDBRANCH  36  39
ENDBRANCH  35  36
ENDBRANCH  31  34
ENDBRANCH   1  28
TORSDOF 11
ENDMDL