MODEL 5
REMARK VINA RESULT: -7.686435062      1.136      1.480
REMARK  12 active torsions:
REMARK  status: ('A' for Active; 'I' for Inactive)
REMARK    1  A    between atoms: C2_2  and  N1_3
REMARK    2  A    between atoms: N1_3  and  C3_4
REMARK    3  A    between atoms: N1_3  and  S2_36
REMARK    4  A    between atoms: C6_7  and  C7_8
REMARK    5  A    between atoms: C8_9  and  C9_10
REMARK    6  A    between atoms: C8_9  and  C17_25
REMARK    7  A    between atoms: C9_10  and  S1_11
REMARK    8  A    between atoms: S1_11  and  C10_12
REMARK    9  A    between atoms: N5_18  and  C11_19
REMARK   10  A    between atoms: S2_36  and  C23_39
REMARK   11  A    between atoms: C25_43  and  S3_44
REMARK   12  A    between atoms: S3_44  and  N9_45
ROOT
HETATM    1  C7  UNL     1     -13.956 -11.583 -20.527  1.00  0.00     0.020 C
HETATM    2  C8  UNL     1     -12.769 -11.290 -20.898  1.00  0.00    -0.030 C
ENDROOT
BRANCH   1   3
HETATM    3  C6  UNL     1     -14.420 -11.944 -19.225  1.00  0.00    -0.035 A
HETATM    4  C5  UNL     1     -14.845 -13.254 -18.972  1.00  0.00     0.013 A
HETATM    5  C4  UNL     1     -15.209 -13.582 -17.694  1.00  0.00     0.031 A
HETATM    6  C3  UNL     1     -15.185 -12.709 -16.644  1.00  0.00     0.045 A
HETATM    7  C22 UNL     1     -14.764 -11.425 -16.915  1.00  0.00     0.031 A
HETATM    8  C21 UNL     1     -14.382 -11.017 -18.168  1.00  0.00     0.013 A
BRANCH   6   9
HETATM    9  N1  UNL     1     -15.566 -13.082 -15.340  1.00  0.00    -0.272 N
BRANCH   9  10
HETATM   10  C2  UNL     1     -16.804 -12.539 -14.817  1.00  0.00     0.137 C
HETATM   11  C1  UNL     1     -17.967 -12.829 -15.743  1.00  0.00     0.028 C
ENDBRANCH   9  10
BRANCH   9  12
HETATM   12  S2  UNL     1     -14.588 -14.135 -14.429  1.00  0.00     0.273 S
HETATM   13  O2  UNL     1     -15.086 -15.566 -14.531  1.00  0.00    -0.199 OA
HETATM   14  O3  UNL     1     -14.686 -13.752 -12.963  1.00  0.00    -0.199 OA
BRANCH  12  15
HETATM   15  C23 UNL     1     -12.910 -14.100 -14.934  1.00  0.00     0.138 A
HETATM   16  C24 UNL     1     -12.332 -14.777 -15.976  1.00  0.00     0.122 A
HETATM   17  N8  UNL     1     -11.064 -14.606 -16.174  1.00  0.00    -0.348 N
HETATM   18  C25 UNL     1     -10.368 -13.808 -15.397  1.00  0.00     0.192 A
ATOM     19  H8  UNL     1     -10.601 -15.095 -16.940  1.00  0.00     0.166 HD
HETATM   20  S4  UNL     1     -11.575 -13.249 -14.298  1.00  0.00    -0.044 SA
BRANCH  18  21
HETATM   21  S3  UNL     1      -8.645 -13.402 -15.449  1.00  0.00     0.279 S
HETATM   22  O4  UNL     1      -8.571 -12.077 -16.186  1.00  0.00    -0.199 OA
HETATM   23  O5  UNL     1      -7.913 -14.480 -16.147  1.00  0.00    -0.199 OA
BRANCH  21  24
HETATM   24  N9  UNL     1      -7.998 -13.151 -13.898  1.00  0.00    -0.323 N
ATOM     25  H92 UNL     1      -8.576 -12.998 -13.072  1.00  0.00     0.169 HD
ATOM     26  H91 UNL     1      -6.978 -13.174 -13.898  1.00  0.00     0.169 HD
ENDBRANCH  21  24
ENDBRANCH  18  21
ENDBRANCH  12  15
ENDBRANCH   9  12
ENDBRANCH   6   9
ENDBRANCH   1   3
BRANCH   2  27
HETATM   27  C9  UNL     1     -12.621 -10.964 -22.386  1.00  0.00     0.122 C
BRANCH  27  28
HETATM   28  S1  UNL     1     -14.246 -11.056 -23.160  1.00  0.00    -0.086 SA
BRANCH  28  29
HETATM   29  C10 UNL     1     -14.102 -12.091 -24.625  1.00  0.00     0.180 A
HETATM   30  N2  UNL     1     -14.070 -11.684 -25.887  1.00  0.00    -0.261 N
HETATM   31  N3  UNL     1     -13.951 -12.744 -26.666  1.00  0.00    -0.004 NA
ATOM     32  H2  UNL     1     -14.129 -10.716 -26.202  1.00  0.00     0.186 HD
HETATM   33  N4  UNL     1     -13.909 -13.799 -25.868  1.00  0.00    -0.217 N
HETATM   34  N5  UNL     1     -14.000 -13.419 -24.611  1.00  0.00    -0.220 N
ATOM     35  H4  UNL     1     -13.820 -14.766 -26.181  1.00  0.00     0.206 HD
BRANCH  34  36
HETATM   36  C11 UNL     1     -13.983 -14.282 -23.487  1.00  0.00     0.060 A
HETATM   37  C12 UNL     1     -15.189 -14.713 -22.973  1.00  0.00     0.031 A
HETATM   38  C13 UNL     1     -15.246 -15.545 -21.889  1.00  0.00     0.002 A
HETATM   39  C14 UNL     1     -14.101 -16.001 -21.243  1.00  0.00     0.000 A
HETATM   40  C15 UNL     1     -12.897 -15.557 -21.772  1.00  0.00     0.002 A
HETATM   41  C16 UNL     1     -12.836 -14.714 -22.872  1.00  0.00     0.031 A
ENDBRANCH  34  36
ENDBRANCH  28  29
ENDBRANCH  27  28
ENDBRANCH   2  27
BRANCH   2  42
HETATM   42  C17 UNL     1     -11.615 -11.057 -20.059  1.00  0.00     0.064 A
HETATM   43  C18 UNL     1     -10.762 -12.040 -19.538  1.00  0.00     0.038 A
HETATM   44  C19 UNL     1     -10.968 -13.500 -19.590  1.00  0.00     0.071 C
HETATM   45  N6  UNL     1      -9.731 -11.443 -18.946  1.00  0.00    -0.301 N
HETATM   46  N7  UNL     1      -9.873 -10.163 -19.056  1.00  0.00    -0.266 N
ATOM     47  H6  UNL     1      -8.957 -11.918 -18.482  1.00  0.00     0.186 HD
HETATM   48  C20 UNL     1     -11.008  -9.871 -19.728  1.00  0.00     0.272 A
ATOM     49  H7  UNL     1      -9.220  -9.472 -18.687  1.00  0.00     0.190 HD
HETATM   50  O1  UNL     1     -11.320  -8.672 -19.944  1.00  0.00    -0.266 OA
ENDBRANCH   2  42
TORSDOF 12
ENDMDL