MODEL 3
REMARK VINA RESULT: -9.361480505      2.067      3.130
REMARK  12 active torsions:
REMARK  status: ('A' for Active; 'I' for Inactive)
REMARK    1  A    between atoms: C1_2  and  C2_3
REMARK       I    between atoms: C1_2  and  N3_20
REMARK    2  A    between atoms: C2_3  and  C3_4
REMARK    3  A    between atoms: C7_8  and  C8_9
REMARK    4  A    between atoms: C8_9  and  C9_10
REMARK    5  A    between atoms: N3_20  and  C13_22
REMARK    6  A    between atoms: C16_25  and  C17_26
REMARK    7  A    between atoms: C17_26  and  C18_27
REMARK    8  A    between atoms: C18_27  and  C19_28
REMARK    9  A    between atoms: C19_28  and  C20_29
REMARK   10  A    between atoms: C20_29  and  C21_30
REMARK   11  A    between atoms: C23_36  and  C24_37
REMARK   12  A    between atoms: C28_44  and  C29_45
ROOT
HETATM    1  C17 UNL     1      -9.003 -11.553 -18.621  1.00  0.00     0.027 C
ENDROOT
BRANCH   1   2
HETATM    2  C16 UNL     1     -10.216 -11.963 -19.285  1.00  0.00     0.048 A
HETATM    3  C15 UNL     1     -11.403 -11.277 -19.084  1.00  0.00     0.035 A
HETATM    4  C14 UNL     1     -12.514 -11.613 -19.784  1.00  0.00     0.052 A
HETATM    5  C13 UNL     1     -12.463 -12.644 -20.705  1.00  0.00     0.122 A
HETATM    6  N12 UNL     1     -11.316 -13.292 -20.883  1.00  0.00    -0.285 N
HETATM    7  N11 UNL     1     -10.239 -12.965 -20.202  1.00  0.00    -0.299 N
ATOM      8  H12 UNL     1     -11.271 -14.055 -21.558  1.00  0.00     0.188 HD
ATOM      9  H11 UNL     1      -9.380 -13.490 -20.371  1.00  0.00     0.187 HD
BRANCH   5  10
HETATM   10  N3  UNL     1     -13.489 -12.983 -21.384  1.00  0.00    -0.312 N
HETATM   11  C1  UNL     1     -13.632 -12.606 -22.745  1.00  0.00     0.227 C
HETATM   12  O1  UNL     1     -13.263 -13.406 -23.628  1.00  0.00    -0.273 OA
ATOM     13  H3  UNL     1     -14.221 -13.536 -20.940  1.00  0.00     0.170 HD
BRANCH  11  14
HETATM   14  C2  UNL     1     -14.220 -11.269 -23.107  1.00  0.00     0.141 C
BRANCH  14  15
HETATM   15  C3  UNL     1     -13.777 -10.969 -24.488  1.00  0.00    -0.049 A
HETATM   16  C4  UNL     1     -12.419 -10.681 -24.639  1.00  0.00     0.007 A
HETATM   17  C5  UNL     1     -11.922 -10.405 -25.893  1.00  0.00     0.001 A
HETATM   18  C6  UNL     1     -12.760 -10.409 -26.998  1.00  0.00     0.007 A
HETATM   19  C7  UNL     1     -14.116 -10.692 -26.873  1.00  0.00    -0.055 A
HETATM   20  C12 UNL     1     -14.579 -10.966 -25.597  1.00  0.00     0.014 A
BRANCH  19  21
HETATM   21  C8  UNL     1     -14.965 -10.686 -28.087  1.00  0.00     0.073 C
BRANCH  21  22
HETATM   22  C9  UNL     1     -16.314 -11.302 -27.897  1.00  0.00     0.183 C
HETATM   23  N1  UNL     1     -16.342 -12.718 -27.792  1.00  0.00    -0.329 N
HETATM   24  C10 UNL     1     -16.796 -13.204 -29.044  1.00  0.00     0.323 C
ATOM     25  H1  UNL     1     -16.086 -13.274 -26.976  1.00  0.00     0.165 HD
HETATM   26  O2  UNL     1     -16.765 -14.378 -29.448  1.00  0.00    -0.247 OA
HETATM   27  N2  UNL     1     -17.320 -12.123 -29.814  1.00  0.00    -0.278 N
HETATM   28  C11 UNL     1     -17.197 -10.956 -29.050  1.00  0.00     0.248 C
ATOM     29  H2  UNL     1     -17.713 -12.189 -30.753  1.00  0.00     0.173 HD
HETATM   30  O3  UNL     1     -17.691  -9.830 -29.235  1.00  0.00    -0.271 OA
ENDBRANCH  21  22
ENDBRANCH  19  21
ENDBRANCH  14  15
ENDBRANCH  11  14
ENDBRANCH   5  10
ENDBRANCH   1   2
BRANCH   1  31
HETATM   31  C18 UNL     1      -8.795 -11.660 -17.189  1.00  0.00    -0.024 C
BRANCH  31  32
HETATM   32  C19 UNL     1      -8.314 -12.838 -16.475  1.00  0.00     0.035 C
BRANCH  32  33
HETATM   33  C20 UNL     1      -9.330 -13.707 -15.844  1.00  0.00     0.084 C
BRANCH  33  34
HETATM   34  C21 UNL     1     -10.077 -14.560 -16.817  1.00  0.00     0.120 A
HETATM   35  N4  UNL     1      -9.511 -15.488 -17.601  1.00  0.00    -0.286 N
HETATM   36  N5  UNL     1     -10.423 -16.043 -18.360  1.00  0.00    -0.281 N
ATOM     37  H4  UNL     1      -8.519 -15.726 -17.606  1.00  0.00     0.188 HD
HETATM   38  C22 UNL     1     -11.606 -15.486 -18.084  1.00  0.00     0.172 A
ATOM     39  H5  UNL     1     -10.257 -16.779 -19.047  1.00  0.00     0.188 HD
HETATM   40  C23 UNL     1     -12.853 -15.660 -18.553  1.00  0.00     0.099 A
HETATM   41  N10 UNL     1     -11.383 -14.550 -17.106  1.00  0.00    -0.221 N
HETATM   42  N6  UNL     1     -13.892 -14.931 -18.081  1.00  0.00    -0.334 N
HETATM   43  C28 UNL     1     -13.685 -14.016 -17.126  1.00  0.00     0.166 A
ATOM     44  H6  UNL     1     -14.831 -15.080 -18.451  1.00  0.00     0.168 HD
HETATM   45  N9  UNL     1     -12.410 -13.872 -16.680  1.00  0.00    -0.273 N
ATOM     46  H9  UNL     1     -12.244 -13.177 -15.953  1.00  0.00     0.189 HD
BRANCH  40  47
HETATM   47  C24 UNL     1     -13.171 -16.627 -19.615  1.00  0.00     0.035 A
HETATM   48  C25 UNL     1     -13.237 -16.500 -20.967  1.00  0.00     0.022 A
HETATM   49  C26 UNL     1     -13.570 -17.574 -21.696  1.00  0.00     0.008 A
HETATM   50  C27 UNL     1     -13.825 -18.739 -21.021  1.00  0.00     0.050 A
HETATM   51  S1  UNL     1     -13.589 -18.297 -19.394  1.00  0.00    -0.100 SA
ENDBRANCH  40  47
BRANCH  43  52
HETATM   52  C29 UNL     1     -14.747 -13.187 -16.590  1.00  0.00     0.151 A
HETATM   53  N7  UNL     1     -14.476 -11.972 -16.109  1.00  0.00    -0.349 N
HETATM   54  C30 UNL     1     -15.382 -11.126 -15.607  1.00  0.00     0.091 A
ATOM     55  H7  UNL     1     -13.503 -11.665 -16.125  1.00  0.00     0.167 HD
HETATM   56  C31 UNL     1     -16.705 -11.551 -15.588  1.00  0.00     0.034 A
HETATM   57  C32 UNL     1     -17.012 -12.806 -16.080  1.00  0.00     0.091 A
HETATM   58  N8  UNL     1     -16.019 -13.611 -16.577  1.00  0.00    -0.349 N
ATOM     59  H8  UNL     1     -16.250 -14.537 -16.939  1.00  0.00     0.167 HD
ENDBRANCH  43  52
ENDBRANCH  33  34
ENDBRANCH  32  33
ENDBRANCH  31  32
ENDBRANCH   1  31
TORSDOF 12
ENDMDL