MODEL 4
REMARK VINA RESULT: -8.438981739      2.056      4.219
REMARK  12 active torsions:
REMARK  status: ('A' for Active; 'I' for Inactive)
REMARK    1  A    between atoms: C1_2  and  C2_4
REMARK    2  A    between atoms: N2_7  and  C5_8
REMARK    3  A    between atoms: C8_11  and  S1_12
REMARK    4  A    between atoms: S1_12  and  N3_15
REMARK    5  A    between atoms: N3_15  and  C9_17
REMARK    6  A    between atoms: C10_20  and  S2_21
REMARK    7  A    between atoms: S2_21  and  C11_22
REMARK    8  A    between atoms: C11_22  and  C12_23
REMARK    9  A    between atoms: N5_25  and  C14_26
REMARK   10  A    between atoms: C14_26  and  C15_27
REMARK       I    between atoms: C15_27  and  N6_29
REMARK   11  A    between atoms: N6_29  and  C16_31
REMARK   12  A    between atoms: C21_43  and  C22_44
ROOT
HETATM    1  C9  UNL     1     -13.193 -13.105 -19.454  1.00  0.00     0.129 A
HETATM    2  N4  UNL     1     -14.183 -14.009 -19.246  1.00  0.00    -0.322 N
ATOM      3  H4  UNL     1     -14.069 -14.951 -19.618  1.00  0.00     0.169 HD
HETATM    4  C10 UNL     1     -15.316 -13.712 -18.566  1.00  0.00     0.146 A
HETATM    5  N9  UNL     1     -15.423 -12.457 -18.096  1.00  0.00    -0.346 N
ATOM      6  H9  UNL     1     -16.269 -12.213 -17.580  1.00  0.00     0.167 HD
HETATM    7  C20 UNL     1     -14.499 -11.510 -18.257  1.00  0.00     0.106 A
HETATM    8  C21 UNL     1     -13.333 -11.833 -18.963  1.00  0.00     0.034 A
ENDROOT
BRANCH   1   9
HETATM    9  N3  UNL     1     -12.119 -13.407 -20.094  1.00  0.00    -0.265 N
ATOM     10  H3  UNL     1     -11.223 -13.174 -19.666  1.00  0.00     0.180 HD
BRANCH   9  11
HETATM   11  S1  UNL     1     -12.104 -14.178 -21.625  1.00  0.00     0.264 S
HETATM   12  O2  UNL     1     -12.641 -15.592 -21.533  1.00  0.00    -0.200 OA
HETATM   13  O3  UNL     1     -10.673 -14.300 -22.067  1.00  0.00    -0.200 OA
BRANCH  11  14
HETATM   14  C8  UNL     1     -12.956 -13.280 -22.848  1.00  0.00     0.080 A
HETATM   15  C7  UNL     1     -13.656 -13.897 -23.864  1.00  0.00     0.027 A
HETATM   16  C6  UNL     1     -14.325 -13.150 -24.823  1.00  0.00     0.033 A
HETATM   17  C5  UNL     1     -14.296 -11.777 -24.773  1.00  0.00     0.056 A
HETATM   18  C29 UNL     1     -13.588 -11.187 -23.747  1.00  0.00     0.033 A
HETATM   19  C28 UNL     1     -12.912 -11.898 -22.775  1.00  0.00     0.027 A
BRANCH  17  20
HETATM   20  N2  UNL     1     -14.990 -11.020 -25.770  1.00  0.00    -0.267 N
HETATM   21  C4  UNL     1     -15.118  -9.686 -25.875  1.00  0.00     0.119 A
HETATM   22  C3  UNL     1     -15.869  -9.368 -26.987  1.00  0.00     0.055 A
HETATM   23  C2  UNL     1     -16.198 -10.578 -27.561  1.00  0.00     0.115 A
HETATM   24  N10 UNL     1     -15.652 -11.528 -26.802  1.00  0.00    -0.289 N
ATOM     25  H10 UNL     1     -15.734 -12.527 -26.991  1.00  0.00     0.188 HD
BRANCH  23  26
HETATM   26  C1  UNL     1     -16.996 -10.709 -28.775  1.00  0.00     0.282 C
HETATM   27  N1  UNL     1     -17.064 -11.939 -29.486  1.00  0.00    -0.056 NA
HETATM   28  O1  UNL     1     -17.652  -9.751 -29.239  1.00  0.00    -0.269 OA
ENDBRANCH  23  26
ENDBRANCH  17  20
ENDBRANCH  11  14
ENDBRANCH   9  11
ENDBRANCH   1   9
BRANCH   8  29
HETATM   29  C22 UNL     1     -12.293 -10.852 -19.189  1.00  0.00    -0.021 A
HETATM   30  C23 UNL     1     -12.617  -9.624 -19.704  1.00  0.00     0.012 A
HETATM   31  C24 UNL     1     -11.659  -8.654 -19.951  1.00  0.00     0.001 A
HETATM   32  C25 UNL     1     -10.352  -8.960 -19.660  1.00  0.00     0.000 A
HETATM   33  C26 UNL     1      -9.985 -10.192 -19.137  1.00  0.00     0.001 A
HETATM   34  C27 UNL     1     -10.982 -11.127 -18.910  1.00  0.00     0.012 A
ENDBRANCH   8  29
BRANCH   4  35
HETATM   35  S2  UNL     1     -16.596 -14.953 -18.326  1.00  0.00    -0.088 SA
BRANCH  35  36
HETATM   36  C11 UNL     1     -15.960 -16.360 -17.400  1.00  0.00     0.142 C
BRANCH  36  37
HETATM   37  C12 UNL     1     -14.623 -16.755 -17.898  1.00  0.00     0.054 A
HETATM   38  C13 UNL     1     -13.444 -16.767 -17.192  1.00  0.00     0.139 A
HETATM   39  N5  UNL     1     -12.479 -17.190 -18.021  1.00  0.00    -0.278 N
HETATM   40  N7  UNL     1     -13.024 -17.439 -19.218  1.00  0.00    -0.240 N
HETATM   41  N8  UNL     1     -14.303 -17.181 -19.148  1.00  0.00    -0.288 N
ATOM     42  H7  UNL     1     -12.526 -17.773 -20.043  1.00  0.00     0.208 HD
ATOM     43  H8  UNL     1     -14.963 -17.283 -19.918  1.00  0.00     0.188 HD
BRANCH  39  44
HETATM   44  C14 UNL     1     -11.080 -17.351 -17.689  1.00  0.00     0.252 C
BRANCH  44  45
HETATM   45  C15 UNL     1     -10.360 -16.026 -17.694  1.00  0.00     0.243 C
HETATM   46  O4  UNL     1     -10.357 -15.357 -18.769  1.00  0.00    -0.271 OA
HETATM   47  N6  UNL     1      -9.715 -15.567 -16.521  1.00  0.00    -0.306 N
ATOM     48  H6  UNL     1      -9.759 -16.159 -15.691  1.00  0.00     0.171 HD
BRANCH  47  49
HETATM   49  C16 UNL     1      -9.009 -14.334 -16.419  1.00  0.00     0.149 A
HETATM   50  C17 UNL     1      -9.465 -13.045 -16.502  1.00  0.00     0.058 A
HETATM   51  C18 UNL     1      -8.380 -12.191 -16.338  1.00  0.00     0.029 A
HETATM   52  C19 UNL     1      -7.313 -13.017 -16.161  1.00  0.00     0.144 A
HETATM   53  O5  UNL     1      -7.698 -14.255 -16.212  1.00  0.00    -0.306 OA
ENDBRANCH  47  49
ENDBRANCH  44  45
ENDBRANCH  39  44
ENDBRANCH  36  37
ENDBRANCH  35  36
ENDBRANCH   4  35
TORSDOF 12
ENDMDL