MODEL 4
REMARK VINA RESULT: -7.915000019      4.046      8.262
REMARK  13 active torsions:
REMARK  status: ('A' for Active; 'I' for Inactive)
REMARK       I    between atoms: C2_2  and  N1_4
REMARK    1  A    between atoms: N1_4  and  C3_5
REMARK    2  A    between atoms: C3_5  and  C4_6
REMARK    3  A    between atoms: C3_5  and  C13_30
REMARK       I    between atoms: C4_6  and  N2_8
REMARK    4  A    between atoms: C5_10  and  C6_11
REMARK    5  A    between atoms: C5_10  and  C10_18
REMARK    6  A    between atoms: C6_11  and  C7_12
REMARK    7  A    between atoms: C11_20  and  N4_21
REMARK    8  A    between atoms: C12_26  and  N6_27
REMARK    9  A    between atoms: C16_33  and  C17_34
REMARK   10  A    between atoms: C17_34  and  C18_35
REMARK   11  A    between atoms: C17_34  and  S3_38
REMARK   12  A    between atoms: S3_38  and  C19_41
REMARK   13  A    between atoms: C19_41  and  C20_42
ROOT
HETATM    1  C3  UNL     1     -12.595 -17.077 -19.316  1.00  0.00     0.195 C
ENDROOT
BRANCH   1   2
HETATM    2  N1  UNL     1     -12.884 -18.193 -19.047  1.00  0.00    -0.364 NA
HETATM    3  C2  UNL     1     -13.221 -19.445 -18.769  1.00  0.00     0.288 C
HETATM    4  C1  UNL     1     -12.264 -20.479 -18.213  1.00  0.00     0.135 C
HETATM    5  O1  UNL     1     -14.424 -19.859 -18.968  1.00  0.00    -0.258 OA
ENDBRANCH   1   2
BRANCH   1   6
HETATM    6  C4  UNL     1     -13.030 -16.471 -20.604  1.00  0.00     0.288 C
HETATM    7  O2  UNL     1     -12.123 -15.928 -21.315  1.00  0.00    -0.264 OA
HETATM    8  N2  UNL     1     -14.311 -16.503 -20.990  1.00  0.00    -0.323 N
HETATM    9  C5  UNL     1     -15.344 -15.733 -20.992  1.00  0.00     0.039 C
ATOM     10  H2  UNL     1     -14.537 -17.406 -21.406  1.00  0.00     0.169 HD
BRANCH   9  11
HETATM   11  C6  UNL     1     -16.564 -16.349 -21.589  1.00  0.00     0.116 C
BRANCH  11  12
HETATM   12  C7  UNL     1     -16.277 -16.608 -23.081  1.00  0.00     0.021 A
HETATM   13  C8  UNL     1     -16.471 -17.840 -23.638  1.00  0.00     0.076 A
HETATM   14  S1  UNL     1     -16.015 -17.544 -25.273  1.00  0.00    -0.095 SA
HETATM   15  C9  UNL     1     -15.614 -15.890 -25.127  1.00  0.00     0.138 A
HETATM   16  N3  UNL     1     -15.850 -15.656 -23.846  1.00  0.00    -0.363 N
ATOM     17  H3  UNL     1     -15.694 -14.724 -23.461  1.00  0.00     0.165 HD
ENDBRANCH  11  12
ENDBRANCH   9  11
BRANCH   9  18
HETATM   18  C10 UNL     1     -15.169 -14.414 -20.410  1.00  0.00     0.081 A
HETATM   19  S2  UNL     1     -15.540 -14.095 -18.707  1.00  0.00    -0.049 SA
HETATM   20  C11 UNL     1     -15.190 -12.463 -18.661  1.00  0.00     0.144 A
HETATM   21  N5  UNL     1     -14.814 -12.199 -19.887  1.00  0.00    -0.317 N
HETATM   22  C12 UNL     1     -14.789 -13.173 -20.814  1.00  0.00     0.195 A
ATOM     23  H5  UNL     1     -14.538 -11.250 -20.139  1.00  0.00     0.169 HD
BRANCH  20  24
HETATM   24  N4  UNL     1     -15.259 -11.605 -17.656  1.00  0.00    -0.380 N
ATOM     25  H42 UNL     1     -14.546 -10.927 -17.388  1.00  0.00     0.158 HD
ATOM     26  H41 UNL     1     -16.000 -11.450 -16.973  1.00  0.00     0.158 HD
ENDBRANCH  20  24
BRANCH  22  27
HETATM   27  N6  UNL     1     -14.346 -12.836 -22.143  1.00  0.00    -0.096 N
HETATM   28  O3  UNL     1     -15.006 -12.720 -23.128  1.00  0.00    -0.530 OA
HETATM   29  O4  UNL     1     -12.974 -12.615 -22.365  1.00  0.00    -0.530 OA
ENDBRANCH  22  27
ENDBRANCH   9  18
ENDBRANCH   1   6
BRANCH   1  30
HETATM   30  C13 UNL     1     -11.770 -16.212 -18.415  1.00  0.00     0.051 A
HETATM   31  C14 UNL     1     -10.564 -16.510 -17.852  1.00  0.00     0.023 A
HETATM   32  C15 UNL     1     -10.013 -15.581 -17.058  1.00  0.00     0.018 A
HETATM   33  C16 UNL     1     -10.711 -14.411 -16.881  1.00  0.00     0.012 A
HETATM   34  S4  UNL     1     -12.106 -14.657 -17.828  1.00  0.00    -0.089 SA
BRANCH  33  35
HETATM   35  C17 UNL     1     -10.277 -13.230 -16.049  1.00  0.00     0.249 C
BRANCH  35  36
HETATM   36  C18 UNL     1     -10.126 -13.686 -14.673  1.00  0.00     0.197 C
HETATM   37  O5  UNL     1     -11.057 -14.217 -14.022  1.00  0.00    -0.647 OA
HETATM   38  O6  UNL     1      -8.915 -13.549 -14.006  1.00  0.00    -0.647 OA
ENDBRANCH  35  36
BRANCH  35  39
HETATM   39  S3  UNL     1      -8.782 -12.602 -16.782  1.00  0.00     0.167 S
HETATM   40  O7  UNL     1      -8.448 -11.235 -16.215  1.00  0.00    -0.226 OA
HETATM   41  O8  UNL     1      -7.618 -13.492 -16.433  1.00  0.00    -0.226 OA
BRANCH  39  42
HETATM   42  C19 UNL     1      -9.002 -12.424 -18.505  1.00  0.00     0.180 C
BRANCH  42  43
HETATM   43  C20 UNL     1      -9.769 -11.255 -18.938  1.00  0.00    -0.044 A
HETATM   44  C21 UNL     1     -11.058 -11.477 -19.444  1.00  0.00     0.008 A
HETATM   45  C22 UNL     1     -11.852 -10.443 -19.886  1.00  0.00     0.001 A
HETATM   46  C23 UNL     1     -11.419  -9.150 -19.853  1.00  0.00     0.000 A
HETATM   47  C24 UNL     1     -10.140  -8.909 -19.353  1.00  0.00     0.001 A
HETATM   48  C25 UNL     1      -9.338  -9.946 -18.907  1.00  0.00     0.008 A
ENDBRANCH  42  43
ENDBRANCH  39  42
ENDBRANCH  35  39
ENDBRANCH  33  35
ENDBRANCH   1  30
TORSDOF 13
ENDMDL