MODEL 1
REMARK VINA RESULT: -9.041733445      0.000      0.000
REMARK  5 active torsions:
REMARK  status: ('A' for Active; 'I' for Inactive)
REMARK    1  A    between atoms: C4_4  and  C5_5
REMARK    2  A    between atoms: C5_5  and  C6_6
REMARK    3  A    between atoms: C9_9  and  N1_10
REMARK    4  A    between atoms: N1_10  and  C10_12
REMARK    5  A    between atoms: C15_22  and  C16_23
ROOT
HETATM    1  C10 UNL     1     -24.723 -32.935  26.554  1.00  0.00     0.677 C
HETATM    2  N2  UNL     1     -25.563 -33.427  27.421  1.00  0.00    -0.164 N
ATOM      3  H2  UNL     1     -26.552 -33.252  27.248  1.00  0.00     0.187 HD
HETATM    4  C11 UNL     1     -25.238 -34.195  28.598  1.00  0.00     0.203 C
HETATM    5  N3  UNL     1     -26.202 -35.097  29.095  1.00  0.00    -0.063 NA
HETATM    6  N4  UNL     1     -24.107 -34.094  29.221  1.00  0.00    -0.353 N
ATOM      7  H4  UNL     1     -24.002 -34.692  30.040  1.00  0.00     0.163 HD
HETATM    8  C12 UNL     1     -22.957 -33.243  28.914  1.00  0.00     0.047 C
HETATM    9  C13 UNL     1     -21.992 -33.393  30.059  1.00  0.00     0.040 C
HETATM   10  C14 UNL     1     -23.410 -31.777  28.899  1.00  0.00     0.040 C
HETATM   11  C15 UNL     1     -22.372 -33.526  27.576  1.00  0.00     0.134 C
HETATM   12  N5  UNL     1     -23.290 -33.038  26.566  1.00  0.00    -0.218 N
ATOM     13  H5  UNL     1     -22.839 -32.709  25.713  1.00  0.00     0.178 HD
ENDROOT
BRANCH   1  14
HETATM   14  N1  UNL     1     -25.275 -32.210  25.468  1.00  0.00    -0.215 N
ATOM     15  H1  UNL     1     -24.701 -32.054  24.639  1.00  0.00     0.178 HD
BRANCH  14  16
HETATM   16  C9  UNL     1     -26.602 -31.693  25.493  1.00  0.00     0.169 C
HETATM   17  C8  UNL     1     -27.615 -32.822  25.390  1.00  0.00     0.034 C
HETATM   18  C7  UNL     1     -28.792 -32.409  24.539  1.00  0.00     0.007 C
HETATM   19  C6  UNL     1     -28.361 -32.256  23.051  1.00  0.00    -0.004 C
HETATM   20  C21 UNL     1     -27.161 -31.323  23.012  1.00  0.00     0.085 C
HETATM   21  C20 UNL     1     -26.880 -30.741  24.378  1.00  0.00     0.150 C
HETATM   22  O1  UNL     1     -26.891 -29.539  24.511  1.00  0.00    -0.296 OA
BRANCH  19  23
HETATM   23  C5  UNL     1     -29.533 -31.687  22.352  1.00  0.00     0.032 C
BRANCH  23  24
HETATM   24  C4  UNL     1     -30.866 -32.041  22.763  1.00  0.00    -0.024 C
HETATM   25  C2  UNL     1     -31.577 -33.112  22.814  1.00  0.00    -0.091 C
HETATM   26  C1  UNL     1     -33.012 -32.918  23.360  1.00  0.00     0.042 C
HETATM   27  C3  UNL     1     -31.296 -34.514  22.477  1.00  0.00     0.042 C
ENDBRANCH  23  24
ENDBRANCH  19  23
ENDBRANCH  14  16
ENDBRANCH   1  14
BRANCH  11  28
HETATM   28  C16 UNL     1     -22.037 -34.956  27.299  1.00  0.00    -0.021 A
HETATM   29  C17 UNL     1     -21.225 -35.729  28.339  1.00  0.00     0.017 C
HETATM   30  C18 UNL     1     -22.768 -35.784  26.331  1.00  0.00     0.012 A
HETATM   31  C19 UNL     1     -21.489 -35.163  25.871  1.00  0.00     0.012 A
ENDBRANCH  11  28
TORSDOF 5
ENDMDL