MODEL 2
REMARK VINA RESULT: -8.297219665      2.476      6.163
REMARK  6 active torsions:
REMARK  status: ('A' for Active; 'I' for Inactive)
REMARK    1  A    between atoms: C2_2  and  C3_3
REMARK    2  A    between atoms: C3_3  and  C4_4
REMARK    3  A    between atoms: C4_4  and  C5_5
REMARK    4  A    between atoms: C6_6  and  C7_7
REMARK    5  A    between atoms: C7_7  and  O1_8
REMARK    6  A    between atoms: N1_23  and  O2_25
ROOT
HETATM    1  C1  UNL     1     -28.451 -32.970  27.166  1.00  0.00     0.025 C
HETATM    2  C2  UNL     1     -27.276 -33.686  26.534  1.00  0.00     0.004 C
HETATM    3  C8  UNL     1     -26.039 -32.986  27.001  1.00  0.00     0.024 C
HETATM    4  C9  UNL     1     -24.763 -33.752  26.726  1.00  0.00     0.007 C
HETATM    5  C10 UNL     1     -23.578 -32.850  26.887  1.00  0.00    -0.043 C
HETATM    6  C11 UNL     1     -22.928 -32.660  25.508  1.00  0.00     0.015 C
HETATM    7  C12 UNL     1     -23.996 -31.457  27.321  1.00  0.00     0.015 C
HETATM    8  C13 UNL     1     -22.497 -33.311  27.791  1.00  0.00     0.009 C
HETATM    9  C14 UNL     1     -22.908 -34.099  28.973  1.00  0.00     0.002 C
HETATM   10  C15 UNL     1     -24.322 -34.550  28.989  1.00  0.00     0.014 C
HETATM   11  C16 UNL     1     -24.765 -34.945  27.600  1.00  0.00    -0.012 C
HETATM   12  C17 UNL     1     -23.832 -36.039  27.084  1.00  0.00     0.021 C
HETATM   13  C18 UNL     1     -26.108 -35.561  27.656  1.00  0.00    -0.040 A
HETATM   14  C19 UNL     1     -27.211 -35.043  27.204  1.00  0.00    -0.006 A
HETATM   15  C20 UNL     1     -28.454 -35.794  27.324  1.00  0.00     0.112 A
HETATM   16  N1  UNL     1     -29.588 -35.395  26.896  1.00  0.00    -0.265 N
ATOM     17  H1  UNL     1     -29.653 -34.489  26.432  1.00  0.00     0.194 HD
HETATM   18  C21 UNL     1     -28.454 -37.130  27.958  1.00  0.00     0.201 A
HETATM   19  O3  UNL     1     -29.519 -37.796  28.073  1.00  0.00    -0.286 OA
HETATM   20  C22 UNL     1     -27.192 -37.636  28.437  1.00  0.00     0.058 A
HETATM   21  C23 UNL     1     -26.104 -36.909  28.296  1.00  0.00     0.012 A
ENDROOT
BRANCH   2  22
HETATM   22  C3  UNL     1     -27.355 -33.824  25.085  1.00  0.00    -0.012 C
BRANCH  22  23
HETATM   23  C4  UNL     1     -28.069 -32.934  24.188  1.00  0.00    -0.003 C
BRANCH  23  24
HETATM   24  C5  UNL     1     -27.560 -31.633  23.807  1.00  0.00    -0.002 C
HETATM   25  C6  UNL     1     -27.706 -31.094  22.609  1.00  0.00    -0.001 C
BRANCH  25  26
HETATM   26  C7  UNL     1     -28.387 -31.656  21.432  1.00  0.00     0.191 C
BRANCH  26  27
HETATM   27  O1  UNL     1     -29.715 -31.158  21.331  1.00  0.00    -0.397 OA
ATOM     28  H1  UNL     1     -29.897 -30.539  22.028  1.00  0.00     0.209 HD
ENDBRANCH  26  27
ENDBRANCH  25  26
ENDBRANCH  23  24
ENDBRANCH  22  23
ENDBRANCH   2  22
BRANCH  16  29
HETATM   29  O2  UNL     1     -30.709 -36.147  27.041  1.00  0.00    -0.289 OA
ATOM     30  H2  UNL     1     -31.549 -35.754  27.249  1.00  0.00     0.244 HD
ENDBRANCH  16  29
TORSDOF 6
ENDMDL