MODEL 4
REMARK VINA RESULT: -8.133296870      4.452      7.454
REMARK  5 active torsions:
REMARK  status: ('A' for Active; 'I' for Inactive)
REMARK    1  A    between atoms: C5_6  and  C6_7
REMARK    2  A    between atoms: N1_8  and  O1_10
REMARK    3  A    between atoms: C13_18  and  C14_19
REMARK    4  A    between atoms: C14_19  and  N2_20
REMARK    5  A    between atoms: N2_20  and  S2_22
ROOT
HETATM    1  C1  UNL     1     -29.012 -32.663  24.853  1.00  0.00     0.057 C
HETATM    2  C2  UNL     1     -27.566 -32.562  25.284  1.00  0.00    -0.009 A
HETATM    3  S1  UNL     1     -26.717 -33.609  26.321  1.00  0.00    -0.097 SA
HETATM    4  C3  UNL     1     -25.196 -32.843  26.306  1.00  0.00    -0.001 A
HETATM    5  C4  UNL     1     -25.387 -31.779  25.485  1.00  0.00    -0.032 A
HETATM    6  C5  UNL     1     -26.628 -31.618  24.940  1.00  0.00     0.001 A
HETATM    7  C7  UNL     1     -24.181 -30.863  25.249  1.00  0.00     0.040 C
HETATM    8  C8  UNL     1     -23.022 -31.861  25.120  1.00  0.00     0.006 C
HETATM    9  C9  UNL     1     -22.768 -32.367  26.497  1.00  0.00     0.015 C
HETATM   10  C10 UNL     1     -23.905 -33.169  26.988  1.00  0.00    -0.006 C
HETATM   11  C11 UNL     1     -23.623 -34.642  26.775  1.00  0.00     0.015 C
HETATM   12  C12 UNL     1     -24.235 -35.524  27.816  1.00  0.00     0.007 C
HETATM   13  C13 UNL     1     -23.873 -35.148  29.215  1.00  0.00     0.004 C
HETATM   14  C15 UNL     1     -23.291 -33.768  29.331  1.00  0.00     0.007 C
HETATM   15  C16 UNL     1     -24.122 -32.852  28.462  1.00  0.00     0.015 C
ENDROOT
BRANCH   6  16
HETATM   16  C6  UNL     1     -27.015 -30.516  24.023  1.00  0.00     0.126 C
HETATM   17  N1  UNL     1     -26.964 -30.634  22.761  1.00  0.00    -0.280 N
ATOM     18  H1  UNL     1     -26.643 -31.526  22.383  1.00  0.00     0.193 HD
BRANCH  17  19
HETATM   19  O1  UNL     1     -27.302 -29.667  21.882  1.00  0.00    -0.290 OA
ATOM     20  H1  UNL     1     -27.590 -28.794  22.120  1.00  0.00     0.244 HD
ENDBRANCH  17  19
ENDBRANCH   6  16
BRANCH  13  21
HETATM   21  C14 UNL     1     -22.939 -36.145  29.864  1.00  0.00     0.139 C
BRANCH  21  22
HETATM   22  N2  UNL     1     -21.762 -36.327  29.026  1.00  0.00    -0.301 N
ATOM     23  H2  UNL     1     -21.188 -35.574  28.648  1.00  0.00     0.174 HD
BRANCH  22  24
HETATM   24  S2  UNL     1     -21.485 -38.019  28.768  1.00  0.00     0.204 S
HETATM   25  O2  UNL     1     -21.519 -38.279  27.292  1.00  0.00    -0.578 OA
HETATM   26  O3  UNL     1     -22.644 -38.757  29.397  1.00  0.00    -0.578 OA
HETATM   27  O4  UNL     1     -20.013 -38.498  29.437  1.00  0.00    -0.578 OA
ENDBRANCH  22  24
ENDBRANCH  21  22
ENDBRANCH  13  21
TORSDOF 5
ENDMDL