MODEL 2
REMARK VINA RESULT: -7.319318066      0.812      1.075
REMARK  5 active torsions:
REMARK  status: ('A' for Active; 'I' for Inactive)
REMARK    1  A    between atoms: C2_2  and  C3_3
REMARK    2  A    between atoms: C3_3  and  C4_4
REMARK    3  A    between atoms: C9_9  and  N1_10
REMARK    4  A    between atoms: C11_14  and  N2_15
REMARK    5  A    between atoms: C15_21  and  O5_22
ROOT
HETATM    1  C4  UNL     1     -21.202 -34.943  28.666  1.00  0.00     0.086 C
HETATM    2  C5  UNL     1     -21.386 -33.665  29.373  1.00  0.00     0.026 C
HETATM    3  C6  UNL     1     -22.484 -32.750  28.931  1.00  0.00     0.007 C
HETATM    4  C7  UNL     1     -23.817 -33.353  28.728  1.00  0.00     0.001 C
HETATM    5  C8  UNL     1     -23.865 -34.827  29.122  1.00  0.00     0.066 C
HETATM    6  C9  UNL     1     -23.359 -35.601  27.928  1.00  0.00     0.172 C
HETATM    7  C10 UNL     1     -24.426 -35.540  26.881  1.00  0.00     0.092 C
HETATM    8  C11 UNL     1     -25.202 -34.260  26.825  1.00  0.00     0.169 C
HETATM    9  C12 UNL     1     -24.427 -33.085  27.371  1.00  0.00     0.054 C
HETATM   10  C13 UNL     1     -23.394 -32.802  26.338  1.00  0.00    -0.019 A
HETATM   11  C14 UNL     1     -23.442 -31.638  25.612  1.00  0.00     0.065 A
HETATM   12  C15 UNL     1     -22.382 -31.632  24.727  1.00  0.00     0.140 A
HETATM   13  N3  UNL     1     -21.706 -32.767  24.911  1.00  0.00    -0.336 N
ATOM     14  H3  UNL     1     -20.870 -33.048  24.401  1.00  0.00     0.168 HD
HETATM   15  C16 UNL     1     -22.298 -33.470  25.866  1.00  0.00     0.056 A
HETATM   16  C17 UNL     1     -21.737 -34.810  26.293  1.00  0.00     0.118 C
HETATM   17  N4  UNL     1     -22.093 -35.120  27.608  1.00  0.00    -0.352 N
ENDROOT
BRANCH   1  18
HETATM   18  C3  UNL     1     -19.765 -35.304  28.348  1.00  0.00     0.025 C
BRANCH  18  19
HETATM   19  C2  UNL     1     -19.464 -36.771  28.484  1.00  0.00    -0.002 C
HETATM   20  C1  UNL     1     -19.032 -37.408  27.189  1.00  0.00     0.005 C
ENDBRANCH  18  19
ENDBRANCH   1  18
BRANCH   6  21
HETATM   21  N1  UNL     1     -23.256 -37.000  28.327  1.00  0.00    -0.124 N
HETATM   22  O1  UNL     1     -23.738 -37.420  29.393  1.00  0.00    -0.534 OA
HETATM   23  O2  UNL     1     -22.603 -37.928  27.552  1.00  0.00    -0.534 OA
ENDBRANCH   6  21
BRANCH   8  24
HETATM   24  N2  UNL     1     -26.561 -34.348  27.274  1.00  0.00    -0.150 N
HETATM   25  O3  UNL     1     -27.100 -35.479  27.291  1.00  0.00    -0.536 OA
HETATM   26  O4  UNL     1     -27.324 -33.307  27.675  1.00  0.00    -0.536 OA
ENDBRANCH   8  24
BRANCH  12  27
HETATM   27  O5  UNL     1     -22.076 -30.606  23.797  1.00  0.00    -0.346 OA
ATOM     28  H5  UNL     1     -21.489 -29.874  23.946  1.00  0.00     0.219 HD
ENDBRANCH  12  27
TORSDOF 5
ENDMDL