MODEL 2
REMARK VINA RESULT: -8.924204860      1.476      2.315
REMARK  7 active torsions:
REMARK  status: ('A' for Active; 'I' for Inactive)
REMARK    1  A    between atoms: C9_10  and  O2_11
REMARK    2  A    between atoms: C14_17  and  C15_18
REMARK    3  A    between atoms: C15_18  and  C16_19
REMARK    4  A    between atoms: C16_19  and  C17_20
REMARK    5  A    between atoms: C18_21  and  O3_22
REMARK    6  A    between atoms: C19_25  and  O5_26
REMARK    7  A    between atoms: C20_28  and  C21_29
ROOT
HETATM    1  C1  UNL     1     -25.660 -30.428  25.229  1.00  0.00     0.028 C
HETATM    2  C2  UNL     1     -25.043 -31.612  25.461  1.00  0.00     0.012 C
HETATM    3  C3  UNL     1     -23.595 -31.668  25.208  1.00  0.00     0.182 C
HETATM    4  O1  UNL     1     -23.056 -30.959  24.323  1.00  0.00    -0.288 OA
HETATM    5  C4  UNL     1     -22.867 -32.609  26.073  1.00  0.00     0.060 C
HETATM    6  C5  UNL     1     -23.446 -33.356  26.981  1.00  0.00    -0.053 C
HETATM    7  C6  UNL     1     -22.588 -34.251  27.829  1.00  0.00     0.003 C
HETATM    8  C7  UNL     1     -21.196 -33.545  27.981  1.00  0.00     0.022 C
HETATM    9  C8  UNL     1     -22.266 -35.579  27.327  1.00  0.00     0.022 C
HETATM   10  C9  UNL     1     -23.151 -34.170  29.258  1.00  0.00     0.130 C
HETATM   11  C10 UNL     1     -23.904 -32.890  29.370  1.00  0.00     0.034 C
HETATM   12  C11 UNL     1     -25.179 -32.926  28.547  1.00  0.00     0.021 C
HETATM   13  C12 UNL     1     -24.934 -33.457  27.182  1.00  0.00     0.009 C
HETATM   14  C13 UNL     1     -25.463 -34.877  27.121  1.00  0.00     0.025 C
HETATM   15  C14 UNL     1     -25.656 -32.785  26.030  1.00  0.00    -0.032 C
ENDROOT
BRANCH  15  16
HETATM   16  C15 UNL     1     -27.111 -32.980  25.998  1.00  0.00     0.010 C
BRANCH  16  17
HETATM   17  C16 UNL     1     -27.812 -33.782  25.002  1.00  0.00     0.017 C
BRANCH  17  18
HETATM   18  C17 UNL     1     -29.143 -33.567  24.509  1.00  0.00     0.033 A
HETATM   19  C18 UNL     1     -30.343 -33.936  25.098  1.00  0.00     0.196 A
HETATM   20  O4  UNL     1     -31.295 -33.554  24.302  1.00  0.00    -0.264 OA
HETATM   21  C19 UNL     1     -30.856 -32.967  23.241  1.00  0.00     0.193 A
HETATM   22  C20 UNL     1     -29.491 -32.945  23.317  1.00  0.00     0.015 A
BRANCH  19  23
HETATM   23  O3  UNL     1     -30.501 -34.603  26.336  1.00  0.00    -0.340 OA
ATOM     24  H3  UNL     1     -30.925 -35.441  26.475  1.00  0.00     0.220 HD
ENDBRANCH  19  23
BRANCH  21  25
HETATM   25  O5  UNL     1     -31.668 -32.457  22.218  1.00  0.00    -0.340 OA
ATOM     26  H5  UNL     1     -32.567 -32.721  22.057  1.00  0.00     0.220 HD
ENDBRANCH  21  25
BRANCH  22  27
HETATM   27  C21 UNL     1     -28.620 -32.335  22.274  1.00  0.00     0.040 C
HETATM   28  C22 UNL     1     -28.276 -30.915  22.659  1.00  0.00     0.010 C
ENDBRANCH  22  27
ENDBRANCH  17  18
ENDBRANCH  16  17
ENDBRANCH  15  16
BRANCH  10  29
HETATM   29  O2  UNL     1     -23.784 -35.297  29.688  1.00  0.00    -0.395 OA
ATOM     30  H2  UNL     1     -24.511 -35.146  30.280  1.00  0.00     0.210 HD
ENDBRANCH  10  29
TORSDOF 7
ENDMDL