MODEL 3
REMARK VINA RESULT: -7.005695278      2.591      5.108
REMARK  7 active torsions:
REMARK  status: ('A' for Active; 'I' for Inactive)
REMARK    1  A    between atoms: C2_2  and  C19_27
REMARK    2  A    between atoms: C3_3  and  C4_4
REMARK    3  A    between atoms: C4_4  and  C5_5
REMARK    4  A    between atoms: C7_7  and  C9_9
REMARK    5  A    between atoms: C9_9  and  O1_10
REMARK    6  A    between atoms: C13_17  and  O4_18
REMARK    7  A    between atoms: C16_22  and  C18_24
ROOT
HETATM    1  C5  UNL     1     -20.944 -35.199  28.383  1.00  0.00     0.052 C
HETATM    2  C6  UNL     1     -21.327 -35.869  29.674  1.00  0.00     0.003 C
HETATM    3  C7  UNL     1     -20.493 -36.310  30.554  1.00  0.00    -0.050 C
HETATM    4  C8  UNL     1     -21.021 -36.959  31.794  1.00  0.00     0.046 C
HETATM    5  C10 UNL     1     -22.788 -35.970  29.883  1.00  0.00     0.192 C
HETATM    6  O2  UNL     1     -23.317 -36.019  31.008  1.00  0.00    -0.287 OA
HETATM    7  C11 UNL     1     -23.647 -36.011  28.729  1.00  0.00     0.056 A
HETATM    8  C12 UNL     1     -23.104 -35.957  27.464  1.00  0.00     0.090 A
HETATM    9  O3  UNL     1     -24.059 -36.020  26.582  1.00  0.00    -0.290 OA
HETATM   10  C13 UNL     1     -25.203 -36.113  27.195  1.00  0.00     0.190 A
HETATM   11  C14 UNL     1     -25.033 -36.114  28.555  1.00  0.00     0.013 A
HETATM   12  C15 UNL     1     -25.982 -36.197  29.669  1.00  0.00     0.054 C
HETATM   13  C16 UNL     1     -21.642 -35.844  27.238  1.00  0.00     0.103 C
HETATM   14  C17 UNL     1     -21.396 -35.284  25.880  1.00  0.00     0.035 C
ENDROOT
BRANCH   1  15
HETATM   15  C4  UNL     1     -21.268 -33.752  28.610  1.00  0.00     0.038 C
BRANCH  15  16
HETATM   16  C3  UNL     1     -21.978 -33.036  27.538  1.00  0.00    -0.023 C
HETATM   17  C2  UNL     1     -23.154 -32.422  27.750  1.00  0.00    -0.084 C
HETATM   18  C1  UNL     1     -23.739 -32.477  29.101  1.00  0.00     0.043 C
BRANCH  17  19
HETATM   19  C19 UNL     1     -23.848 -31.713  26.671  1.00  0.00     0.005 C
HETATM   20  C20 UNL     1     -23.012 -31.589  25.414  1.00  0.00     0.014 C
HETATM   21  C21 UNL     1     -25.133 -32.446  26.274  1.00  0.00     0.014 C
ENDBRANCH  17  19
ENDBRANCH  15  16
ENDBRANCH   1  15
BRANCH  13  22
HETATM   22  C18 UNL     1     -21.164 -37.280  27.174  1.00  0.00     0.189 C
HETATM   23  O5  UNL     1     -21.960 -38.253  27.121  1.00  0.00    -0.647 OA
HETATM   24  O6  UNL     1     -19.813 -37.543  27.176  1.00  0.00    -0.647 OA
ENDBRANCH  13  22
BRANCH   3  25
HETATM   25  C9  UNL     1     -19.031 -36.215  30.458  1.00  0.00     0.198 C
BRANCH  25  26
HETATM   26  O1  UNL     1     -18.511 -35.373  31.470  1.00  0.00    -0.397 OA
ATOM     27  H1  UNL     1     -17.562 -35.332  31.424  1.00  0.00     0.209 HD
ENDBRANCH  25  26
ENDBRANCH   3  25
BRANCH  10  28
HETATM   28  O4  UNL     1     -26.444 -36.200  26.581  1.00  0.00    -0.340 OA
ATOM     29  H4  UNL     1     -27.270 -36.360  27.023  1.00  0.00     0.220 HD
ENDBRANCH  10  28
TORSDOF 7
ENDMDL