MODEL 4
REMARK VINA RESULT: -6.953839563      3.193      6.878
REMARK  7 active torsions:
REMARK  status: ('A' for Active; 'I' for Inactive)
REMARK    1  A    between atoms: C2_2  and  C4_4
REMARK    2  A    between atoms: C13_14  and  C14_15
REMARK    3  A    between atoms: C14_15  and  O2_16
REMARK    4  A    between atoms: C14_15  and  C15_18
REMARK    5  A    between atoms: C15_18  and  N1_19
REMARK    6  A    between atoms: C15_18  and  C16_23
REMARK    7  A    between atoms: C18_26  and  O4_27
ROOT
HETATM    1  C4  UNL     1     -25.386 -32.800  26.911  1.00  0.00     0.022 C
HETATM    2  C5  UNL     1     -24.742 -31.711  26.041  1.00  0.00     0.010 C
HETATM    3  C6  UNL     1     -23.281 -31.915  26.356  1.00  0.00     0.010 C
HETATM    4  C7  UNL     1     -23.258 -33.450  26.211  1.00  0.00     0.023 C
HETATM    5  C8  UNL     1     -21.950 -34.047  26.333  1.00  0.00    -0.077 C
HETATM    6  C9  UNL     1     -21.751 -35.041  25.470  1.00  0.00     0.015 C
HETATM    7  C10 UNL     1     -20.678 -33.916  27.149  1.00  0.00     0.117 C
HETATM    8  C11 UNL     1     -20.853 -34.797  28.338  1.00  0.00     0.167 C
HETATM    9  O1  UNL     1     -19.783 -35.102  28.930  1.00  0.00    -0.292 OA
HETATM   10  C12 UNL     1     -21.985 -35.419  29.018  1.00  0.00     0.058 A
HETATM   11  C13 UNL     1     -21.818 -36.580  29.707  1.00  0.00     0.124 A
HETATM   12  O3  UNL     1     -23.043 -36.852  30.207  1.00  0.00    -0.284 OA
HETATM   13  C18 UNL     1     -23.915 -35.969  29.880  1.00  0.00     0.191 A
HETATM   14  C19 UNL     1     -23.311 -35.007  29.109  1.00  0.00     0.018 A
HETATM   15  C20 UNL     1     -24.036 -33.866  28.580  1.00  0.00     0.055 C
HETATM   16  C21 UNL     1     -24.353 -33.880  27.116  1.00  0.00    -0.025 C
HETATM   17  C22 UNL     1     -24.924 -35.211  26.711  1.00  0.00     0.017 C
ENDROOT
BRANCH  11  18
HETATM   18  C14 UNL     1     -20.622 -37.369  29.883  1.00  0.00     0.108 C
BRANCH  18  19
HETATM   19  O2  UNL     1     -20.479 -38.590  29.290  1.00  0.00    -0.360 OA
ATOM     20  H2  UNL     1     -20.418 -39.387  29.804  1.00  0.00     0.217 HD
ENDBRANCH  18  19
BRANCH  18  21
HETATM   21  C15 UNL     1     -20.091 -37.340  31.315  1.00  0.00     0.242 C
BRANCH  21  22
HETATM   22  N1  UNL     1     -20.390 -36.074  31.935  1.00  0.00    -0.069 N
ATOM     23  H13 UNL     1     -20.218 -36.093  32.940  1.00  0.00     0.275 HD
ATOM     24  H12 UNL     1     -19.712 -35.356  31.679  1.00  0.00     0.275 HD
ATOM     25  H11 UNL     1     -21.345 -35.790  31.718  1.00  0.00     0.275 HD
ENDBRANCH  21  22
BRANCH  21  26
HETATM   26  C16 UNL     1     -20.704 -38.411  32.189  1.00  0.00     0.035 C
HETATM   27  C17 UNL     1     -21.541 -37.851  33.315  1.00  0.00     0.007 C
ENDBRANCH  21  26
ENDBRANCH  18  21
ENDBRANCH  11  18
BRANCH  13  28
HETATM   28  O4  UNL     1     -25.256 -35.933  30.214  1.00  0.00    -0.340 OA
ATOM     29  H4  UNL     1     -25.696 -35.332  30.804  1.00  0.00     0.220 HD
ENDBRANCH  13  28
BRANCH   1  30
HETATM   30  C2  UNL     1     -26.670 -33.218  26.367  1.00  0.00    -0.088 C
HETATM   31  C1  UNL     1     -27.569 -33.801  27.148  1.00  0.00     0.014 C
HETATM   32  C3  UNL     1     -27.033 -32.968  24.955  1.00  0.00     0.043 C
ENDBRANCH   1  30
TORSDOF 7
ENDMDL