MODEL 4
REMARK VINA RESULT: -7.953587863      1.564      7.652
REMARK  7 active torsions:
REMARK  status: ('A' for Active; 'I' for Inactive)
REMARK    1  A    between atoms: C2_2  and  C3_3
REMARK    2  A    between atoms: C3_3  and  C5_5
REMARK    3  A    between atoms: C6_6  and  O1_7
REMARK    4  A    between atoms: C11_13  and  O2_14
REMARK    5  A    between atoms: C13_17  and  C14_18
REMARK    6  A    between atoms: C14_18  and  O4_19
REMARK    7  A    between atoms: C18_24  and  O5_26
ROOT
HETATM    1  C5  UNL     1     -29.504 -33.691  24.588  1.00  0.00     0.013 A
HETATM    2  C6  UNL     1     -28.628 -34.472  25.387  1.00  0.00     0.084 A
HETATM    3  C7  UNL     1     -27.387 -34.015  25.743  1.00  0.00     0.012 A
HETATM    4  C8  UNL     1     -26.928 -32.781  25.345  1.00  0.00     0.087 A
HETATM    5  C9  UNL     1     -27.782 -32.032  24.577  1.00  0.00     0.006 A
HETATM    6  C10 UNL     1     -27.334 -30.689  24.118  1.00  0.00     0.054 C
HETATM    7  C11 UNL     1     -29.062 -32.465  24.193  1.00  0.00     0.086 A
HETATM    8  O3  UNL     1     -25.627 -32.590  25.857  1.00  0.00    -0.341 OA
HETATM    9  C13 UNL     1     -25.642 -33.337  27.083  1.00  0.00     0.167 C
HETATM   10  C21 UNL     1     -26.276 -34.620  26.567  1.00  0.00     0.080 C
ENDROOT
BRANCH   9  11
HETATM   11  C14 UNL     1     -24.298 -33.524  27.691  1.00  0.00     0.087 C
HETATM   12  C15 UNL     1     -24.297 -32.989  29.093  1.00  0.00     0.041 C
HETATM   13  C16 UNL     1     -22.966 -33.154  29.763  1.00  0.00     0.006 C
HETATM   14  C17 UNL     1     -21.859 -32.616  28.921  1.00  0.00     0.037 C
HETATM   15  C18 UNL     1     -21.864 -33.265  27.549  1.00  0.00     0.057 C
HETATM   16  C19 UNL     1     -21.514 -34.729  27.601  1.00  0.00     0.045 C
HETATM   17  C20 UNL     1     -23.178 -32.997  26.830  1.00  0.00     0.077 C
BRANCH  11  18
HETATM   18  O4  UNL     1     -24.101 -34.924  27.783  1.00  0.00    -0.387 OA
ATOM     19  H4  UNL     1     -23.672 -35.075  28.617  1.00  0.00     0.210 HD
ENDBRANCH  11  18
BRANCH  15  20
HETATM   20  O5  UNL     1     -20.868 -32.631  26.798  1.00  0.00    -0.390 OA
ATOM     21  H5  UNL     1     -21.133 -31.724  26.702  1.00  0.00     0.210 HD
ENDBRANCH  15  20
ENDBRANCH   9  11
BRANCH   2  22
HETATM   22  O1  UNL     1     -29.005 -35.728  25.838  1.00  0.00    -0.359 OA
ATOM     23  H1  UNL     1     -28.378 -36.442  25.875  1.00  0.00     0.217 HD
ENDBRANCH   2  22
BRANCH   7  24
HETATM   24  O2  UNL     1     -29.806 -31.559  23.412  1.00  0.00    -0.355 OA
HETATM   25  C12 UNL     1     -29.600 -31.481  22.006  1.00  0.00     0.210 C
ENDBRANCH   7  24
BRANCH   1  26
HETATM   26  C3  UNL     1     -30.756 -34.322  24.264  1.00  0.00     0.020 C
HETATM   27  C4  UNL     1     -30.842 -34.451  22.718  1.00  0.00     0.015 C
BRANCH  26  28
HETATM   28  C2  UNL     1     -32.054 -33.769  24.678  1.00  0.00     0.005 C
HETATM   29  C1  UNL     1     -32.947 -33.266  23.563  1.00  0.00     0.006 C
ENDBRANCH  26  28
ENDBRANCH   1  26
TORSDOF 7
ENDMDL