MODEL 2
REMARK VINA RESULT: -8.748510607      2.427      7.371
REMARK  6 active torsions:
REMARK  status: ('A' for Active; 'I' for Inactive)
REMARK    1  A    between atoms: C2_2  and  O1_3
REMARK    2  A    between atoms: C2_2  and  C3_5
REMARK    3  A    between atoms: C3_5  and  N1_6
REMARK    4  A    between atoms: C3_5  and  C16_26
REMARK    5  A    between atoms: N1_6  and  C4_8
REMARK    6  A    between atoms: N5_19  and  C10_20
ROOT
HETATM    1  C4  UNL     1     -25.755 -32.459  26.157  1.00  0.00     0.679 A
HETATM    2  N2  UNL     1     -27.001 -32.831  25.852  1.00  0.00    -0.176 N
ATOM      3  H2  UNL     1     -27.471 -33.542  26.412  1.00  0.00     0.186 HD
HETATM    4  C5  UNL     1     -27.635 -32.270  24.812  1.00  0.00     0.136 A
HETATM    5  C6  UNL     1     -27.017 -31.302  24.039  1.00  0.00     0.028 A
HETATM    6  C7  UNL     1     -25.726 -30.921  24.360  1.00  0.00     0.121 A
HETATM    7  N3  UNL     1     -25.152 -31.522  25.412  1.00  0.00    -0.201 N
ATOM      8  H3  UNL     1     -24.201 -31.250  25.659  1.00  0.00     0.183 HD
HETATM    9  C8  UNL     1     -27.931 -30.951  23.077  1.00  0.00     0.062 A
HETATM   10  C9  UNL     1     -29.064 -31.708  23.295  1.00  0.00     0.121 A
HETATM   11  N4  UNL     1     -30.258 -31.644  22.508  1.00  0.00    -0.082 NA
HETATM   12  N5  UNL     1     -28.891 -32.515  24.351  1.00  0.00    -0.316 N
ENDROOT
BRANCH   1  13
HETATM   13  N1  UNL     1     -25.098 -32.971  27.153  1.00  0.00    -0.218 N
ATOM     14  H1  UNL     1     -25.534 -33.674  27.749  1.00  0.00     0.178 HD
BRANCH  13  15
HETATM   15  C3  UNL     1     -23.704 -32.521  27.418  1.00  0.00     0.131 C
BRANCH  15  16
HETATM   16  C2  UNL     1     -23.556 -32.102  28.820  1.00  0.00     0.137 C
HETATM   17  C1  UNL     1     -22.218 -32.329  29.409  1.00  0.00     0.041 C
BRANCH  16  18
HETATM   18  O1  UNL     1     -24.536 -32.727  29.629  1.00  0.00    -0.394 OA
ATOM     19  H1  UNL     1     -25.243 -32.114  29.794  1.00  0.00     0.210 HD
ENDBRANCH  16  18
ENDBRANCH  15  16
BRANCH  15  20
HETATM   20  C16 UNL     1     -22.775 -33.605  27.013  1.00  0.00     0.011 C
HETATM   21  C17 UNL     1     -22.047 -33.485  25.720  1.00  0.00     0.007 C
HETATM   22  C18 UNL     1     -21.458 -34.856  25.330  1.00  0.00     0.000 C
HETATM   23  C19 UNL     1     -21.100 -35.656  26.551  1.00  0.00     0.000 C
HETATM   24  C20 UNL     1     -22.398 -36.030  27.238  1.00  0.00     0.000 C
HETATM   25  C21 UNL     1     -23.462 -34.973  27.021  1.00  0.00     0.007 C
ENDBRANCH  15  20
ENDBRANCH  13  15
ENDBRANCH   1  13
BRANCH  12  26
HETATM   26  C10 UNL     1     -29.885 -33.442  24.853  1.00  0.00     0.092 C
HETATM   27  C11 UNL     1     -29.953 -34.696  24.017  1.00  0.00     0.026 C
HETATM   28  C12 UNL     1     -31.203 -35.421  24.537  1.00  0.00     0.002 C
HETATM   29  C13 UNL     1     -30.836 -35.997  25.872  1.00  0.00     0.000 C
HETATM   30  C14 UNL     1     -29.919 -35.172  26.688  1.00  0.00     0.002 C
HETATM   31  C15 UNL     1     -29.720 -33.765  26.292  1.00  0.00     0.026 C
ENDBRANCH  12  26
TORSDOF 6
ENDMDL