MODEL 3
REMARK VINA RESULT: -7.710127212      1.109      1.204
REMARK  5 active torsions:
REMARK  status: ('A' for Active; 'I' for Inactive)
REMARK    1  A    between atoms: S1_2  and  C2_3
REMARK    2  A    between atoms: C2_3  and  C3_4
REMARK    3  A    between atoms: C11_12  and  C12_13
REMARK    4  A    between atoms: C12_13  and  O1_14
REMARK    5  A    between atoms: C12_13  and  N1_16
ROOT
HETATM    1  C12 UNL     1     -24.953 -33.522  28.075  1.00  0.00     0.245 C
ENDROOT
BRANCH   1   2
HETATM    2  C11 UNL     1     -23.576 -33.976  27.595  1.00  0.00     0.041 C
HETATM    3  C10 UNL     1     -22.574 -33.230  28.431  1.00  0.00     0.014 C
HETATM    4  C8  UNL     1     -21.195 -33.442  27.857  1.00  0.00    -0.013 C
HETATM    5  C7  UNL     1     -21.146 -33.597  26.374  1.00  0.00     0.009 C
HETATM    6  C9  UNL     1     -20.629 -34.599  28.622  1.00  0.00     0.010 C
HETATM    7  C6  UNL     1     -21.393 -34.959  25.836  1.00  0.00    -0.013 C
HETATM    8  C5  UNL     1     -20.479 -35.940  26.589  1.00  0.00     0.010 C
HETATM    9  C20 UNL     1     -22.806 -35.431  25.826  1.00  0.00     0.010 C
HETATM   10  C4  UNL     1     -21.014 -35.874  28.021  1.00  0.00    -0.009 C
HETATM   11  C3  UNL     1     -22.457 -36.266  28.021  1.00  0.00     0.003 C
HETATM   12  C19 UNL     1     -23.364 -35.359  27.283  1.00  0.00    -0.001 C
BRANCH  11  13
HETATM   13  C2  UNL     1     -22.879 -36.808  29.336  1.00  0.00     0.078 C
BRANCH  13  14
HETATM   14  S1  UNL     1     -24.466 -37.651  29.262  1.00  0.00    -0.173 SA
HETATM   15  C1  UNL     1     -25.477 -37.359  30.718  1.00  0.00     0.089 C
ENDBRANCH  13  14
ENDBRANCH  11  13
ENDBRANCH   1   2
BRANCH   1  16
HETATM   16  O1  UNL     1     -25.337 -34.091  29.278  1.00  0.00    -0.375 OA
ATOM     17  H1  UNL     1     -25.797 -33.491  29.854  1.00  0.00     0.212 HD
ENDBRANCH   1  16
BRANCH   1  18
HETATM   18  N1  UNL     1     -25.958 -33.550  27.048  1.00  0.00    -0.262 N
HETATM   19  N2  UNL     1     -26.915 -34.452  26.955  1.00  0.00    -0.306 N
HETATM   20  C13 UNL     1     -27.709 -34.208  25.877  1.00  0.00     0.126 A
ATOM     21  H2  UNL     1     -27.044 -35.227  27.604  1.00  0.00     0.186 HD
HETATM   22  C14 UNL     1     -27.212 -33.080  25.259  1.00  0.00     0.077 A
HETATM   23  C15 UNL     1     -27.568 -32.348  24.147  1.00  0.00     0.259 A
HETATM   24  C18 UNL     1     -26.124 -32.702  26.016  1.00  0.00     0.072 A
HETATM   25  O2  UNL     1     -28.572 -32.717  23.467  1.00  0.00    -0.267 OA
HETATM   26  N3  UNL     1     -26.876 -31.249  23.762  1.00  0.00    -0.333 N
HETATM   27  C16 UNL     1     -25.816 -30.886  24.508  1.00  0.00     0.093 A
ATOM     28  H3  UNL     1     -27.150 -30.715  22.937  1.00  0.00     0.168 HD
HETATM   29  C17 UNL     1     -25.428 -31.594  25.626  1.00  0.00     0.049 A
ENDBRANCH   1  18
TORSDOF 5
ENDMDL