MODEL 3
REMARK VINA RESULT: -10.105033316      1.791      2.226
REMARK  10 active torsions:
REMARK  status: ('A' for Active; 'I' for Inactive)
REMARK       I    between atoms: C1_4  and  N2_5
REMARK       I    between atoms: C1_4  and  N13_48
REMARK       I    between atoms: N2_5  and  C2_7
REMARK    1  A    between atoms: C2_7  and  C3_9
REMARK    2  A    between atoms: C4_12  and  C5_13
REMARK    3  A    between atoms: N7_25  and  N8_26
REMARK    4  A    between atoms: N8_26  and  C10_28
REMARK    5  A    between atoms: C10_28  and  C11_29
REMARK    6  A    between atoms: N11_34  and  C12_35
REMARK    7  A    between atoms: C12_35  and  C13_36
REMARK    8  A    between atoms: C13_36  and  C14_38
REMARK    9  A    between atoms: C17_41  and  O3_42
REMARK   10  A    between atoms: N13_48  and  N14_50
ROOT
HETATM    1  C3  UNL     1      30.857  38.400  38.779  1.00  0.00     0.215 A
HETATM    2  N3  UNL     1      30.349  38.197  37.514  1.00  0.00    -0.319 N
ATOM      3  H3  UNL     1      30.251  37.287  37.064  1.00  0.00     0.169 HD
HETATM    4  C4  UNL     1      30.003  39.366  36.962  1.00  0.00     0.135 A
HETATM    5  N6  UNL     1      30.298  40.287  37.884  1.00  0.00    -0.262 N
ATOM      6  H6  UNL     1      30.150  41.289  37.766  1.00  0.00     0.191 HD
HETATM    7  N7  UNL     1      30.811  39.723  38.979  1.00  0.00    -0.176 N
ENDROOT
BRANCH   7   8
HETATM    8  N8  UNL     1      31.215  40.404  40.125  1.00  0.00    -0.306 N
ATOM      9  H8  UNL     1      30.590  40.459  40.930  1.00  0.00     0.182 HD
BRANCH   8  10
HETATM   10  C10 UNL     1      32.518  41.036  40.181  1.00  0.00     0.220 C
BRANCH  10  11
HETATM   11  C11 UNL     1      33.429  40.246  41.011  1.00  0.00     0.132 A
HETATM   12  N9  UNL     1      33.918  39.011  40.848  1.00  0.00    -0.271 N
HETATM   13  N10 UNL     1      34.705  38.737  41.872  1.00  0.00    -0.224 N
ATOM     14  H9  UNL     1      33.716  38.388  40.065  1.00  0.00     0.190 HD
HETATM   15  N11 UNL     1      34.734  39.760  42.683  1.00  0.00    -0.211 N
ATOM     16  H10 UNL     1      35.212  37.863  42.008  1.00  0.00     0.210 HD
HETATM   17  N12 UNL     1      33.967  40.690  42.182  1.00  0.00    -0.268 N
ATOM     18  H12 UNL     1      33.796  41.604  42.601  1.00  0.00     0.190 HD
BRANCH  15  19
HETATM   19  C12 UNL     1      35.474  39.874  43.924  1.00  0.00     0.254 C
BRANCH  19  20
HETATM   20  C13 UNL     1      35.090  38.803  44.871  1.00  0.00     0.180 C
HETATM   21  O2  UNL     1      33.909  38.683  45.256  1.00  0.00    -0.290 OA
BRANCH  20  22
HETATM   22  C14 UNL     1      36.112  37.895  45.347  1.00  0.00     0.012 A
HETATM   23  C15 UNL     1      37.357  38.381  45.676  1.00  0.00     0.018 A
HETATM   24  C16 UNL     1      38.362  37.536  46.136  1.00  0.00     0.037 A
HETATM   25  C17 UNL     1      38.132  36.199  46.271  1.00  0.00     0.065 A
HETATM   26  C18 UNL     1      36.902  35.692  45.951  1.00  0.00     0.037 A
HETATM   27  C19 UNL     1      35.922  36.535  45.498  1.00  0.00     0.018 A
BRANCH  25  28
HETATM   28  O3  UNL     1      39.134  35.350  46.731  1.00  0.00    -0.361 OA
ATOM     29  H3  UNL     1      39.294  35.249  47.661  1.00  0.00     0.217 HD
ENDBRANCH  25  28
ENDBRANCH  20  22
ENDBRANCH  19  20
ENDBRANCH  15  19
ENDBRANCH  10  11
ENDBRANCH   8  10
ENDBRANCH   7   8
BRANCH   1  30
HETATM   30  C2  UNL     1      31.330  37.345  39.663  1.00  0.00     0.307 C
HETATM   31  N2  UNL     1      30.561  36.981  40.822  1.00  0.00    -0.152 N
HETATM   32  C1  UNL     1      30.980  35.966  41.703  1.00  0.00     0.698 C
ATOM     33  H2  UNL     1      29.688  37.473  41.011  1.00  0.00     0.188 HD
HETATM   34  N1  UNL     1      30.261  35.674  42.729  1.00  0.00    -0.233 N
HETATM   35  N13 UNL     1      32.184  35.231  41.514  1.00  0.00    -0.072 N
ATOM     36  H12 UNL     1      29.399  36.200  42.866  1.00  0.00     0.174 HD
ATOM     37  H11 UNL     1      30.564  34.938  43.368  1.00  0.00     0.174 HD
ATOM     38  H13 UNL     1      32.319  34.631  40.700  1.00  0.00     0.212 HD
HETATM   39  O1  UNL     1      32.387  36.731  39.455  1.00  0.00    -0.263 OA
BRANCH  35  40
HETATM   40  N14 UNL     1      33.171  35.370  42.491  1.00  0.00    -0.024 N
HETATM   41  O4  UNL     1      33.339  36.508  42.989  1.00  0.00    -0.516 OA
HETATM   42  O5  UNL     1      33.959  34.336  42.929  1.00  0.00    -0.516 OA
ENDBRANCH  35  40
ENDBRANCH   1  30
BRANCH   4  43
HETATM   43  C5  UNL     1      29.426  39.560  35.626  1.00  0.00     0.025 A
HETATM   44  C6  UNL     1      28.489  38.665  35.158  1.00  0.00     0.020 A
HETATM   45  C7  UNL     1      27.967  38.880  33.894  1.00  0.00     0.049 A
HETATM   46  C8  UNL     1      28.343  39.940  33.097  1.00  0.00     0.098 A
HETATM   47  N4  UNL     1      27.838  40.119  31.915  1.00  0.00    -0.385 N
HETATM   48  N5  UNL     1      29.260  40.794  33.587  1.00  0.00    -0.352 N
ATOM     49  H42 UNL     1      27.143  39.472  31.544  1.00  0.00     0.157 HD
ATOM     50  H41 UNL     1      28.117  40.903  31.326  1.00  0.00     0.157 HD
HETATM   51  C9  UNL     1      29.793  40.614  34.822  1.00  0.00     0.105 A
ATOM     52  H5  UNL     1      29.559  41.588  33.021  1.00  0.00     0.166 HD
ENDBRANCH   4  43
TORSDOF 10
ENDMDL