MODEL 4
REMARK VINA RESULT: -8.442844233      1.075      1.537
REMARK  9 active torsions:
REMARK  status: ('A' for Active; 'I' for Inactive)
REMARK    1  A    between atoms: C3_3  and  C4_4
REMARK    2  A    between atoms: C4_4  and  C5_5
REMARK    3  A    between atoms: C4_4  and  S2_21
REMARK    4  A    between atoms: C5_5  and  S1_6
REMARK    5  A    between atoms: S1_6  and  C6_7
REMARK    6  A    between atoms: N2_10  and  N3_12
REMARK    7  A    between atoms: N3_12  and  C8_14
REMARK    8  A    between atoms: S2_21  and  C11_22
REMARK    9  A    between atoms: C12_27  and  N8_28
ROOT
HETATM    1  C6  UNL     1      32.951  40.348  41.773  1.00  0.00     0.166 C
HETATM    2  C7  UNL     1      33.902  40.392  42.885  1.00  0.00     0.126 C
HETATM    3  N1  UNL     1      34.669  40.419  43.744  1.00  0.00    -0.189 NA
HETATM    4  N2  UNL     1      33.335  40.894  40.686  1.00  0.00    -0.282 N
ATOM      5  H2  UNL     1      34.270  41.298  40.641  1.00  0.00     0.188 HD
ENDROOT
BRANCH   1   6
HETATM    6  S1  UNL     1      31.344  39.617  41.950  1.00  0.00    -0.098 SA
BRANCH   6   7
HETATM    7  C5  UNL     1      31.489  37.867  42.600  1.00  0.00     0.103 C
BRANCH   7   8
HETATM    8  C4  UNL     1      31.592  37.010  41.387  1.00  0.00     0.115 C
BRANCH   8   9
HETATM    9  C3  UNL     1      30.434  36.266  40.893  1.00  0.00     0.040 A
HETATM   10  C2  UNL     1      30.048  36.559  39.569  1.00  0.00     0.030 A
HETATM   11  C1  UNL     1      30.704  37.695  38.853  1.00  0.00     0.056 C
HETATM   12  C18 UNL     1      29.079  35.792  38.985  1.00  0.00     0.257 A
HETATM   13  N12 UNL     1      28.488  34.770  39.644  1.00  0.00    -0.275 N
HETATM   14  O2  UNL     1      28.750  36.074  37.794  1.00  0.00    -0.267 OA
HETATM   15  C17 UNL     1      28.846  34.485  40.895  1.00  0.00     0.327 A
ATOM     16  H12 UNL     1      27.766  34.215  39.183  1.00  0.00     0.173 HD
HETATM   17  N11 UNL     1      29.811  35.240  41.489  1.00  0.00    -0.310 N
HETATM   18  O1  UNL     1      28.310  33.526  41.544  1.00  0.00    -0.247 OA
ATOM     19  H11 UNL     1      30.076  35.010  42.447  1.00  0.00     0.170 HD
ENDBRANCH   8   9
BRANCH   8  20
HETATM   20  S2  UNL     1      32.627  35.578  42.148  1.00  0.00    -0.080 SA
BRANCH  20  21
HETATM   21  C11 UNL     1      34.151  36.362  42.677  1.00  0.00     0.175 A
HETATM   22  N6  UNL     1      35.042  37.142  42.061  1.00  0.00    -0.265 N
HETATM   23  N7  UNL     1      35.987  37.546  42.861  1.00  0.00    -0.130 N
ATOM     24  H6  UNL     1      34.988  37.393  41.074  1.00  0.00     0.189 HD
HETATM   25  C12 UNL     1      35.734  37.029  44.061  1.00  0.00     0.697 A
ATOM     26  H7  UNL     1      36.774  38.146  42.614  1.00  0.00     0.205 HD
HETATM   27  N10 UNL     1      34.618  36.301  43.966  1.00  0.00    -0.168 N
ATOM     28  H10 UNL     1      34.183  35.783  44.730  1.00  0.00     0.186 HD
BRANCH  25  29
HETATM   29  N8  UNL     1      36.523  37.313  45.220  1.00  0.00    -0.213 N
HETATM   30  C13 UNL     1      37.272  36.170  45.736  1.00  0.00     0.168 C
HETATM   31  C14 UNL     1      38.266  36.651  46.724  1.00  0.00     0.252 C
HETATM   32  N9  UNL     1      38.855  37.877  46.187  1.00  0.00    -0.072 N
HETATM   33  C15 UNL     1      37.881  38.934  46.476  1.00  0.00     0.252 C
ATOM     34  H92 UNL     1      39.791  38.072  46.541  1.00  0.00     0.277 HD
ATOM     35  H91 UNL     1      39.111  37.812  45.203  1.00  0.00     0.277 HD
HETATM   36  C16 UNL     1      36.571  38.606  45.838  1.00  0.00     0.168 C
ENDBRANCH  25  29
ENDBRANCH  20  21
ENDBRANCH   8  20
ENDBRANCH   7   8
ENDBRANCH   6   7
ENDBRANCH   1   6
BRANCH   4  37
HETATM   37  N3  UNL     1      32.521  40.954  39.561  1.00  0.00    -0.270 N
ATOM     38  H3  UNL     1      32.520  40.164  38.915  1.00  0.00     0.190 HD
BRANCH  37  39
HETATM   39  C8  UNL     1      31.684  42.076  39.274  1.00  0.00     0.190 A
HETATM   40  N4  UNL     1      31.940  43.273  39.641  1.00  0.00    -0.360 N
HETATM   41  C9  UNL     1      30.968  44.233  39.242  1.00  0.00     0.142 A
ATOM     42  H4  UNL     1      32.773  43.519  40.177  1.00  0.00     0.162 HD
HETATM   43  C10 UNL     1      29.985  43.451  38.394  1.00  0.00     0.142 A
HETATM   44  N5  UNL     1      30.464  42.098  38.545  1.00  0.00    -0.360 N
ATOM     45  H5  UNL     1      29.992  41.271  38.178  1.00  0.00     0.162 HD
ENDBRANCH  37  39
ENDBRANCH   4  37
TORSDOF 9
ENDMDL