MODEL 1
REMARK VINA RESULT: -8.505015374      0.000      0.000
REMARK  14 active torsions:
REMARK  status: ('A' for Active; 'I' for Inactive)
REMARK    1  A    between atoms: C2_2  and  C3_3
REMARK    2  A    between atoms: C3_3  and  N1_4
REMARK    3  A    between atoms: C3_3  and  C19_44
REMARK    4  A    between atoms: C4_6  and  O1_7
REMARK    5  A    between atoms: C4_6  and  C5_9
REMARK    6  A    between atoms: C8_16  and  C9_17
REMARK    7  A    between atoms: C9_17  and  O2_18
REMARK    8  A    between atoms: C9_17  and  N5_20
REMARK    9  A    between atoms: N5_20  and  C10_22
REMARK   10  A    between atoms: C10_22  and  C11_23
REMARK   11  A    between atoms: C15_31  and  C16_32
REMARK   12  A    between atoms: C17_41  and  N12_42
REMARK   13  A    between atoms: C19_44  and  N13_45
REMARK   14  A    between atoms: C19_44  and  O3_49
ROOT
HETATM    1  C5  UNL     1      29.957  36.444  38.323  1.00  0.00     0.098 A
HETATM    2  C6  UNL     1      30.342  37.789  38.131  1.00  0.00     0.135 A
HETATM    3  N2  UNL     1      30.326  38.398  36.835  1.00  0.00    -0.082 NA
HETATM    4  N3  UNL     1      30.733  38.493  39.187  1.00  0.00    -0.332 N
ATOM      5  H3  UNL     1      31.011  39.464  39.049  1.00  0.00     0.168 HD
HETATM    6  C7  UNL     1      30.777  37.990  40.413  1.00  0.00     0.135 A
HETATM    7  N4  UNL     1      31.212  38.869  41.440  1.00  0.00    -0.082 NA
HETATM    8  C8  UNL     1      30.417  36.676  40.712  1.00  0.00     0.097 A
HETATM    9  C17 UNL     1      29.995  35.887  39.623  1.00  0.00     0.141 A
ENDROOT
BRANCH   8  10
HETATM   10  C9  UNL     1      30.526  36.283  42.079  1.00  0.00     0.153 C
BRANCH  10  11
HETATM   11  O2  UNL     1      29.404  36.348  42.776  1.00  0.00    -0.346 OA
ATOM     12  H2  UNL     1      29.499  36.657  43.669  1.00  0.00     0.219 HD
ENDBRANCH  10  11
BRANCH  10  13
HETATM   13  N5  UNL     1      31.577  35.834  42.870  1.00  0.00    -0.364 N
ATOM     14  H5  UNL     1      31.490  35.819  43.886  1.00  0.00     0.162 HD
BRANCH  13  15
HETATM   15  C10 UNL     1      32.821  35.378  42.218  1.00  0.00     0.181 C
BRANCH  15  16
HETATM   16  C11 UNL     1      33.979  35.624  43.118  1.00  0.00     0.060 A
HETATM   17  N6  UNL     1      34.489  34.810  44.062  1.00  0.00    -0.336 N
HETATM   18  C12 UNL     1      35.542  35.470  44.640  1.00  0.00     0.155 A
ATOM     19  H6  UNL     1      34.154  33.877  44.302  1.00  0.00     0.168 HD
HETATM   20  S1  UNL     1      36.770  35.384  45.816  1.00  0.00    -0.064 SA
HETATM   21  N7  UNL     1      35.719  36.671  44.098  1.00  0.00    -0.297 N
HETATM   22  C13 UNL     1      37.474  36.915  45.565  1.00  0.00     0.071 A
HETATM   23  C14 UNL     1      36.697  37.421  44.556  1.00  0.00     0.107 A
HETATM   24  C15 UNL     1      34.735  36.774  43.137  1.00  0.00     0.112 A
BRANCH  24  25
HETATM   25  C16 UNL     1      34.476  37.894  42.240  1.00  0.00     0.167 A
HETATM   26  N8  UNL     1      34.412  37.926  40.905  1.00  0.00    -0.267 N
HETATM   27  N9  UNL     1      34.148  39.170  40.514  1.00  0.00    -0.227 N
ATOM     28  H8  UNL     1      34.544  37.126  40.286  1.00  0.00     0.190 HD
HETATM   29  N10 UNL     1      34.045  39.924  41.588  1.00  0.00    -0.227 N
ATOM     30  H9  UNL     1      34.044  39.484  39.549  1.00  0.00     0.210 HD
HETATM   31  N11 UNL     1      34.244  39.150  42.644  1.00  0.00    -0.267 N
ATOM     32  H10 UNL     1      33.847  40.924  41.604  1.00  0.00     0.210 HD
ATOM     33  H11 UNL     1      34.224  39.462  43.615  1.00  0.00     0.190 HD
ENDBRANCH  24  25
ENDBRANCH  15  16
ENDBRANCH  13  15
ENDBRANCH  10  13
ENDBRANCH   8  10
BRANCH   9  34
HETATM   34  N12 UNL     1      29.647  34.754  39.833  1.00  0.00    -0.427 NA
HETATM   35  C18 UNL     1      28.971  33.614  40.062  1.00  0.00     0.229 C
ENDBRANCH   9  34
BRANCH   1  36
HETATM   36  C4  UNL     1      29.531  35.789  37.126  1.00  0.00     0.157 C
HETATM   37  N1  UNL     1      28.483  36.020  36.284  1.00  0.00    -0.339 N
ATOM     38  H1  UNL     1      28.458  36.980  35.940  1.00  0.00     0.167 HD
BRANCH  37  39
HETATM   39  C3  UNL     1      27.538  35.317  35.832  1.00  0.00     0.044 C
BRANCH  39  40
HETATM   40  C2  UNL     1      26.809  34.424  36.826  1.00  0.00     0.052 C
HETATM   41  C1  UNL     1      27.191  32.987  36.618  1.00  0.00     0.011 C
ENDBRANCH  39  40
BRANCH  39  42
HETATM   42  C19 UNL     1      27.010  35.217  34.457  1.00  0.00     0.363 C
BRANCH  42  43
HETATM   43  N13 UNL     1      27.473  36.198  33.534  1.00  0.00    -0.048 N
ATOM     44 3H13 UNL     1      26.683  36.735  33.175  1.00  0.00     0.277 HD
ATOM     45 2H13 UNL     1      27.981  36.928  34.033  1.00  0.00     0.277 HD
ATOM     46 1H13 UNL     1      28.038  35.853  32.758  1.00  0.00     0.277 HD
ENDBRANCH  42  43
BRANCH  42  47
HETATM   47  O3  UNL     1      25.610  35.285  34.478  1.00  0.00    -0.366 OA
ATOM     48  H3  UNL     1      25.260  34.977  33.651  1.00  0.00     0.212 HD
ENDBRANCH  42  47
ENDBRANCH  39  42
ENDBRANCH  37  39
BRANCH  36  49
HETATM   49  O1  UNL     1      30.259  34.768  36.735  1.00  0.00    -0.345 OA
ATOM     50  H1  UNL     1      30.809  34.989  35.992  1.00  0.00     0.219 HD
ENDBRANCH  36  49
ENDBRANCH   1  36
TORSDOF 14
ENDMDL