MODEL 2
REMARK VINA RESULT: -6.638145793      7.007      9.099
REMARK  12 active torsions:
REMARK  status: ('A' for Active; 'I' for Inactive)
REMARK    1  A    between atoms: O1_2  and  C2_3
REMARK    2  A    between atoms: C3_4  and  O2_5
REMARK    3  A    between atoms: C4_7  and  N1_8
REMARK    4  A    between atoms: C5_11  and  N2_12
REMARK    5  A    between atoms: C6_15  and  C7_16
REMARK    6  A    between atoms: C10_23  and  C11_24
REMARK    7  A    between atoms: C11_24  and  O8_25
REMARK    8  A    between atoms: C11_24  and  O9_27
REMARK    9  A    between atoms: C12_29  and  N5_30
REMARK   10  A    between atoms: N5_30  and  S1_32
REMARK   11  A    between atoms: S1_32  and  N6_33
REMARK   12  A    between atoms: C13_38  and  N7_39
ROOT
HETATM    1  C7  UNL     1      30.036  38.942  37.456  1.00  0.00     0.079 A
HETATM    2  N3  UNL     1      30.442  37.669  37.109  1.00  0.00    -0.319 N
ATOM      3  H3  UNL     1      30.370  37.378  36.134  1.00  0.00     0.169 HD
HETATM    4  C8  UNL     1      30.919  36.814  37.995  1.00  0.00     0.271 A
HETATM    5  O7  UNL     1      31.272  35.647  37.589  1.00  0.00    -0.266 OA
HETATM    6  C9  UNL     1      31.029  37.172  39.308  1.00  0.00     0.127 A
HETATM    7  N4  UNL     1      31.540  36.246  40.237  1.00  0.00    -0.096 NA
HETATM    8  C10 UNL     1      30.628  38.445  39.673  1.00  0.00     0.055 A
HETATM    9  C12 UNL     1      30.125  39.350  38.771  1.00  0.00     0.085 A
ENDROOT
BRANCH   1  10
HETATM   10  C6  UNL     1      29.473  39.669  36.349  1.00  0.00     0.065 A
HETATM   11  C5  UNL     1      30.192  40.426  35.491  1.00  0.00     0.153 A
HETATM   12  C4  UNL     1      29.527  41.175  34.478  1.00  0.00     0.172 A
HETATM   13  C3  UNL     1      28.153  41.088  34.417  1.00  0.00     0.137 A
HETATM   14  C2  UNL     1      27.392  40.327  35.270  1.00  0.00     0.138 A
HETATM   15  C13 UNL     1      28.097  39.621  36.236  1.00  0.00     0.154 A
BRANCH  11  16
HETATM   16  N2  UNL     1      31.597  40.541  35.390  1.00  0.00    -0.112 N
HETATM   17  O5  UNL     1      32.100  41.293  36.311  1.00  0.00    -0.532 OA
HETATM   18  O6  UNL     1      32.482  40.044  34.539  1.00  0.00    -0.532 OA
ENDBRANCH  11  16
BRANCH  12  19
HETATM   19  N1  UNL     1      30.251  41.989  33.565  1.00  0.00    -0.110 N
HETATM   20  O3  UNL     1      30.500  41.633  32.400  1.00  0.00    -0.532 OA
HETATM   21  O4  UNL     1      30.698  43.214  33.975  1.00  0.00    -0.532 OA
ENDBRANCH  12  19
BRANCH  13  22
HETATM   22  O2  UNL     1      27.467  41.811  33.434  1.00  0.00    -0.356 OA
ATOM     23  H2  UNL     1      26.642  42.204  33.691  1.00  0.00     0.218 HD
ENDBRANCH  13  22
BRANCH  14  24
HETATM   24  O1  UNL     1      26.010  40.235  35.212  1.00  0.00    -0.351 OA
HETATM   25  C1  UNL     1      25.156  41.268  35.653  1.00  0.00     0.210 C
ENDBRANCH  14  24
BRANCH  15  26
HETATM   26  N7  UNL     1      27.307  38.800  37.085  1.00  0.00    -0.112 N
HETATM   27  O12 UNL     1      26.653  39.284  38.050  1.00  0.00    -0.532 OA
HETATM   28  O13 UNL     1      27.234  37.461  36.909  1.00  0.00    -0.532 OA
ENDBRANCH  15  26
ENDBRANCH   1  10
BRANCH   9  29
HETATM   29  N5  UNL     1      29.642  40.578  39.179  1.00  0.00    -0.265 N
ATOM     30  H5  UNL     1      28.670  40.547  39.486  1.00  0.00     0.180 HD
BRANCH  29  31
HETATM   31  S1  UNL     1      30.326  42.119  39.277  1.00  0.00     0.317 S
HETATM   32  O10 UNL     1      30.025  43.088  38.215  1.00  0.00    -0.183 OA
HETATM   33  O11 UNL     1      29.993  42.818  40.597  1.00  0.00    -0.183 OA
BRANCH  31  34
HETATM   34  N6  UNL     1      32.083  42.013  39.312  1.00  0.00    -0.311 N
ATOM     35  H62 UNL     1      32.668  41.985  38.477  1.00  0.00     0.170 HD
ATOM     36  H61 UNL     1      32.421  41.984  40.274  1.00  0.00     0.170 HD
ENDBRANCH  31  34
ENDBRANCH  29  31
ENDBRANCH   9  29
BRANCH   8  37
HETATM   37  C11 UNL     1      30.841  38.816  41.076  1.00  0.00     0.292 C
BRANCH  37  38
HETATM   38  O8  UNL     1      32.161  38.936  41.381  1.00  0.00    -0.367 OA
ATOM     39  H8  UNL     1      32.299  39.361  42.219  1.00  0.00     0.213 HD
ENDBRANCH  37  38
BRANCH  37  40
HETATM   40  O9  UNL     1      30.170  37.959  41.957  1.00  0.00    -0.367 OA
ATOM     41  H9  UNL     1      29.560  38.427  42.515  1.00  0.00     0.213 HD
ENDBRANCH  37  40
ENDBRANCH   8  37
TORSDOF 12
ENDMDL