MODEL 3
REMARK VINA RESULT: -7.774603234      4.066      9.558
REMARK  13 active torsions:
REMARK  status: ('A' for Active; 'I' for Inactive)
REMARK       I    between atoms: N1_2  and  C2_4
REMARK       I    between atoms: C2_4  and  N2_5
REMARK       I    between atoms: C2_4  and  N4_12
REMARK    1  A    between atoms: N2_5  and  C3_7
REMARK    2  A    between atoms: C3_7  and  C5_9
REMARK       I    between atoms: N4_12  and  C6_14
REMARK    3  A    between atoms: C6_14  and  C7_16
REMARK    4  A    between atoms: C9_18  and  O3_19
REMARK    5  A    between atoms: O3_19  and  C10_20
REMARK    6  A    between atoms: C10_20  and  C11_22
REMARK    7  A    between atoms: C11_22  and  N5_23
REMARK    8  A    between atoms: N5_23  and  N6_24
REMARK    9  A    between atoms: C12_27  and  N7_28
REMARK       I    between atoms: N7_28  and  C13_30
REMARK   10  A    between atoms: C13_30  and  C14_32
REMARK   11  A    between atoms: C15_35  and  C16_36
REMARK   12  A    between atoms: C16_36  and  O6_37
REMARK   13  A    between atoms: C16_36  and  O7_39
ROOT
HETATM    1  C7  UNL     1      32.650  38.633  42.253  1.00  0.00     0.078 A
HETATM    2  C8  UNL     1      31.555  37.864  42.034  1.00  0.00     0.065 A
HETATM    3  C9  UNL     1      30.873  38.049  40.885  1.00  0.00     0.114 A
HETATM    4  C12 UNL     1      31.303  38.984  40.008  1.00  0.00     0.112 A
HETATM    5  S2  UNL     1      32.720  39.599  40.868  1.00  0.00    -0.064 SA
ENDROOT
BRANCH   1   6
HETATM    6  C6  UNL     1      33.577  38.665  43.390  1.00  0.00     0.276 C
HETATM    7  N4  UNL     1      34.079  37.457  43.892  1.00  0.00    -0.155 N
HETATM    8  C2  UNL     1      34.972  37.314  44.972  1.00  0.00     0.680 C
ATOM      9  H4  UNL     1      33.770  36.601  43.431  1.00  0.00     0.187 HD
HETATM   10  N1  UNL     1      35.399  36.168  45.393  1.00  0.00    -0.230 N
HETATM   11  N2  UNL     1      35.436  38.452  45.653  1.00  0.00    -0.191 N
HETATM   12  C1  UNL     1      34.973  34.956  44.754  1.00  0.00     0.165 C
ATOM     13  H1  UNL     1      36.043  36.125  46.184  1.00  0.00     0.177 HD
ATOM     14  H2  UNL     1      34.856  38.786  46.422  1.00  0.00     0.184 HD
HETATM   15  O2  UNL     1      33.906  39.776  43.900  1.00  0.00    -0.266 OA
BRANCH  11  16
HETATM   16  C3  UNL     1      36.487  39.108  45.423  1.00  0.00     0.087 C
HETATM   17  C4  UNL     1      36.675  40.447  46.072  1.00  0.00     0.074 C
BRANCH  16  18
HETATM   18  C5  UNL     1      37.530  38.624  44.536  1.00  0.00     0.277 C
HETATM   19  N3  UNL     1      38.696  38.013  45.024  1.00  0.00    -0.056 NA
HETATM   20  O1  UNL     1      37.394  38.749  43.298  1.00  0.00    -0.270 OA
ENDBRANCH  16  18
ENDBRANCH  11  16
ENDBRANCH   1   6
BRANCH   3  21
HETATM   21  O3  UNL     1      29.718  37.241  40.635  1.00  0.00    -0.275 OA
BRANCH  21  22
HETATM   22  C10 UNL     1      29.918  35.879  40.364  1.00  0.00     0.280 C
HETATM   23  O4  UNL     1      31.012  35.507  39.941  1.00  0.00    -0.263 OA
BRANCH  22  24
HETATM   24  C11 UNL     1      28.779  34.963  40.608  1.00  0.00     0.245 C
BRANCH  24  25
HETATM   25  N5  UNL     1      27.894  34.875  39.469  1.00  0.00    -0.139 NA
BRANCH  25  26
HETATM   26  N6  UNL     1      28.422  35.709  38.463  1.00  0.00    -0.348 N
ATOM     27  H62 UNL     1      27.880  36.325  37.857  1.00  0.00     0.172 HD
ATOM     28  H61 UNL     1      29.433  35.577  38.462  1.00  0.00     0.172 HD
ENDBRANCH  25  26
ENDBRANCH  24  25
ENDBRANCH  22  24
ENDBRANCH  21  22
ENDBRANCH   3  21
BRANCH   4  29
HETATM   29  N7  UNL     1      30.867  39.507  38.772  1.00  0.00    -0.313 N
HETATM   30  C13 UNL     1      30.530  38.836  37.628  1.00  0.00     0.280 C
HETATM   31  O5  UNL     1      30.523  37.621  37.427  1.00  0.00    -0.265 OA
ATOM     32  H7  UNL     1      30.793  40.523  38.725  1.00  0.00     0.170 HD
BRANCH  30  33
HETATM   33  C14 UNL     1      30.105  39.640  36.432  1.00  0.00     0.143 A
HETATM   34  N8  UNL     1      30.892  40.186  35.525  1.00  0.00    -0.345 N
HETATM   35  C15 UNL     1      30.373  40.859  34.543  1.00  0.00     0.071 A
ATOM     36  H8  UNL     1      31.904  40.080  35.595  1.00  0.00     0.166 HD
HETATM   37  C17 UNL     1      29.006  40.967  34.502  1.00  0.00     0.082 A
HETATM   38  S1  UNL     1      28.552  40.079  35.900  1.00  0.00    -0.076 SA
BRANCH  35  39
HETATM   39  C16 UNL     1      31.237  41.508  33.475  1.00  0.00     0.305 C
BRANCH  39  40
HETATM   40  O6  UNL     1      32.406  40.735  33.308  1.00  0.00    -0.366 OA
ATOM     41  H6  UNL     1      32.975  40.878  34.056  1.00  0.00     0.213 HD
ENDBRANCH  39  40
BRANCH  39  42
HETATM   42  O7  UNL     1      30.588  41.544  32.261  1.00  0.00    -0.366 OA
ATOM     43  H7  UNL     1      31.039  41.015  31.614  1.00  0.00     0.213 HD
ENDBRANCH  39  42
ENDBRANCH  35  39
ENDBRANCH  30  33
ENDBRANCH   4  29
TORSDOF 13
ENDMDL