MODEL 1
REMARK VINA RESULT: -8.294714969      0.000      0.000
REMARK  16 active torsions:
REMARK  status: ('A' for Active; 'I' for Inactive)
REMARK    1  A    between atoms: C4_4  and  N1_5
REMARK    2  A    between atoms: C6_12  and  C7_13
REMARK    3  A    between atoms: C7_13  and  C8_14
REMARK    4  A    between atoms: C8_14  and  S1_15
REMARK    5  A    between atoms: S1_15  and  C9_16
REMARK    6  A    between atoms: C9_16  and  C10_17
REMARK    7  A    between atoms: C10_17  and  N4_19
REMARK    8  A    between atoms: N4_19  and  C11_21
REMARK    9  A    between atoms: C11_21  and  N5_22
REMARK   10  A    between atoms: C11_21  and  C14_36
REMARK   11  A    between atoms: N5_22  and  N6_24
REMARK   12  A    between atoms: N6_24  and  C12_26
REMARK   13  A    between atoms: N9_32  and  N10_33
REMARK   14  A    between atoms: C15_39  and  C16_40
REMARK   15  A    between atoms: C16_40  and  N12_41
REMARK   16  A    between atoms: C17_45  and  O1_46
ROOT
HETATM    1  C11 UNL     1      35.664  39.825  44.424  1.00  0.00     0.174 C
ENDROOT
BRANCH   1   2
HETATM    2  N4  UNL     1      36.527  38.723  44.228  1.00  0.00    -0.332 N
ATOM      3  H4  UNL     1      36.914  38.584  43.295  1.00  0.00     0.168 HD
BRANCH   2   4
HETATM    4  C10 UNL     1      36.889  37.806  45.227  1.00  0.00     0.088 C
HETATM    5  S2  UNL     1      38.475  37.659  45.593  1.00  0.00    -0.065 SA
BRANCH   4   6
HETATM    6  C9  UNL     1      35.879  37.003  45.923  1.00  0.00     0.143 C
BRANCH   6   7
HETATM    7  S1  UNL     1      36.081  35.231  45.670  1.00  0.00    -0.162 SA
BRANCH   7   8
HETATM    8  C8  UNL     1      35.723  34.850  43.912  1.00  0.00     0.079 C
BRANCH   8   9
HETATM    9  C7  UNL     1      34.233  34.889  43.664  1.00  0.00     0.054 C
BRANCH   9  10
HETATM   10  C6  UNL     1      33.861  35.779  42.561  1.00  0.00     0.005 A
HETATM   11  C5  UNL     1      34.699  36.645  41.890  1.00  0.00     0.118 A
HETATM   12  N3  UNL     1      33.984  37.274  40.957  1.00  0.00    -0.301 N
HETATM   13  N2  UNL     1      32.725  36.874  40.973  1.00  0.00    -0.224 N
ATOM     14  H3  UNL     1      34.359  37.972  40.315  1.00  0.00     0.186 HD
HETATM   15  C4  UNL     1      31.657  37.220  40.233  1.00  0.00     0.124 A
HETATM   16  C18 UNL     1      32.610  35.945  41.958  1.00  0.00     0.137 A
HETATM   17  C3  UNL     1      30.457  36.607  40.504  1.00  0.00     0.074 A
HETATM   18  C2  UNL     1      30.351  35.668  41.503  1.00  0.00     0.010 A
HETATM   19  C1  UNL     1      29.022  35.031  41.758  1.00  0.00     0.068 C
HETATM   20  N13 UNL     1      31.438  35.353  42.214  1.00  0.00    -0.344 N
ATOM     21  H13 UNL     1      31.373  34.658  42.957  1.00  0.00     0.167 HD
BRANCH  15  22
HETATM   22  N1  UNL     1      31.777  38.105  39.298  1.00  0.00    -0.384 N
ATOM     23  H12 UNL     1      31.063  38.184  38.574  1.00  0.00     0.157 HD
ATOM     24  H11 UNL     1      32.574  38.740  39.256  1.00  0.00     0.157 HD
ENDBRANCH  15  22
ENDBRANCH   9  10
ENDBRANCH   8   9
ENDBRANCH   7   8
ENDBRANCH   6   7
ENDBRANCH   4   6
ENDBRANCH   2   4
ENDBRANCH   1   2
BRANCH   1  25
HETATM   25  N5  UNL     1      35.790  40.531  45.474  1.00  0.00    -0.268 N
ATOM     26  H5  UNL     1      34.959  40.670  46.048  1.00  0.00     0.189 HD
BRANCH  25  27
HETATM   27  N6  UNL     1      36.971  41.132  45.902  1.00  0.00    -0.127 N
ATOM     28  H6  UNL     1      37.845  40.784  45.506  1.00  0.00     0.206 HD
BRANCH  27  29
HETATM   29  C12 UNL     1      37.047  42.072  46.741  1.00  0.00     0.733 A
HETATM   30  N7  UNL     1      36.056  42.881  47.129  1.00  0.00    -0.128 N
HETATM   31  N8  UNL     1      36.492  43.762  48.031  1.00  0.00    -0.279 N
ATOM     32  H7  UNL     1      35.099  42.831  46.784  1.00  0.00     0.205 HD
HETATM   33  C13 UNL     1      37.788  43.500  48.213  1.00  0.00     0.241 A
ATOM     34  H8  UNL     1      35.944  44.490  48.489  1.00  0.00     0.188 HD
HETATM   35  N9  UNL     1      38.141  42.451  47.416  1.00  0.00    -0.085 N
BRANCH  35  36
HETATM   36  N10 UNL     1      39.440  41.937  47.382  1.00  0.00    -0.323 N
ATOM     37 2H10 UNL     1      39.722  41.124  47.930  1.00  0.00     0.178 HD
ATOM     38 1H10 UNL     1      40.256  42.251  46.857  1.00  0.00     0.178 HD
ENDBRANCH  35  36
ENDBRANCH  27  29
ENDBRANCH  25  27
ENDBRANCH   1  25
BRANCH   1  39
HETATM   39  C14 UNL     1      34.618  40.195  43.461  1.00  0.00     0.196 A
HETATM   40  N11 UNL     1      33.411  40.741  43.721  1.00  0.00    -0.332 N
HETATM   41  C15 UNL     1      32.772  40.918  42.553  1.00  0.00     0.095 A
ATOM     42  H11 UNL     1      33.048  40.978  44.644  1.00  0.00     0.168 HD
HETATM   43  C17 UNL     1      33.628  40.462  41.577  1.00  0.00     0.210 A
HETATM   44  O2  UNL     1      34.736  40.031  42.172  1.00  0.00    -0.265 OA
BRANCH  41  45
HETATM   45  C16 UNL     1      31.410  41.492  42.358  1.00  0.00     0.291 C
BRANCH  45  46
HETATM   46  N12 UNL     1      30.706  40.802  41.293  1.00  0.00    -0.074 N
ATOM     47 3H12 UNL     1      29.875  41.314  40.997  1.00  0.00     0.274 HD
ATOM     48 2H12 UNL     1      31.226  40.832  40.416  1.00  0.00     0.274 HD
ATOM     49 1H12 UNL     1      30.482  39.845  41.565  1.00  0.00     0.274 HD
ENDBRANCH  45  46
ENDBRANCH  41  45
BRANCH  43  50
HETATM   50  O1  UNL     1      33.415  40.435  40.213  1.00  0.00    -0.339 OA
ATOM     51  H1  UNL     1      33.962  40.035  39.548  1.00  0.00     0.220 HD
ENDBRANCH  43  50
ENDBRANCH   1  39
TORSDOF 16
ENDMDL