MODEL 2
REMARK VINA RESULT: -9.253432378      0.889      1.399
REMARK  10 active torsions:
REMARK  status: ('A' for Active; 'I' for Inactive)
REMARK    1  A    between atoms: C4_7  and  N3_8
REMARK    2  A    between atoms: N3_8  and  C5_10
REMARK    3  A    between atoms: C5_10  and  C7_12
REMARK    4  A    between atoms: C7_12  and  N4_13
REMARK    5  A    between atoms: C7_12  and  C8_17
REMARK    6  A    between atoms: C8_17  and  O1_19
REMARK    7  A    between atoms: O1_19  and  N5_20
REMARK    8  A    between atoms: N5_20  and  C10_21
REMARK    9  A    between atoms: C10_21  and  C11_22
REMARK   10  A    between atoms: N6_24  and  C13_25
ROOT
HETATM    1  C7  UNL     1      31.168  40.882  38.174  1.00  0.00     0.235 C
ENDROOT
BRANCH   1   2
HETATM    2  C5  UNL     1      30.577  39.528  37.819  1.00  0.00     0.112 C
HETATM    3  C6  UNL     1      29.082  39.648  38.280  1.00  0.00     0.034 C
BRANCH   2   4
HETATM    4  N3  UNL     1      31.174  38.567  38.639  1.00  0.00    -0.366 N
ATOM      5  H3  UNL     1      32.184  38.706  38.646  1.00  0.00     0.161 HD
BRANCH   4   6
HETATM    6  C4  UNL     1      30.886  37.605  39.358  1.00  0.00     0.157 A
HETATM    7  N2  UNL     1      30.719  36.350  38.819  1.00  0.00    -0.221 N
HETATM    8  N1  UNL     1      30.828  36.012  37.545  1.00  0.00    -0.301 N
HETATM    9  C23 UNL     1      30.413  35.271  39.541  1.00  0.00     0.141 A
HETATM   10  C3  UNL     1      30.585  34.678  37.443  1.00  0.00     0.122 A
ATOM     11  H1  UNL     1      31.055  36.642  36.775  1.00  0.00     0.186 HD
HETATM   12  C2  UNL     1      30.318  34.177  38.698  1.00  0.00     0.018 A
HETATM   13  C1  UNL     1      30.032  32.933  39.036  1.00  0.00     0.029 C
HETATM   14  N10 UNL     1      30.243  35.343  40.876  1.00  0.00    -0.324 N
HETATM   15  C22 UNL     1      30.392  36.536  41.462  1.00  0.00     0.152 A
ATOM     16  H10 UNL     1      30.009  34.514  41.423  1.00  0.00     0.169 HD
HETATM   17  C21 UNL     1      30.713  37.680  40.715  1.00  0.00     0.137 A
HETATM   18  N11 UNL     1      30.279  36.886  42.840  1.00  0.00    -0.267 N
HETATM   19  N13 UNL     1      30.762  38.705  41.676  1.00  0.00    -0.277 N
HETATM   20  N12 UNL     1      30.880  38.151  42.978  1.00  0.00    -0.020 NA
ATOM     21  H13 UNL     1      30.718  39.703  41.468  1.00  0.00     0.184 HD
ATOM     22  H11 UNL     1      29.848  36.330  43.578  1.00  0.00     0.186 HD
ENDBRANCH   4   6
ENDBRANCH   2   4
ENDBRANCH   1   2
BRANCH   1  23
HETATM   23  N4  UNL     1      30.986  41.852  37.071  1.00  0.00    -0.071 N
ATOM     24  H43 UNL     1      31.334  41.483  36.185  1.00  0.00     0.274 HD
ATOM     25  H42 UNL     1      30.003  41.955  36.820  1.00  0.00     0.274 HD
ATOM     26  H41 UNL     1      31.413  42.750  37.295  1.00  0.00     0.274 HD
ENDBRANCH   1  23
BRANCH   1  27
HETATM   27  C8  UNL     1      30.558  41.547  39.360  1.00  0.00     0.175 C
HETATM   28  C9  UNL     1      30.728  43.076  39.060  1.00  0.00     0.044 C
BRANCH  27  29
HETATM   29  O1  UNL     1      31.188  41.269  40.538  1.00  0.00    -0.279 OA
BRANCH  29  30
HETATM   30  N5  UNL     1      32.490  41.026  40.305  1.00  0.00    -0.095 NA
BRANCH  30  31
HETATM   31  C10 UNL     1      33.310  41.609  41.323  1.00  0.00     0.202 C
BRANCH  31  32
HETATM   32  C11 UNL     1      33.585  40.678  42.440  1.00  0.00     0.061 A
HETATM   33  C12 UNL     1      34.590  39.745  42.597  1.00  0.00     0.146 A
HETATM   34  N6  UNL     1      34.436  39.126  43.781  1.00  0.00    -0.251 N
HETATM   35  N8  UNL     1      33.368  39.662  44.339  1.00  0.00    -0.236 N
HETATM   36  N9  UNL     1      32.844  40.591  43.557  1.00  0.00    -0.287 N
ATOM     37  H8  UNL     1      32.996  39.396  45.251  1.00  0.00     0.209 HD
ATOM     38  H9  UNL     1      32.016  41.147  43.767  1.00  0.00     0.188 HD
BRANCH  34  39
HETATM   39  C13 UNL     1      35.231  38.103  44.355  1.00  0.00     0.065 A
HETATM   40  C14 UNL     1      36.082  38.311  45.420  1.00  0.00     0.033 A
HETATM   41  C15 UNL     1      36.846  37.295  45.959  1.00  0.00     0.011 A
HETATM   42  C16 UNL     1      36.785  36.018  45.445  1.00  0.00    -0.037 A
HETATM   43  C17 UNL     1      37.617  34.928  46.038  1.00  0.00     0.050 C
HETATM   44  C18 UNL     1      35.937  35.798  44.380  1.00  0.00     0.060 A
HETATM   45  N7  UNL     1      35.863  34.493  43.839  1.00  0.00    -0.101 NA
HETATM   46  C19 UNL     1      35.175  36.814  43.842  1.00  0.00    -0.009 A
HETATM   47  C20 UNL     1      34.253  36.583  42.684  1.00  0.00     0.052 C
ENDBRANCH  34  39
ENDBRANCH  31  32
ENDBRANCH  30  31
ENDBRANCH  29  30
ENDBRANCH  27  29
ENDBRANCH   1  27
TORSDOF 10
ENDMDL