MODEL 5
REMARK VINA RESULT: -7.583330948      2.234      3.134
REMARK  13 active torsions:
REMARK  status: ('A' for Active; 'I' for Inactive)
REMARK       I    between atoms: C2_2  and  N1_4
REMARK    1  A    between atoms: N1_4  and  C3_6
REMARK    2  A    between atoms: C3_6  and  O2_7
REMARK    3  A    between atoms: C3_6  and  N2_9
REMARK    4  A    between atoms: N2_9  and  C4_11
REMARK    5  A    between atoms: C4_11  and  C6_13
REMARK    6  A    between atoms: C6_13  and  C7_15
REMARK    7  A    between atoms: C8_18  and  C9_19
REMARK    8  A    between atoms: C9_19  and  S1_20
REMARK    9  A    between atoms: S1_20  and  C10_21
REMARK   10  A    between atoms: C10_21  and  N4_23
REMARK   11  A    between atoms: N4_23  and  C12_25
REMARK   12  A    between atoms: C13_28  and  N6_29
REMARK   13  A    between atoms: C14_34  and  N8_35
ROOT
HETATM    1  C9  UNL     1      31.204  35.799  41.761  1.00  0.00     0.139 C
ENDROOT
BRANCH   1   2
HETATM    2  C8  UNL     1      30.443  36.057  40.451  1.00  0.00     0.026 A
HETATM    3  N3  UNL     1      29.626  35.175  39.979  1.00  0.00    -0.350 N
HETATM    4  C7  UNL     1      28.963  35.415  38.848  1.00  0.00     0.122 A
ATOM      5  H3  UNL     1      29.487  34.294  40.472  1.00  0.00     0.166 HD
HETATM    6  S3  UNL     1      29.532  36.971  38.433  1.00  0.00    -0.079 SA
HETATM    7  C15 UNL     1      30.599  37.224  39.757  1.00  0.00     0.077 A
BRANCH   4   8
HETATM    8  C6  UNL     1      27.979  34.550  38.188  1.00  0.00     0.204 C
HETATM    9  O3  UNL     1      26.958  35.047  37.729  1.00  0.00    -0.288 OA
BRANCH   8  10
HETATM   10  C4  UNL     1      28.264  33.105  38.097  1.00  0.00     0.153 C
HETATM   11  C5  UNL     1      27.052  32.330  37.660  1.00  0.00     0.040 C
BRANCH  10  12
HETATM   12  N2  UNL     1      29.418  32.934  37.284  1.00  0.00    -0.370 N
ATOM     13  H2  UNL     1      29.386  33.152  36.288  1.00  0.00     0.158 HD
BRANCH  12  14
HETATM   14  C3  UNL     1      30.613  32.456  37.873  1.00  0.00     0.325 C
BRANCH  14  15
HETATM   15  N1  UNL     1      30.452  31.675  39.053  1.00  0.00    -0.319 N
HETATM   16  C2  UNL     1      30.543  30.264  38.982  1.00  0.00     0.216 C
HETATM   17  C1  UNL     1      30.382  29.421  40.185  1.00  0.00     0.117 C
HETATM   18  O1  UNL     1      30.765  29.686  37.886  1.00  0.00    -0.274 OA
ATOM     19  H1  UNL     1      30.271  32.132  39.946  1.00  0.00     0.166 HD
ENDBRANCH  14  15
BRANCH  14  20
HETATM   20  O2  UNL     1      31.548  33.474  38.115  1.00  0.00    -0.360 OA
ATOM     21  H2  UNL     1      32.394  33.211  37.770  1.00  0.00     0.214 HD
ENDBRANCH  14  20
ENDBRANCH  12  14
ENDBRANCH  10  12
ENDBRANCH   8  10
ENDBRANCH   4   8
ENDBRANCH   1   2
BRANCH   1  22
HETATM   22  S1  UNL     1      31.840  37.348  42.352  1.00  0.00    -0.094 SA
BRANCH  22  23
HETATM   23  C10 UNL     1      33.512  37.640  41.964  1.00  0.00     0.156 C
HETATM   24  S2  UNL     1      33.765  38.955  40.931  1.00  0.00    -0.052 SA
BRANCH  23  25
HETATM   25  N4  UNL     1      34.623  36.916  42.404  1.00  0.00    -0.171 N
HETATM   26  C11 UNL     1      35.153  35.681  41.905  1.00  0.00     0.177 C
BRANCH  25  27
HETATM   27  C12 UNL     1      35.343  37.473  43.527  1.00  0.00     0.703 A
HETATM   28  N5  UNL     1      35.127  38.749  43.835  1.00  0.00    -0.022 N
HETATM   29  C13 UNL     1      35.822  39.260  44.881  1.00  0.00     0.693 A
ATOM     30  H5  UNL     1      34.467  39.319  43.306  1.00  0.00     0.203 HD
HETATM   31  N7  UNL     1      36.686  38.489  45.560  1.00  0.00    -0.155 N
HETATM   32  C14 UNL     1      36.914  37.198  45.259  1.00  0.00     0.278 A
ATOM     33  H7  UNL     1      37.193  38.902  46.342  1.00  0.00     0.187 HD
HETATM   34  N9  UNL     1      36.202  36.706  44.202  1.00  0.00    -0.154 N
ATOM     35  H9  UNL     1      36.328  35.732  43.924  1.00  0.00     0.187 HD
BRANCH  29  36
HETATM   36  N6  UNL     1      35.597  40.498  45.165  1.00  0.00    -0.234 N
ATOM     37  H62 UNL     1      34.669  40.870  45.367  1.00  0.00     0.174 HD
ATOM     38  H61 UNL     1      36.411  41.113  45.181  1.00  0.00     0.174 HD
ENDBRANCH  29  36
BRANCH  32  39
HETATM   39  N8  UNL     1      37.834  36.395  45.980  1.00  0.00    -0.078 N
HETATM   40  O4  UNL     1      37.654  35.064  46.039  1.00  0.00    -0.529 OA
HETATM   41  O5  UNL     1      38.873  36.977  46.601  1.00  0.00    -0.529 OA
ENDBRANCH  32  39
ENDBRANCH  25  27
ENDBRANCH  23  25
ENDBRANCH  22  23
ENDBRANCH   1  22
TORSDOF 13
ENDMDL