MODEL 1
REMARK VINA RESULT: -8.856114154      0.000      0.000
REMARK  14 active torsions:
REMARK  status: ('A' for Active; 'I' for Inactive)
REMARK    1  A    between atoms: O1_1  and  C1_3
REMARK    2  A    between atoms: C1_3  and  N1_4
REMARK    3  A    between atoms: C1_3  and  C5_17
REMARK    4  A    between atoms: N1_4  and  C2_6
REMARK    5  A    between atoms: C3_13  and  C4_14
REMARK    6  A    between atoms: C4_14  and  O2_15
REMARK    7  A    between atoms: C8_20  and  N5_21
REMARK    8  A    between atoms: C9_25  and  C10_26
REMARK    9  A    between atoms: C14_35  and  N10_36
REMARK   10  A    between atoms: N10_36  and  C15_38
REMARK   11  A    between atoms: C15_38  and  C16_39
REMARK   12  A    between atoms: C16_39  and  O3_40
REMARK   13  A    between atoms: C16_39  and  C17_42
REMARK   14  A    between atoms: C17_42  and  O4_43
ROOT
HETATM    1  C5  UNL     1      35.150  35.628  43.608  1.00  0.00     0.084 A
HETATM    2  C6  UNL     1      35.107  36.992  43.616  1.00  0.00     0.051 A
HETATM    3  C7  UNL     1      35.952  37.720  44.461  1.00  0.00     0.043 A
HETATM    4  C8  UNL     1      35.923  39.105  44.486  1.00  0.00     0.171 A
HETATM    5  N9  UNL     1      36.753  39.758  45.313  1.00  0.00    -0.173 N
ATOM      6  H9  UNL     1      36.729  40.777  45.329  1.00  0.00     0.186 HD
HETATM    7  C14 UNL     1      37.628  39.108  46.134  1.00  0.00     0.680 A
HETATM    8  N11 UNL     1      37.674  37.766  46.126  1.00  0.00    -0.190 N
ATOM      9  H11 UNL     1      38.323  37.265  46.735  1.00  0.00     0.184 HD
HETATM   10  C18 UNL     1      36.844  37.090  45.299  1.00  0.00     0.078 A
HETATM   11  C19 UNL     1      36.865  35.712  45.265  1.00  0.00     0.119 A
HETATM   12  N12 UNL     1      36.051  35.026  44.455  1.00  0.00    -0.360 N
ATOM     13  H12 UNL     1      36.102  34.007  44.466  1.00  0.00     0.165 HD
ENDROOT
BRANCH   1  14
HETATM   14  C1  UNL     1      34.295  34.765  42.818  1.00  0.00     0.169 C
BRANCH  14  15
HETATM   15  O1  UNL     1      34.480  33.472  42.967  1.00  0.00    -0.344 OA
ATOM     16  H1  UNL     1      34.833  33.224  43.814  1.00  0.00     0.219 HD
ENDBRANCH  14  15
BRANCH  14  17
HETATM   17  N1  UNL     1      33.296  35.095  41.919  1.00  0.00    -0.319 N
ATOM     18  H1  UNL     1      33.446  34.755  40.969  1.00  0.00     0.169 HD
BRANCH  17  19
HETATM   19  C2  UNL     1      32.103  35.827  42.103  1.00  0.00     0.149 A
HETATM   20  N2  UNL     1      31.081  35.662  42.946  1.00  0.00    -0.269 N
HETATM   21  N3  UNL     1      30.130  36.554  42.733  1.00  0.00    -0.241 N
ATOM     22  H2  UNL     1      31.040  34.938  43.664  1.00  0.00     0.190 HD
HETATM   23  N4  UNL     1      30.511  37.328  41.739  1.00  0.00    -0.285 N
ATOM     24  H3  UNL     1      29.253  36.629  43.249  1.00  0.00     0.208 HD
HETATM   25  C3  UNL     1      31.716  36.923  41.316  1.00  0.00     0.096 A
ATOM     26  H4  UNL     1      29.977  38.108  41.354  1.00  0.00     0.188 HD
BRANCH  25  27
HETATM   27  C4  UNL     1      32.531  37.504  40.219  1.00  0.00     0.226 C
BRANCH  27  28
HETATM   28  O2  UNL     1      33.857  37.675  40.606  1.00  0.00    -0.395 OA
ATOM     29  H2  UNL     1      34.254  38.418  40.167  1.00  0.00     0.209 HD
ENDBRANCH  27  28
ENDBRANCH  25  27
ENDBRANCH  17  19
ENDBRANCH  14  17
ENDBRANCH   1  14
BRANCH   4  30
HETATM   30  N5  UNL     1      35.026  39.817  43.645  1.00  0.00    -0.160 N
HETATM   31  N6  UNL     1      35.046  39.721  42.326  1.00  0.00     0.004 NA
HETATM   32  N7  UNL     1      34.093  40.502  41.845  1.00  0.00    -0.266 N
HETATM   33  C9  UNL     1      33.454  41.105  42.851  1.00  0.00     0.145 A
ATOM     34  H7  UNL     1      33.879  40.626  40.855  1.00  0.00     0.186 HD
HETATM   35  N8  UNL     1      34.056  40.660  43.962  1.00  0.00    -0.262 N
ATOM     36  H8  UNL     1      33.803  40.931  44.913  1.00  0.00     0.190 HD
BRANCH  33  37
HETATM   37  C10 UNL     1      32.317  42.066  42.764  1.00  0.00     0.017 A
HETATM   38  C11 UNL     1      32.348  43.303  43.305  1.00  0.00     0.023 A
HETATM   39  C12 UNL     1      31.236  44.084  43.152  1.00  0.00     0.050 A
HETATM   40  S1  UNL     1      30.182  43.089  42.267  1.00  0.00    -0.113 SA
HETATM   41  C13 UNL     1      31.165  41.709  42.108  1.00  0.00     0.065 A
ENDBRANCH  33  37
ENDBRANCH   4  30
BRANCH   7  42
HETATM   42  N10 UNL     1      38.378  39.836  46.887  1.00  0.00    -0.223 N
ATOM     43  H10 UNL     1      39.377  39.639  46.945  1.00  0.00     0.177 HD
BRANCH  42  44
HETATM   44  C15 UNL     1      37.822  40.924  47.649  1.00  0.00     0.172 C
BRANCH  44  45
HETATM   45  C16 UNL     1      38.695  42.174  47.546  1.00  0.00     0.160 C
BRANCH  45  46
HETATM   46  O3  UNL     1      39.960  41.896  47.076  1.00  0.00    -0.392 OA
ATOM     47  H3  UNL     1      40.598  42.546  47.345  1.00  0.00     0.210 HD
ENDBRANCH  45  46
BRANCH  45  48
HETATM   48  C17 UNL     1      38.017  43.059  46.495  1.00  0.00     0.197 C
BRANCH  48  49
HETATM   49  O4  UNL     1      36.818  42.509  46.064  1.00  0.00    -0.398 OA
ATOM     50  H4  UNL     1      36.134  43.167  46.006  1.00  0.00     0.209 HD
ENDBRANCH  48  49
ENDBRANCH  45  48
ENDBRANCH  44  45
ENDBRANCH  42  44
ENDBRANCH   7  42
TORSDOF 14
ENDMDL