MODEL 2
REMARK VINA RESULT: -9.242744383      4.651      7.206
REMARK  9 active torsions:
REMARK  status: ('A' for Active; 'I' for Inactive)
REMARK    1  A    between atoms: C2_2  and  N1_3
REMARK    2  A    between atoms: C4_5  and  C5_6
REMARK    3  A    between atoms: C8_14  and  C9_15
REMARK    4  A    between atoms: C10_16  and  N4_17
REMARK    5  A    between atoms: C11_24  and  C12_25
REMARK    6  A    between atoms: C12_25  and  C13_26
REMARK    7  A    between atoms: C12_25  and  N9_30
REMARK    8  A    between atoms: C13_26  and  C14_27
REMARK       I    between atoms: N9_30  and  C15_32
REMARK    9  A    between atoms: C16_37  and  N11_38
ROOT
HETATM    1  C9  UNL     1      28.409  33.950  37.189  1.00  0.00     0.080 A
HETATM    2  C10 UNL     1      27.363  34.222  36.371  1.00  0.00     0.148 A
HETATM    3  N10 UNL     1      27.114  35.446  35.799  1.00  0.00    -0.325 N
ATOM      4  H10 UNL     1      26.306  35.589  35.192  1.00  0.00     0.169 HD
HETATM    5  C16 UNL     1      27.961  36.438  36.063  1.00  0.00     0.123 A
HETATM    6  C17 UNL     1      29.052  36.259  36.878  1.00  0.00     0.113 A
HETATM    7  C18 UNL     1      29.970  37.358  37.154  1.00  0.00     0.105 C
HETATM    8  N12 UNL     1      30.706  38.225  37.362  1.00  0.00    -0.191 NA
HETATM    9  C19 UNL     1      29.289  35.055  37.437  1.00  0.00     0.088 A
HETATM   10  N13 UNL     1      30.407  34.820  38.301  1.00  0.00    -0.100 NA
ENDROOT
BRANCH   5  11
HETATM   11  N11 UNL     1      27.753  37.601  35.539  1.00  0.00    -0.384 N
ATOM     12 2H11 UNL     1      27.053  37.696  34.803  1.00  0.00     0.157 HD
ATOM     13 1H11 UNL     1      28.293  38.401  35.870  1.00  0.00     0.157 HD
ENDBRANCH   5  11
BRANCH   1  14
HETATM   14  C8  UNL     1      28.699  32.727  37.900  1.00  0.00     0.123 A
HETATM   15  N3  UNL     1      28.353  32.708  39.221  1.00  0.00    -0.328 N
HETATM   16  C7  UNL     1      28.620  31.681  40.043  1.00  0.00     0.102 A
ATOM     17  H3  UNL     1      27.866  33.518  39.605  1.00  0.00     0.169 HD
HETATM   18  C6  UNL     1      29.284  30.576  39.524  1.00  0.00     0.078 A
HETATM   19  N2  UNL     1      28.291  31.672  41.285  1.00  0.00    -0.385 N
HETATM   20  C5  UNL     1      29.637  30.574  38.214  1.00  0.00     0.050 A
HETATM   21  N14 UNL     1      29.319  31.673  37.451  1.00  0.00    -0.341 N
ATOM     22  H14 UNL     1      29.588  31.662  36.467  1.00  0.00     0.167 HD
ATOM     23  H22 UNL     1      28.494  30.891  41.910  1.00  0.00     0.157 HD
ATOM     24  H21 UNL     1      27.804  32.482  41.667  1.00  0.00     0.157 HD
BRANCH  20  25
HETATM   25  C4  UNL     1      30.336  29.437  37.623  1.00  0.00     0.025 A
HETATM   26  C3  UNL     1      30.505  29.149  36.287  1.00  0.00     0.125 A
HETATM   27  N1  UNL     1      31.213  28.004  36.158  1.00  0.00    -0.303 N
HETATM   28  N15 UNL     1      31.482  27.584  37.365  1.00  0.00    -0.309 N
HETATM   29  C20 UNL     1      30.976  28.411  38.296  1.00  0.00     0.122 A
ATOM     30  H15 UNL     1      32.008  26.736  37.575  1.00  0.00     0.186 HD
BRANCH  27  31
HETATM   31  C2  UNL     1      31.603  27.357  34.921  1.00  0.00     0.143 C
HETATM   32  C1  UNL     1      30.495  27.402  33.908  1.00  0.00     0.028 C
ENDBRANCH  27  31
ENDBRANCH  20  25
ENDBRANCH   1  14
BRANCH   2  33
HETATM   33  N4  UNL     1      26.430  33.223  35.951  1.00  0.00    -0.207 N
HETATM   34  N5  UNL     1      25.172  33.057  36.376  1.00  0.00    -0.218 N
HETATM   35  N6  UNL     1      24.619  32.096  35.707  1.00  0.00    -0.226 N
ATOM     36  H5  UNL     1      24.721  33.602  37.111  1.00  0.00     0.210 HD
HETATM   37  N7  UNL     1      25.506  31.636  34.849  1.00  0.00    -0.270 N
ATOM     38  H6  UNL     1      23.665  31.756  35.824  1.00  0.00     0.210 HD
HETATM   39  C11 UNL     1      26.676  32.332  34.975  1.00  0.00     0.146 A
ATOM     40  H7  UNL     1      25.344  30.874  34.190  1.00  0.00     0.190 HD
BRANCH  39  41
HETATM   41  C12 UNL     1      27.838  32.055  34.132  1.00  0.00     0.167 C
BRANCH  41  42
HETATM   42  C13 UNL     1      28.167  30.603  33.913  1.00  0.00     0.132 C
BRANCH  42  43
HETATM   43  C14 UNL     1      27.760  30.128  32.570  1.00  0.00     0.233 C
HETATM   44  N8  UNL     1      28.729  29.910  31.521  1.00  0.00    -0.062 NA
HETATM   45  O1  UNL     1      26.573  29.878  32.227  1.00  0.00    -0.277 OA
ENDBRANCH  42  43
ENDBRANCH  41  42
BRANCH  41  46
HETATM   46  N9  UNL     1      27.648  32.596  32.771  1.00  0.00    -0.323 N
HETATM   47  C15 UNL     1      28.110  33.874  32.393  1.00  0.00     0.284 C
HETATM   48  O2  UNL     1      28.705  34.592  33.228  1.00  0.00    -0.630 OA
HETATM   49  O3  UNL     1      27.924  34.364  31.115  1.00  0.00    -0.630 OA
ATOM     50  H9  UNL     1      27.165  32.024  32.077  1.00  0.00     0.166 HD
ENDBRANCH  41  46
ENDBRANCH  39  41
ENDBRANCH   2  33
TORSDOF 9
ENDMDL