MODEL 4
REMARK VINA RESULT: -5.688529607      6.269     10.803
REMARK  7 active torsions:
REMARK  status: ('A' for Active; 'I' for Inactive)
REMARK    1  A    between atoms: C2_2  and  C3_3
REMARK    2  A    between atoms: C3_3  and  O1_4
REMARK    3  A    between atoms: O1_4  and  C4_5
REMARK    4  A    between atoms: C11_12  and  O2_13
REMARK    5  A    between atoms: C16_19  and  O3_20
REMARK    6  A    between atoms: O3_20  and  C17_21
REMARK    7  A    between atoms: C17_21  and  C18_23
ROOT
HETATM    1  C4  UNL     1      48.034  24.212  32.509  1.00  0.00     0.156 C
HETATM    2  C5  UNL     1      48.849  24.920  31.523  1.00  0.00     0.024 C
HETATM    3  C6  UNL     1      49.336  26.235  32.072  1.00  0.00     0.008 C
HETATM    4  C7  UNL     1      50.409  26.849  31.184  1.00  0.00     0.000 C
HETATM    5  C8  UNL     1      51.664  26.046  31.217  1.00  0.00     0.001 C
HETATM    6  C9  UNL     1      51.304  24.656  31.700  1.00  0.00     0.008 C
HETATM    7  C10 UNL     1      50.032  24.186  30.974  1.00  0.00     0.027 C
HETATM    8  C11 UNL     1      50.007  22.726  31.061  1.00  0.00     0.072 C
HETATM    9  C12 UNL     1      50.555  22.103  32.338  1.00  0.00     0.040 C
HETATM   10  C13 UNL     1      49.520  21.017  32.120  1.00  0.00     0.018 C
HETATM   11  C14 UNL     1      48.726  22.065  31.330  1.00  0.00     0.017 C
HETATM   12  C15 UNL     1      48.177  21.373  30.085  1.00  0.00     0.021 C
HETATM   13  C16 UNL     1      47.721  22.765  32.131  1.00  0.00     0.172 C
ENDROOT
BRANCH  13  14
HETATM   14  O3  UNL     1      46.469  22.695  31.437  1.00  0.00    -0.312 OA
BRANCH  14  15
HETATM   15  C17 UNL     1      45.348  22.075  31.982  1.00  0.00     0.267 C
HETATM   16  O4  UNL     1      45.515  21.516  33.094  1.00  0.00    -0.264 OA
BRANCH  15  17
HETATM   17  C18 UNL     1      44.033  22.041  31.350  1.00  0.00     0.037 C
HETATM   18  C19 UNL     1      43.020  21.262  32.162  1.00  0.00     0.025 C
HETATM   19  C20 UNL     1      44.151  21.462  29.959  1.00  0.00     0.025 C
HETATM   20  C21 UNL     1      43.569  23.495  31.195  1.00  0.00     0.025 C
ENDBRANCH  15  17
ENDBRANCH  14  15
ENDBRANCH  13  14
BRANCH   1  21
HETATM   21  O1  UNL     1      46.781  24.803  32.610  1.00  0.00    -0.379 OA
BRANCH  21  22
HETATM   22  C3  UNL     1      46.401  25.253  33.830  1.00  0.00     0.195 C
BRANCH  22  23
HETATM   23  C2  UNL     1      46.142  26.697  33.977  1.00  0.00    -0.011 C
HETATM   24  C1  UNL     1      45.265  27.348  33.227  1.00  0.00     0.009 C
ENDBRANCH  22  23
ENDBRANCH  21  22
ENDBRANCH   1  21
BRANCH   8  25
HETATM   25  O2  UNL     1      50.670  22.110  29.974  1.00  0.00    -0.389 OA
ATOM     26  H2  UNL     1      51.390  21.557  30.255  1.00  0.00     0.210 HD
ENDBRANCH   8  25
TORSDOF 7
ENDMDL