MODEL 4
REMARK VINA RESULT: -8.230332271      3.818     10.342
REMARK  5 active torsions:
REMARK  status: ('A' for Active; 'I' for Inactive)
REMARK    1  A    between atoms: C2_4  and  S1_5
REMARK    2  A    between atoms: S1_5  and  C3_6
REMARK    3  A    between atoms: C10_13  and  N2_14
REMARK    4  A    between atoms: N2_14  and  C11_16
REMARK    5  A    between atoms: C11_16  and  C12_17
ROOT
HETATM    1  C1  UNL     1      47.648  33.674  32.719  1.00  0.00     0.182 A
HETATM    2  N1  UNL     1      48.252  34.307  31.694  1.00  0.00    -0.347 N
ATOM      3  H1  UNL     1      49.152  34.757  31.859  1.00  0.00     0.167 HD
HETATM    4  C2  UNL     1      47.720  34.369  30.470  1.00  0.00     0.074 A
HETATM    5  C9  UNL     1      46.500  33.750  30.272  1.00  0.00     0.085 A
HETATM    6  C10 UNL     1      45.846  33.091  31.291  1.00  0.00     0.104 A
HETATM    7  N3  UNL     1      46.449  33.077  32.487  1.00  0.00    -0.339 N
ATOM      8  H3  UNL     1      45.988  32.597  33.259  1.00  0.00     0.168 HD
ENDROOT
BRANCH   6   9
HETATM    9  N2  UNL     1      44.718  32.504  31.155  1.00  0.00    -0.374 N
ATOM     10  H2  UNL     1      44.137  32.457  31.992  1.00  0.00     0.161 HD
BRANCH   9  11
HETATM   11  C11 UNL     1      44.172  31.910  29.989  1.00  0.00     0.153 C
BRANCH  11  12
HETATM   12  C12 UNL     1      43.253  30.769  30.374  1.00  0.00     0.140 C
HETATM   13  C13 UNL     1      41.843  31.007  29.859  1.00  0.00     0.041 C
HETATM   14  C14 UNL     1      41.049  30.148  30.816  1.00  0.00     0.017 C
HETATM   15  C15 UNL     1      39.670  30.717  31.068  1.00  0.00     0.007 C
HETATM   16  C19 UNL     1      41.902  30.128  32.035  1.00  0.00     0.126 C
HETATM   17  C16 UNL     1      39.162  30.088  32.357  1.00  0.00     0.001 C
HETATM   18  C17 UNL     1      39.931  30.691  33.498  1.00  0.00     0.002 C
HETATM   19  C18 UNL     1      41.354  30.987  33.172  1.00  0.00     0.032 C
HETATM   20  O1  UNL     1      43.142  30.605  31.728  1.00  0.00    -0.379 OA
ENDBRANCH  11  12
ENDBRANCH   9  11
ENDBRANCH   6   9
BRANCH   4  21
HETATM   21  S1  UNL     1      48.522  35.204  29.122  1.00  0.00    -0.107 SA
BRANCH  21  22
HETATM   22  C3  UNL     1      50.309  34.896  29.091  1.00  0.00     0.054 C
HETATM   23  C4  UNL     1      50.884  35.643  27.916  1.00  0.00     0.015 C
HETATM   24  C5  UNL     1      52.219  35.110  27.479  1.00  0.00     0.001 C
HETATM   25  C6  UNL     1      52.209  33.614  27.275  1.00  0.00     0.000 C
HETATM   26  C7  UNL     1      50.856  33.015  27.616  1.00  0.00     0.001 C
HETATM   27  C8  UNL     1      50.538  33.424  29.030  1.00  0.00     0.015 C
ENDBRANCH  21  22
ENDBRANCH   4  21
TORSDOF 5
ENDMDL