MODEL 5
REMARK VINA RESULT: -8.139535213      2.969      4.833
REMARK  6 active torsions:
REMARK  status: ('A' for Active; 'I' for Inactive)
REMARK    1  A    between atoms: C2_2  and  C4_4
REMARK    2  A    between atoms: C4_4  and  C5_5
REMARK    3  A    between atoms: C5_5  and  C6_6
REMARK    4  A    between atoms: C6_6  and  O2_8
REMARK    5  A    between atoms: O2_8  and  C7_9
REMARK    6  A    between atoms: C18_20  and  O3_21
ROOT
HETATM    1  C7  UNL     1      42.597  32.913  31.863  1.00  0.00     0.269 C
HETATM    2  C8  UNL     1      42.792  33.553  33.219  1.00  0.00     0.061 C
HETATM    3  C9  UNL     1      43.914  34.528  33.237  1.00  0.00     0.006 C
HETATM    4  C10 UNL     1      44.791  34.537  32.024  1.00  0.00     0.012 C
HETATM    5  C11 UNL     1      45.497  33.275  31.723  1.00  0.00    -0.014 C
HETATM    6  C12 UNL     1      46.011  32.706  33.038  1.00  0.00     0.018 C
HETATM    7  C13 UNL     1      44.678  32.203  31.077  1.00  0.00     0.133 C
HETATM    8  C14 UNL     1      44.418  32.390  29.621  1.00  0.00     0.033 C
HETATM    9  C15 UNL     1      45.508  32.983  28.828  1.00  0.00     0.007 C
HETATM   10  C16 UNL     1      46.305  34.054  29.539  1.00  0.00    -0.007 C
HETATM   11  C17 UNL     1      47.432  34.416  28.624  1.00  0.00     0.036 C
HETATM   12  C18 UNL     1      48.691  34.828  29.331  1.00  0.00     0.118 C
HETATM   13  C19 UNL     1      48.469  35.299  30.729  1.00  0.00     0.032 C
HETATM   14  C20 UNL     1      47.828  34.204  31.543  1.00  0.00     0.008 C
HETATM   15  C21 UNL     1      46.730  33.486  30.856  1.00  0.00     0.000 C
HETATM   16  O4  UNL     1      43.502  31.916  31.716  1.00  0.00    -0.355 OA
ENDROOT
BRANCH   1  17
HETATM   17  O2  UNL     1      41.296  32.422  31.668  1.00  0.00    -0.290 OA
BRANCH  17  18
HETATM   18  C6  UNL     1      40.909  31.539  30.710  1.00  0.00     0.261 C
HETATM   19  O1  UNL     1      40.667  31.985  29.566  1.00  0.00    -0.265 OA
BRANCH  18  20
HETATM   20  C5  UNL     1      40.783  30.092  31.041  1.00  0.00     0.111 C
BRANCH  20  21
HETATM   21  C4  UNL     1      41.921  29.299  30.430  1.00  0.00     0.013 C
BRANCH  21  22
HETATM   22  C2  UNL     1      42.796  28.804  31.573  1.00  0.00    -0.022 C
HETATM   23  C1  UNL     1      43.220  27.381  31.253  1.00  0.00     0.009 C
HETATM   24  C3  UNL     1      42.046  28.870  32.877  1.00  0.00     0.009 C
ENDBRANCH  21  22
ENDBRANCH  20  21
ENDBRANCH  18  20
ENDBRANCH  17  18
ENDBRANCH   1  17
BRANCH  12  25
HETATM   25  O3  UNL     1      49.660  33.816  29.334  1.00  0.00    -0.396 OA
ATOM     26  H3  UNL     1      50.536  34.151  29.485  1.00  0.00     0.210 HD
ENDBRANCH  12  25
TORSDOF 6
ENDMDL