MODEL 2
REMARK VINA RESULT: -5.099853126      1.651      4.847
REMARK  6 active torsions:
REMARK  status: ('A' for Active; 'I' for Inactive)
REMARK    1  A    between atoms: C2_2  and  C3_3
REMARK    2  A    between atoms: C3_3  and  C4_4
REMARK    3  A    between atoms: C8_8  and  O1_9
REMARK    4  A    between atoms: C9_11  and  C10_12
REMARK    5  A    between atoms: C10_12  and  C11_13
REMARK    6  A    between atoms: C19_23  and  C20_24
ROOT
HETATM    1  C4  UNL     1      51.910  22.845  30.940  1.00  0.00     0.061 C
HETATM    2  C5  UNL     1      52.246  21.761  29.896  1.00  0.00     0.046 C
HETATM    3  C6  UNL     1      52.908  23.951  30.660  1.00  0.00     0.040 C
HETATM    4  C7  UNL     1      52.994  25.000  31.720  1.00  0.00     0.035 C
HETATM    5  C8  UNL     1      52.554  26.360  31.226  1.00  0.00     0.122 C
HETATM    6  C9  UNL     1      51.121  26.508  30.954  1.00  0.00     0.017 C
HETATM    7  C13 UNL     1      50.171  25.936  31.945  1.00  0.00     0.040 C
HETATM    8  C14 UNL     1      48.894  25.499  31.320  1.00  0.00     0.139 C
HETATM    9  O2  UNL     1      47.766  26.138  31.910  1.00  0.00    -0.315 OA
HETATM   10  C15 UNL     1      46.836  25.246  32.372  1.00  0.00     0.263 C
HETATM   11  O3  UNL     1      45.660  25.491  32.679  1.00  0.00    -0.265 OA
HETATM   12  C16 UNL     1      47.487  23.926  32.442  1.00  0.00     0.090 C
HETATM   13  C17 UNL     1      47.943  23.666  33.812  1.00  0.00     0.021 C
HETATM   14  C18 UNL     1      48.547  24.066  31.387  1.00  0.00     0.057 C
HETATM   15  C19 UNL     1      49.640  23.066  31.478  1.00  0.00     0.129 C
HETATM   16  O4  UNL     1      50.677  23.323  30.664  1.00  0.00    -0.374 OA
ENDROOT
BRANCH   1  17
HETATM   17  C3  UNL     1      52.181  22.265  32.257  1.00  0.00     0.064 C
BRANCH  17  18
HETATM   18  C2  UNL     1      53.288  21.245  32.097  1.00  0.00    -0.034 C
HETATM   19  C1  UNL     1      54.314  21.186  32.928  1.00  0.00     0.007 C
ENDBRANCH  17  18
ENDBRANCH   1  17
BRANCH  15  20
HETATM   20  C20 UNL     1      49.015  21.730  31.042  1.00  0.00     0.028 C
HETATM   21  C21 UNL     1      49.178  20.707  32.143  1.00  0.00     0.007 C
ENDBRANCH  15  20
BRANCH   5  22
HETATM   22  O1  UNL     1      53.009  27.364  32.079  1.00  0.00    -0.395 OA
ATOM     23  H1  UNL     1      53.291  28.124  31.583  1.00  0.00     0.210 HD
ENDBRANCH   5  22
BRANCH   6  24
HETATM   24  C10 UNL     1      50.835  28.013  30.818  1.00  0.00     0.007 C
BRANCH  24  25
HETATM   25  C11 UNL     1      51.079  28.445  29.390  1.00  0.00    -0.004 C
HETATM   26  C12 UNL     1      51.904  29.701  29.395  1.00  0.00     0.005 C
ENDBRANCH  24  25
ENDBRANCH   6  24
TORSDOF 6
ENDMDL