MODEL 1
REMARK VINA RESULT: -6.866756129      0.000      0.000
REMARK  6 active torsions:
REMARK  status: ('A' for Active; 'I' for Inactive)
REMARK    1  A    between atoms: C2_2  and  C3_3
REMARK    2  A    between atoms: C3_3  and  C4_4
REMARK    3  A    between atoms: C4_4  and  O1_5
REMARK    4  A    between atoms: C9_11  and  C10_12
REMARK    5  A    between atoms: C10_12  and  O3_14
REMARK    6  A    between atoms: O3_14  and  C11_15
ROOT
HETATM    1  C10 UNL     1      43.082  33.197  32.318  1.00  0.00     0.266 C
HETATM    2  O2  UNL     1      42.496  34.170  31.840  1.00  0.00    -0.265 OA
ENDROOT
BRANCH   1   3
HETATM    3  C9  UNL     1      44.417  33.151  32.878  1.00  0.00     0.123 C
HETATM    4  C4  UNL     1      45.572  33.155  31.948  1.00  0.00     0.071 C
HETATM    5  C5  UNL     1      45.849  34.608  31.623  1.00  0.00     0.039 C
HETATM    6  C6  UNL     1      45.050  35.398  32.639  1.00  0.00     0.008 C
HETATM    7  C7  UNL     1      44.740  34.400  33.705  1.00  0.00    -0.002 C
HETATM    8  C8  UNL     1      43.646  34.792  34.634  1.00  0.00     0.011 C
BRANCH   4   9
HETATM    9  C3  UNL     1      45.495  32.357  30.711  1.00  0.00     0.038 C
BRANCH   9  10
HETATM   10  C2  UNL     1      45.792  33.349  29.564  1.00  0.00    -0.002 C
HETATM   11  C1  UNL     1      44.715  33.318  28.534  1.00  0.00     0.005 C
ENDBRANCH   9  10
ENDBRANCH   4   9
BRANCH   4  12
HETATM   12  O1  UNL     1      46.729  32.691  32.645  1.00  0.00    -0.389 OA
ATOM     13  H1  UNL     1      46.439  32.481  33.524  1.00  0.00     0.210 HD
ENDBRANCH   4  12
ENDBRANCH   1   3
BRANCH   1  14
HETATM   14  O3  UNL     1      42.344  31.995  32.308  1.00  0.00    -0.315 OA
BRANCH  14  15
HETATM   15  C11 UNL     1      40.951  31.968  32.056  1.00  0.00     0.140 C
HETATM   16  C12 UNL     1      40.176  31.489  33.216  1.00  0.00     0.045 C
HETATM   17  C13 UNL     1      39.756  30.058  33.207  1.00  0.00     0.058 C
HETATM   18  C14 UNL     1      39.372  29.535  31.848  1.00  0.00     0.017 C
HETATM   19  C18 UNL     1      40.826  29.161  33.730  1.00  0.00     0.131 C
HETATM   20  C15 UNL     1      40.564  29.748  30.949  1.00  0.00    -0.003 C
HETATM   21  C16 UNL     1      41.765  29.013  31.436  1.00  0.00     0.013 C
HETATM   22  C19 UNL     1      40.755  31.217  30.774  1.00  0.00    -0.017 C
HETATM   23  C17 UNL     1      41.506  28.273  32.743  1.00  0.00     0.079 C
HETATM   24  C20 UNL     1      41.963  31.396  29.851  1.00  0.00     0.018 C
HETATM   25  C21 UNL     1      39.567  31.764  30.001  1.00  0.00     0.018 C
HETATM   26  O4  UNL     1      41.166  29.112  34.879  1.00  0.00    -0.298 OA
ENDBRANCH  14  15
ENDBRANCH   1  14
TORSDOF 6
ENDMDL