MODEL 2
REMARK VINA RESULT: -6.440725392      1.982      6.737
REMARK  6 active torsions:
REMARK  status: ('A' for Active; 'I' for Inactive)
REMARK    1  A    between atoms: C9_9  and  C10_10
REMARK    2  A    between atoms: C10_10  and  C12_12
REMARK    3  A    between atoms: C12_12  and  O2_14
REMARK    4  A    between atoms: O2_14  and  C13_15
REMARK    5  A    between atoms: C13_15  and  C14_16
REMARK    6  A    between atoms: C21_24  and  O4_25
ROOT
HETATM    1  C1  UNL     1      38.197  29.364  31.451  1.00  0.00     0.046 C
HETATM    2  C2  UNL     1      39.345  29.909  32.233  1.00  0.00    -0.051 C
HETATM    3  C3  UNL     1      40.221  30.671  31.624  1.00  0.00    -0.051 C
HETATM    4  C4  UNL     1      40.469  31.216  30.297  1.00  0.00    -0.019 C
HETATM    5  C5  UNL     1      39.797  32.561  30.088  1.00  0.00     0.020 C
HETATM    6  C6  UNL     1      40.058  30.336  29.144  1.00  0.00     0.020 C
HETATM    7  C7  UNL     1      42.008  31.433  30.261  1.00  0.00    -0.000 C
HETATM    8  C8  UNL     1      42.714  30.239  29.734  1.00  0.00     0.011 C
HETATM    9  C9  UNL     1      42.345  31.825  31.676  1.00  0.00     0.023 C
HETATM   10  C17 UNL     1      41.349  31.166  32.543  1.00  0.00     0.046 C
HETATM   11  C18 UNL     1      40.646  32.158  33.460  1.00  0.00     0.029 C
HETATM   12  C19 UNL     1      41.720  29.918  33.220  1.00  0.00     0.142 C
HETATM   13  O3  UNL     1      42.709  29.315  32.976  1.00  0.00    -0.297 OA
HETATM   14  C20 UNL     1      40.781  29.419  34.248  1.00  0.00     0.115 C
HETATM   15  C21 UNL     1      39.386  29.501  33.666  1.00  0.00     0.154 C
ENDROOT
BRANCH   9  16
HETATM   16  C10 UNL     1      43.774  31.763  32.039  1.00  0.00     0.087 C
HETATM   17  C11 UNL     1      44.550  31.677  30.695  1.00  0.00     0.021 C
BRANCH  16  18
HETATM   18  C12 UNL     1      44.215  33.091  32.588  1.00  0.00     0.263 C
HETATM   19  O1  UNL     1      43.411  33.766  33.255  1.00  0.00    -0.265 OA
BRANCH  18  20
HETATM   20  O2  UNL     1      45.475  33.588  32.384  1.00  0.00    -0.321 OA
BRANCH  20  21
HETATM   21  C13 UNL     1      45.831  34.891  32.008  1.00  0.00     0.182 C
BRANCH  21  22
HETATM   22  C14 UNL     1      47.162  34.916  31.344  1.00  0.00     0.002 C
HETATM   23  C15 UNL     1      47.119  34.213  29.993  1.00  0.00     0.011 C
HETATM   24  C16 UNL     1      48.245  34.246  32.162  1.00  0.00     0.011 C
ENDBRANCH  21  22
ENDBRANCH  20  21
ENDBRANCH  18  20
ENDBRANCH  16  18
ENDBRANCH   9  16
BRANCH  15  25
HETATM   25  O4  UNL     1      38.872  28.187  33.761  1.00  0.00    -0.391 OA
ATOM     26  H4  UNL     1      39.327  27.745  34.469  1.00  0.00     0.210 HD
ENDBRANCH  15  25
TORSDOF 6
ENDMDL