MODEL 5
REMARK VINA RESULT: -6.475635128      2.274      7.025
REMARK  5 active torsions:
REMARK  status: ('A' for Active; 'I' for Inactive)
REMARK    1  A    between atoms: O1_2  and  C2_3
REMARK    2  A    between atoms: C13_14  and  O2_15
REMARK    3  A    between atoms: O2_15  and  C14_16
REMARK    4  A    between atoms: C14_16  and  C15_18
REMARK    5  A    between atoms: C15_18  and  C16_19
ROOT
HETATM    1  C2  UNL     1      43.997  32.478  30.951  1.00  0.00     0.091 C
HETATM    2  C3  UNL     1      45.321  32.012  31.488  1.00  0.00     0.043 C
HETATM    3  C4  UNL     1      45.903  33.026  32.470  1.00  0.00     0.003 C
HETATM    4  C5  UNL     1      46.149  34.358  31.860  1.00  0.00     0.000 C
HETATM    5  C6  UNL     1      44.982  35.249  31.675  1.00  0.00     0.004 C
HETATM    6  C7  UNL     1      43.678  34.778  32.220  1.00  0.00     0.037 C
HETATM    7  C8  UNL     1      43.435  33.344  32.064  1.00  0.00    -0.048 C
HETATM    8  C9  UNL     1      42.697  32.611  32.885  1.00  0.00    -0.015 C
HETATM    9  C10 UNL     1      42.692  31.194  32.408  1.00  0.00     0.026 C
HETATM   10  C11 UNL     1      41.392  30.497  32.721  1.00  0.00     0.019 C
HETATM   11  C12 UNL     1      41.274  30.348  34.217  1.00  0.00     0.013 C
HETATM   12  C13 UNL     1      40.280  31.315  32.134  1.00  0.00     0.136 C
HETATM   13  C17 UNL     1      40.442  31.253  30.622  1.00  0.00     0.034 C
HETATM   14  C18 UNL     1      41.710  32.007  30.296  1.00  0.00     0.016 C
HETATM   15  C19 UNL     1      42.934  31.389  30.934  1.00  0.00    -0.001 C
HETATM   16  C20 UNL     1      43.381  30.157  30.233  1.00  0.00     0.019 C
ENDROOT
BRANCH  12  17
HETATM   17  O2  UNL     1      39.000  30.902  32.542  1.00  0.00    -0.315 OA
BRANCH  17  18
HETATM   18  C14 UNL     1      38.506  29.615  32.396  1.00  0.00     0.269 C
HETATM   19  O3  UNL     1      38.271  29.205  31.251  1.00  0.00    -0.265 OA
BRANCH  18  20
HETATM   20  C15 UNL     1      38.301  28.829  33.639  1.00  0.00     0.224 C
BRANCH  20  21
HETATM   21  C16 UNL     1      39.374  27.816  33.848  1.00  0.00     0.182 C
HETATM   22  O4  UNL     1      40.104  27.378  32.935  1.00  0.00    -0.648 OA
HETATM   23  O5  UNL     1      39.539  27.360  35.149  1.00  0.00    -0.648 OA
ENDBRANCH  20  21
ENDBRANCH  18  20
ENDBRANCH  17  18
ENDBRANCH  12  17
BRANCH   1  24
HETATM   24  O1  UNL     1      44.035  33.202  29.800  1.00  0.00    -0.380 OA
HETATM   25  C1  UNL     1      45.034  32.969  28.912  1.00  0.00     0.203 C
ENDBRANCH   1  24
TORSDOF 5
ENDMDL