MODEL 4
REMARK VINA RESULT: -8.498205007      0.878      1.316
REMARK  7 active torsions:
REMARK  status: ('A' for Active; 'I' for Inactive)
REMARK    1  A    between atoms: C2_2  and  C3_3
REMARK    2  A    between atoms: C2_2  and  C6_12
REMARK    3  A    between atoms: C3_3  and  O1_4
REMARK    4  A    between atoms: O1_4  and  C4_5
REMARK    5  A    between atoms: C4_5  and  C5_7
REMARK    6  A    between atoms: C5_7  and  O3_8
REMARK    7  A    between atoms: C5_7  and  O4_10
ROOT
HETATM    1  C6  UNL     1      40.191  31.193  31.708  1.00  0.00    -0.016 C
HETATM    2  C7  UNL     1      39.670  32.047  30.586  1.00  0.00     0.020 C
HETATM    3  C8  UNL     1      40.622  31.878  32.941  1.00  0.00     0.015 C
HETATM    4  C9  UNL     1      42.107  32.255  33.000  1.00  0.00     0.011 C
HETATM    5  C10 UNL     1      42.574  32.505  31.578  1.00  0.00     0.027 C
HETATM    6  C11 UNL     1      42.491  31.263  30.862  1.00  0.00    -0.074 C
HETATM    7  C12 UNL     1      43.429  30.840  30.025  1.00  0.00     0.003 C
HETATM    8  C13 UNL     1      44.597  31.675  29.841  1.00  0.00     0.004 C
HETATM    9  C14 UNL     1      44.760  32.804  30.473  1.00  0.00    -0.071 C
HETATM   10  C15 UNL     1      45.977  33.629  30.242  1.00  0.00     0.035 C
HETATM   11  C16 UNL     1      46.768  33.523  31.542  1.00  0.00     0.004 C
HETATM   12  C17 UNL     1      45.945  33.835  32.736  1.00  0.00     0.001 C
HETATM   13  C18 UNL     1      44.593  33.232  32.812  1.00  0.00     0.014 C
HETATM   14  C19 UNL     1      43.822  33.265  31.486  1.00  0.00    -0.013 C
HETATM   15  C20 UNL     1      43.566  34.750  31.189  1.00  0.00     0.021 C
HETATM   16  C21 UNL     1      41.297  30.349  31.087  1.00  0.00     0.048 C
ENDROOT
BRANCH   1  17
HETATM   17  C2  UNL     1      39.028  30.269  32.054  1.00  0.00    -0.057 C
HETATM   18  C1  UNL     1      38.484  29.584  31.099  1.00  0.00     0.017 C
BRANCH  17  19
HETATM   19  C3  UNL     1      38.594  30.163  33.456  1.00  0.00     0.213 C
BRANCH  19  20
HETATM   20  O1  UNL     1      38.360  28.875  33.883  1.00  0.00    -0.313 OA
BRANCH  20  21
HETATM   21  C4  UNL     1      39.242  28.196  34.696  1.00  0.00     0.314 C
HETATM   22  O2  UNL     1      39.001  28.124  35.924  1.00  0.00    -0.260 OA
BRANCH  21  23
HETATM   23  C5  UNL     1      40.473  27.541  34.185  1.00  0.00     0.356 C
BRANCH  23  24
HETATM   24  O3  UNL     1      40.345  27.105  32.888  1.00  0.00    -0.363 OA
ATOM     25  H3  UNL     1      40.170  26.173  32.828  1.00  0.00     0.213 HD
ENDBRANCH  23  24
BRANCH  23  26
HETATM   26  O4  UNL     1      41.520  28.470  34.222  1.00  0.00    -0.363 OA
ATOM     27  H4  UNL     1      41.464  29.019  33.449  1.00  0.00     0.213 HD
ENDBRANCH  23  26
ENDBRANCH  21  23
ENDBRANCH  20  21
ENDBRANCH  19  20
ENDBRANCH  17  19
ENDBRANCH   1  17
TORSDOF 7
ENDMDL