MODEL 5
REMARK VINA RESULT: -5.740049783      2.649      4.275
REMARK  4 active torsions:
REMARK  status: ('A' for Active; 'I' for Inactive)
REMARK    1  A    between atoms: C2_2  and  C3_3
REMARK    2  A    between atoms: C13_13  and  S1_14
REMARK    3  A    between atoms: S1_14  and  C14_15
REMARK    4  A    between atoms: C17_22  and  O1_23
ROOT
HETATM    1  C3  UNL     1      39.883  29.973  32.071  1.00  0.00    -0.039 C
HETATM    2  C4  UNL     1      38.938  30.857  31.358  1.00  0.00     0.014 C
HETATM    3  C5  UNL     1      39.449  31.560  30.167  1.00  0.00    -0.008 C
HETATM    4  C6  UNL     1      40.223  30.719  29.132  1.00  0.00     0.015 C
HETATM    5  C7  UNL     1      41.227  30.557  30.157  1.00  0.00    -0.030 C
HETATM    6  C8  UNL     1      40.743  29.415  30.964  1.00  0.00     0.020 C
HETATM    7  C9  UNL     1      40.841  31.969  30.489  1.00  0.00    -0.001 C
HETATM    8  C10 UNL     1      41.201  32.506  31.767  1.00  0.00     0.012 C
HETATM    9  C11 UNL     1      41.934  31.384  32.495  1.00  0.00     0.009 C
HETATM   10  C12 UNL     1      40.840  30.534  33.042  1.00  0.00     0.015 C
HETATM   11  C13 UNL     1      42.990  30.745  31.690  1.00  0.00     0.050 A
HETATM   12  C17 UNL     1      43.964  31.827  31.196  1.00  0.00     0.141 A
HETATM   13  C19 UNL     1      43.555  31.571  29.744  1.00  0.00     0.040 A
HETATM   14  C20 UNL     1      42.658  30.511  30.207  1.00  0.00     0.019 A
ENDROOT
BRANCH  11  15
HETATM   15  S1  UNL     1      43.837  29.496  32.573  1.00  0.00    -0.080 SA
BRANCH  15  16
HETATM   16  C14 UNL     1      43.694  27.855  31.987  1.00  0.00     0.144 A
HETATM   17  N1  UNL     1      42.708  27.206  31.341  1.00  0.00    -0.345 N
HETATM   18  C15 UNL     1      43.029  25.950  31.087  1.00  0.00     0.107 A
ATOM     19  H1  UNL     1      41.818  27.633  31.080  1.00  0.00     0.167 HD
HETATM   20  C16 UNL     1      44.283  25.771  31.589  1.00  0.00     0.107 A
HETATM   21  N2  UNL     1      44.665  26.936  32.129  1.00  0.00    -0.345 N
ATOM     22  H2  UNL     1      45.564  27.103  32.583  1.00  0.00     0.167 HD
ENDBRANCH  15  16
ENDBRANCH  11  15
BRANCH  12  23
HETATM   23  O1  UNL     1      45.302  31.543  31.471  1.00  0.00    -0.389 OA
HETATM   24  C18 UNL     1      46.015  32.680  31.837  1.00  0.00     0.202 C
ENDBRANCH  12  23
BRANCH   1  25
HETATM   25  C2  UNL     1      39.162  28.794  32.705  1.00  0.00     0.005 C
HETATM   26  C1  UNL     1      40.075  28.184  33.722  1.00  0.00     0.006 C
ENDBRANCH   1  25
TORSDOF 4
ENDMDL