MODEL 5
REMARK VINA RESULT: -5.572922606      7.675     12.093
REMARK  5 active torsions:
REMARK  status: ('A' for Active; 'I' for Inactive)
REMARK    1  A    between atoms: C2_2  and  C4_4
REMARK    2  A    between atoms: C4_4  and  C6_6
REMARK    3  A    between atoms: C6_6  and  C7_7
REMARK    4  A    between atoms: C14_14  and  O1_15
REMARK    5  A    between atoms: C21_24  and  O3_25
ROOT
HETATM    1  C7  UNL     1      50.509  24.589  31.401  1.00  0.00    -0.006 C
HETATM    2  C8  UNL     1      50.568  23.478  30.378  1.00  0.00     0.009 C
HETATM    3  C9  UNL     1      51.447  22.320  30.637  1.00  0.00     0.034 C
HETATM    4  C10 UNL     1      52.138  22.241  31.926  1.00  0.00    -0.087 C
HETATM    5  C11 UNL     1      51.435  21.547  33.071  1.00  0.00     0.043 C
HETATM    6  C12 UNL     1      53.318  22.726  32.176  1.00  0.00    -0.021 C
HETATM    7  C13 UNL     1      54.187  23.451  31.198  1.00  0.00     0.068 C
HETATM    8  C14 UNL     1      53.979  24.887  31.416  1.00  0.00     0.096 C
HETATM    9  C15 UNL     1      55.016  25.884  31.103  1.00  0.00     0.082 C
HETATM   10  C16 UNL     1      54.152  27.164  31.325  1.00  0.00     0.091 A
HETATM   11  C17 UNL     1      54.822  28.393  31.494  1.00  0.00     0.207 A
HETATM   12  O2  UNL     1      54.106  27.684  32.592  1.00  0.00    -0.374 OA
HETATM   13  C18 UNL     1      52.961  26.843  30.527  1.00  0.00     0.061 C
HETATM   14  C19 UNL     1      51.580  26.932  31.037  1.00  0.00     0.019 C
HETATM   15  C20 UNL     1      51.626  25.500  31.503  1.00  0.00     0.028 C
HETATM   16  C21 UNL     1      52.791  25.326  30.595  1.00  0.00     0.102 C
ENDROOT
BRANCH   1  17
HETATM   17  C6  UNL     1      49.122  25.177  31.258  1.00  0.00     0.013 C
BRANCH  17  18
HETATM   18  C4  UNL     1      48.012  24.474  31.915  1.00  0.00     0.009 C
HETATM   19  C5  UNL     1      48.583  24.050  33.304  1.00  0.00     0.015 C
BRANCH  18  20
HETATM   20  C2  UNL     1      46.848  25.307  32.262  1.00  0.00    -0.089 C
HETATM   21  C1  UNL     1      45.761  25.203  31.510  1.00  0.00     0.014 C
HETATM   22  C3  UNL     1      46.792  26.262  33.393  1.00  0.00     0.043 C
ENDBRANCH  18  20
ENDBRANCH  17  18
ENDBRANCH   1  17
BRANCH  16  23
HETATM   23  O3  UNL     1      52.666  24.860  29.355  1.00  0.00    -0.381 OA
HETATM   24  C22 UNL     1      53.554  25.022  28.380  1.00  0.00     0.202 C
ENDBRANCH  16  23
BRANCH   8  25
HETATM   25  O1  UNL     1      53.787  25.042  32.814  1.00  0.00    -0.386 OA
ATOM     26  H1  UNL     1      53.790  25.979  32.973  1.00  0.00     0.210 HD
ENDBRANCH   8  25
TORSDOF 5
ENDMDL