MODEL 5
REMARK VINA RESULT: -7.163708856      3.749      7.968
REMARK  6 active torsions:
REMARK  status: ('A' for Active; 'I' for Inactive)
REMARK    1  A    between atoms: C17_19  and  O3_20
REMARK    2  A    between atoms: O3_20  and  C18_21
REMARK       I    between atoms: C18_21  and  N1_23
REMARK    3  A    between atoms: N1_23  and  C19_25
REMARK    4  A    between atoms: C19_25  and  C20_26
REMARK       I    between atoms: C20_26  and  N2_28
REMARK    5  A    between atoms: C22_31  and  C23_32
REMARK    6  A    between atoms: C23_32  and  C24_33
ROOT
HETATM    1  C1  UNL     1      50.441  31.185  28.332  1.00  0.00     0.016 C
HETATM    2  C2  UNL     1      49.823  30.713  29.402  1.00  0.00    -0.061 C
HETATM    3  C3  UNL     1      48.505  30.079  29.413  1.00  0.00     0.041 C
HETATM    4  C4  UNL     1      48.428  29.356  30.746  1.00  0.00    -0.020 C
HETATM    5  C5  UNL     1      49.458  29.700  31.480  1.00  0.00    -0.008 C
HETATM    6  C6  UNL     1      50.357  30.684  30.758  1.00  0.00     0.070 C
HETATM    7  C7  UNL     1      51.707  30.015  30.780  1.00  0.00     0.155 C
HETATM    8  O1  UNL     1      51.738  28.811  30.907  1.00  0.00    -0.296 OA
HETATM    9  C8  UNL     1      52.958  30.746  30.658  1.00  0.00     0.122 C
HETATM   10  C9  UNL     1      54.117  30.109  31.417  1.00  0.00     0.026 C
HETATM   11  C10 UNL     1      52.859  32.142  31.092  1.00  0.00     0.142 C
HETATM   12  O2  UNL     1      53.889  32.761  31.280  1.00  0.00    -0.297 OA
HETATM   13  C11 UNL     1      51.565  32.845  31.317  1.00  0.00     0.062 C
HETATM   14  C12 UNL     1      51.832  33.797  32.464  1.00  0.00     0.018 C
HETATM   15  C13 UNL     1      50.421  31.902  31.572  1.00  0.00    -0.012 C
HETATM   16  C14 UNL     1      50.678  31.376  33.010  1.00  0.00     0.018 C
HETATM   17  C15 UNL     1      49.162  32.721  31.692  1.00  0.00     0.014 C
HETATM   18  C16 UNL     1      49.050  33.822  30.719  1.00  0.00     0.034 C
HETATM   19  C17 UNL     1      47.589  34.270  30.471  1.00  0.00     0.137 C
HETATM   20  C22 UNL     1      46.762  33.343  29.751  1.00  0.00     0.016 C
HETATM   21  C27 UNL     1      47.418  32.324  28.860  1.00  0.00     0.012 C
HETATM   22  C28 UNL     1      47.287  30.898  29.208  1.00  0.00    -0.006 C
HETATM   23  C29 UNL     1      46.400  30.141  28.192  1.00  0.00     0.011 C
ENDROOT
BRANCH  19  24
HETATM   24  O3  UNL     1      47.815  35.456  29.670  1.00  0.00    -0.298 OA
BRANCH  24  25
HETATM   25  C18 UNL     1      49.089  35.856  29.336  1.00  0.00     0.361 C
HETATM   26  O4  UNL     1      49.614  35.599  28.200  1.00  0.00    -0.238 OA
HETATM   27  N1  UNL     1      49.904  36.589  30.240  1.00  0.00    -0.328 N
ATOM     28  H1  UNL     1      49.539  36.826  31.163  1.00  0.00     0.165 HD
BRANCH  27  29
HETATM   29  C19 UNL     1      51.239  37.006  29.877  1.00  0.00     0.227 C
BRANCH  29  30
HETATM   30  C20 UNL     1      51.321  38.459  29.711  1.00  0.00     0.235 C
HETATM   31  O5  UNL     1      52.452  39.001  29.607  1.00  0.00    -0.272 OA
HETATM   32  N2  UNL     1      50.160  39.272  29.663  1.00  0.00    -0.364 N
HETATM   33  C21 UNL     1      50.258  40.707  29.499  1.00  0.00     0.149 C
ATOM     34  H2  UNL     1      49.241  38.838  29.745  1.00  0.00     0.161 HD
ENDBRANCH  29  30
ENDBRANCH  27  29
ENDBRANCH  24  25
ENDBRANCH  19  24
BRANCH  20  35
HETATM   35  C23 UNL     1      45.592  32.736  30.434  1.00  0.00     0.011 C
BRANCH  35  36
HETATM   36  C24 UNL     1      44.397  33.579  30.729  1.00  0.00    -0.022 C
HETATM   37  C25 UNL     1      43.219  32.642  31.150  1.00  0.00     0.009 C
HETATM   38  C26 UNL     1      44.501  34.549  31.864  1.00  0.00     0.009 C
ENDBRANCH  35  36
ENDBRANCH  20  35
TORSDOF 6
ENDMDL