MODEL 2
REMARK VINA RESULT: -8.227536089      5.769      7.966
REMARK  5 active torsions:
REMARK  status: ('A' for Active; 'I' for Inactive)
REMARK    1  A    between atoms: C5_5  and  O1_6
REMARK    2  A    between atoms: O1_6  and  C6_7
REMARK    3  A    between atoms: C17_18  and  C18_19
REMARK    4  A    between atoms: C18_19  and  C19_20
REMARK    5  A    between atoms: C28_33  and  C29_34
ROOT
HETATM    1  C6  UNL     1      45.131  34.333  30.626  1.00  0.00     0.122 C
HETATM    2  C7  UNL     1      46.117  35.129  31.423  1.00  0.00     0.033 C
HETATM    3  C8  UNL     1      47.487  34.585  31.489  1.00  0.00     0.012 C
HETATM    4  C9  UNL     1      47.973  33.876  30.279  1.00  0.00    -0.036 C
HETATM    5  C10 UNL     1      47.940  32.370  30.598  1.00  0.00     0.016 C
HETATM    6  C11 UNL     1      47.107  34.079  29.077  1.00  0.00    -0.004 C
HETATM    7  C12 UNL     1      47.210  35.451  28.470  1.00  0.00     0.006 C
HETATM    8  C13 UNL     1      48.379  36.251  28.932  1.00  0.00     0.006 C
HETATM    9  C14 UNL     1      49.610  35.451  29.182  1.00  0.00    -0.003 C
HETATM   10  C15 UNL     1      50.585  36.284  29.974  1.00  0.00     0.027 C
HETATM   11  C16 UNL     1      50.994  37.556  29.319  1.00  0.00     0.040 C
HETATM   12  C17 UNL     1      52.496  37.597  29.623  1.00  0.00     0.133 C
HETATM   13  O4  UNL     1      52.769  36.470  30.401  1.00  0.00    -0.374 OA
HETATM   14  C20 UNL     1      51.913  35.510  29.923  1.00  0.00     0.062 C
HETATM   15  C21 UNL     1      52.278  35.185  28.492  1.00  0.00     0.046 C
HETATM   16  C22 UNL     1      51.741  34.304  30.767  1.00  0.00     0.038 C
HETATM   17  C23 UNL     1      50.322  33.997  31.114  1.00  0.00     0.009 C
HETATM   18  C24 UNL     1      49.400  34.170  29.906  1.00  0.00    -0.001 C
HETATM   19  C25 UNL     1      45.659  33.799  29.334  1.00  0.00     0.037 C
ENDROOT
BRANCH   1  20
HETATM   20  O1  UNL     1      44.580  33.342  31.437  1.00  0.00    -0.380 OA
BRANCH  20  21
HETATM   21  C5  UNL     1      43.198  33.435  31.570  1.00  0.00     0.129 C
HETATM   22  C4  UNL     1      42.575  32.350  30.764  1.00  0.00     0.042 C
HETATM   23  C2  UNL     1      42.109  31.180  31.603  1.00  0.00    -0.027 C
HETATM   24  C1  UNL     1      41.637  30.092  30.669  1.00  0.00     0.016 C
HETATM   25  C3  UNL     1      43.183  30.664  32.504  1.00  0.00     0.016 C
HETATM   26  C28 UNL     1      40.980  31.710  32.463  1.00  0.00     0.152 C
HETATM   27  C27 UNL     1      41.578  32.738  33.356  1.00  0.00     0.142 C
HETATM   28  C26 UNL     1      42.743  33.532  32.981  1.00  0.00     0.111 C
HETATM   29  O5  UNL     1      41.065  32.910  34.431  1.00  0.00    -0.297 OA
BRANCH  26  30
HETATM   30  C29 UNL     1      39.943  32.395  31.620  1.00  0.00     0.243 C
HETATM   31  N1  UNL     1      38.676  31.798  31.365  1.00  0.00    -0.061 NA
HETATM   32  O6  UNL     1      40.156  33.526  31.104  1.00  0.00    -0.276 OA
ENDBRANCH  26  30
ENDBRANCH  20  21
ENDBRANCH   1  20
BRANCH  12  33
HETATM   33  C18 UNL     1      52.763  38.820  30.458  1.00  0.00     0.145 C
BRANCH  33  34
HETATM   34  C19 UNL     1      54.150  38.783  30.962  1.00  0.00     0.175 C
HETATM   35  O2  UNL     1      54.375  38.952  32.186  1.00  0.00    -0.648 OA
HETATM   36  O3  UNL     1      55.239  38.565  30.131  1.00  0.00    -0.648 OA
ENDBRANCH  33  34
ENDBRANCH  12  33
TORSDOF 5
ENDMDL