MODEL 5
REMARK VINA RESULT: -8.681045907      8.663     11.849
REMARK  8 active torsions:
REMARK  status: ('A' for Active; 'I' for Inactive)
REMARK    1  A    between atoms: C2_2  and  C3_4
REMARK    2  A    between atoms: C13_14  and  O2_15
REMARK    3  A    between atoms: O2_15  and  C14_16
REMARK    4  A    between atoms: C14_16  and  C15_17
REMARK    5  A    between atoms: C16_18  and  C17_19
REMARK    6  A    between atoms: C17_19  and  N1_20
REMARK    7  A    between atoms: C20_26  and  C21_27
REMARK    8  A    between atoms: C21_27  and  O3_28
ROOT
HETATM    1  C3  UNL     1      50.598  23.691  32.082  1.00  0.00     0.063 C
HETATM    2  C4  UNL     1      51.050  24.288  33.398  1.00  0.00     0.013 C
HETATM    3  C5  UNL     1      50.504  25.698  33.466  1.00  0.00     0.006 C
HETATM    4  C6  UNL     1      50.142  25.961  32.040  1.00  0.00    -0.001 C
HETATM    5  C7  UNL     1      49.333  27.173  31.784  1.00  0.00    -0.005 C
HETATM    6  C8  UNL     1      50.280  28.352  31.783  1.00  0.00     0.006 C
HETATM    7  C9  UNL     1      50.080  29.256  30.605  1.00  0.00     0.006 C
HETATM    8  C10 UNL     1      48.588  29.488  30.488  1.00  0.00     0.000 C
HETATM    9  C11 UNL     1      48.218  30.724  29.758  1.00  0.00     0.015 C
HETATM   10  C12 UNL     1      48.652  31.914  30.626  1.00  0.00     0.013 C
HETATM   11  C13 UNL     1      46.740  30.827  29.593  1.00  0.00     0.126 C
HETATM   12  C23 UNL     1      46.017  29.557  29.313  1.00  0.00     0.033 C
HETATM   13  C24 UNL     1      46.516  28.354  30.027  1.00  0.00     0.012 C
HETATM   14  C25 UNL     1      48.039  28.216  29.873  1.00  0.00    -0.036 C
HETATM   15  C26 UNL     1      48.278  28.182  28.363  1.00  0.00     0.016 C
HETATM   16  C27 UNL     1      48.557  26.997  30.526  1.00  0.00    -0.002 C
HETATM   17  C28 UNL     1      49.351  26.094  29.600  1.00  0.00     0.006 C
HETATM   18  C29 UNL     1      49.262  24.677  30.186  1.00  0.00     0.011 C
HETATM   19  C30 UNL     1      49.488  24.658  31.655  1.00  0.00    -0.030 C
HETATM   20  C31 UNL     1      48.293  24.325  32.480  1.00  0.00     0.016 C
ENDROOT
BRANCH  11  21
HETATM   21  O2  UNL     1      46.427  31.759  28.606  1.00  0.00    -0.374 OA
BRANCH  21  22
HETATM   22  C14 UNL     1      46.277  33.043  29.054  1.00  0.00     0.261 C
BRANCH  22  23
HETATM   23  C15 UNL     1      45.244  33.187  30.078  1.00  0.00    -0.079 C
HETATM   24  C16 UNL     1      44.396  33.327  30.931  1.00  0.00    -0.074 C
BRANCH  24  25
HETATM   25  C17 UNL     1      43.388  33.493  31.947  1.00  0.00     0.365 C
BRANCH  25  26
HETATM   26  N1  UNL     1      42.350  32.496  31.804  1.00  0.00     0.103 N
HETATM   27  C18 UNL     1      41.189  33.084  31.148  1.00  0.00     0.301 C
HETATM   28  C19 UNL     1      39.989  32.225  31.471  1.00  0.00     0.263 C
HETATM   29  N2  UNL     1      40.351  30.833  31.607  1.00  0.00    -0.066 N
HETATM   30  C20 UNL     1      41.209  30.644  32.771  1.00  0.00     0.237 C
ATOM     31  H22 UNL     1      39.530  30.228  31.637  1.00  0.00     0.277 HD
ATOM     32  H21 UNL     1      40.778  30.465  30.756  1.00  0.00     0.277 HD
HETATM   33  C22 UNL     1      41.898  31.977  33.068  1.00  0.00     0.308 C
BRANCH  30  34
HETATM   34  C21 UNL     1      42.291  29.655  32.361  1.00  0.00     0.199 C
BRANCH  34  35
HETATM   35  O3  UNL     1      41.919  28.352  32.596  1.00  0.00    -0.399 OA
ATOM     36  H3  UNL     1      41.299  28.035  31.951  1.00  0.00     0.209 HD
ENDBRANCH  34  35
ENDBRANCH  30  34
ENDBRANCH  25  26
ENDBRANCH  24  25
ENDBRANCH  22  23
ENDBRANCH  21  22
ENDBRANCH  11  21
BRANCH   1  37
HETATM   37  C2  UNL     1      50.111  22.320  32.306  1.00  0.00     0.128 C
HETATM   38  C1  UNL     1      49.826  21.337  31.244  1.00  0.00     0.091 C
HETATM   39  O1  UNL     1      49.913  21.923  33.466  1.00  0.00    -0.298 OA
ENDBRANCH   1  37
TORSDOF 8
ENDMDL