MODEL 5
REMARK VINA RESULT: -6.577610792      2.409      4.870
REMARK  7 active torsions:
REMARK  status: ('A' for Active; 'I' for Inactive)
REMARK    1  A    between atoms: C15_18  and  O2_19
REMARK    2  A    between atoms: C16_21  and  O3_22
REMARK    3  A    between atoms: C17_26  and  C18_27
REMARK    4  A    between atoms: C18_27  and  O4_28
REMARK    5  A    between atoms: C18_27  and  C22_33
REMARK    6  A    between atoms: O4_28  and  C19_29
REMARK    7  A    between atoms: C19_29  and  C20_31
ROOT
HETATM    1  C1  UNL     1      47.241  30.107  28.847  1.00  0.00     0.015 C
HETATM    2  C2  UNL     1      47.983  29.201  29.412  1.00  0.00    -0.080 C
HETATM    3  C3  UNL     1      47.318  27.985  29.965  1.00  0.00     0.034 C
HETATM    4  C4  UNL     1      47.900  26.826  29.185  1.00  0.00     0.004 C
HETATM    5  C5  UNL     1      49.371  26.917  28.976  1.00  0.00     0.001 C
HETATM    6  C6  UNL     1      49.882  28.274  28.512  1.00  0.00     0.014 C
HETATM    7  C7  UNL     1      49.456  29.345  29.463  1.00  0.00    -0.013 C
HETATM    8  C8  UNL     1      49.870  28.726  30.822  1.00  0.00     0.015 C
HETATM    9  C9  UNL     1      49.472  29.813  31.715  1.00  0.00     0.010 C
HETATM   10  C10 UNL     1      50.081  31.049  30.993  1.00  0.00    -0.038 C
HETATM   11  C11 UNL     1      51.428  31.058  31.547  1.00  0.00     0.015 C
HETATM   12  C12 UNL     1      49.171  32.153  31.433  1.00  0.00     0.018 C
HETATM   13  C13 UNL     1      49.808  33.392  31.993  1.00  0.00     0.104 C
HETATM   14  C14 UNL     1      49.022  34.549  31.432  1.00  0.00     0.223 C
HETATM   15  O1  UNL     1      47.752  34.331  31.425  1.00  0.00    -0.273 OA
HETATM   16  N1  UNL     1      49.493  35.780  30.939  1.00  0.00    -0.304 N
ATOM     17  H1  UNL     1      49.190  36.575  31.502  1.00  0.00     0.171 HD
HETATM   18  C15 UNL     1      50.280  36.152  29.855  1.00  0.00     0.194 C
HETATM   19  C16 UNL     1      50.339  35.887  28.434  1.00  0.00     0.188 C
HETATM   20  N2  UNL     1      50.380  34.737  27.648  1.00  0.00    -0.360 N
ATOM     21  H2  UNL     1      49.607  34.662  26.986  1.00  0.00     0.162 HD
HETATM   22  C17 UNL     1      51.327  33.608  27.591  1.00  0.00     0.114 C
HETATM   23  C25 UNL     1      51.035  32.732  28.713  1.00  0.00     0.037 C
HETATM   24  C26 UNL     1      51.057  31.233  28.663  1.00  0.00    -0.033 A
HETATM   25  C27 UNL     1      51.557  30.635  27.434  1.00  0.00     0.011 A
HETATM   26  C28 UNL     1      52.343  30.488  28.634  1.00  0.00     0.011 A
HETATM   27  C29 UNL     1      49.938  30.670  29.504  1.00  0.00     0.015 C
ENDROOT
BRANCH  22  28
HETATM   28  C18 UNL     1      52.697  34.034  27.246  1.00  0.00     0.158 C
BRANCH  28  29
HETATM   29  O4  UNL     1      53.479  33.675  28.382  1.00  0.00    -0.314 OA
BRANCH  29  30
HETATM   30  C19 UNL     1      53.717  34.471  29.469  1.00  0.00     0.258 C
HETATM   31  O5  UNL     1      53.810  35.715  29.294  1.00  0.00    -0.265 OA
BRANCH  30  32
HETATM   32  C20 UNL     1      53.869  33.886  30.844  1.00  0.00     0.106 C
HETATM   33  C21 UNL     1      54.689  32.627  30.810  1.00  0.00     0.015 C
ENDBRANCH  30  32
ENDBRANCH  29  30
ENDBRANCH  28  29
BRANCH  28  34
HETATM   34  C22 UNL     1      53.418  33.557  26.064  1.00  0.00     0.009 C
HETATM   35  C23 UNL     1      54.373  32.418  26.228  1.00  0.00     0.012 C
HETATM   36  C24 UNL     1      52.339  33.018  25.101  1.00  0.00     0.012 C
ENDBRANCH  28  34
ENDBRANCH  22  28
BRANCH  19  37
HETATM   37  O3  UNL     1      50.362  36.948  27.617  1.00  0.00    -0.343 OA
ATOM     38  H3  UNL     1      49.850  36.891  26.819  1.00  0.00     0.219 HD
ENDBRANCH  19  37
BRANCH  18  39
HETATM   39  O2  UNL     1      51.236  36.975  30.214  1.00  0.00    -0.343 OA
ATOM     40  H2  UNL     1      51.925  37.016  29.561  1.00  0.00     0.219 HD
ENDBRANCH  18  39
TORSDOF 7
ENDMDL