MODEL 2
REMARK VINA RESULT: -8.892508594      7.857     13.407
REMARK  7 active torsions:
REMARK  status: ('A' for Active; 'I' for Inactive)
REMARK    1  A    between atoms: C10_11  and  C11_12
REMARK    2  A    between atoms: C12_13  and  C13_14
REMARK    3  A    between atoms: C18_19  and  C19_20
REMARK    4  A    between atoms: C19_20  and  O2_21
REMARK    5  A    between atoms: C20_23  and  O3_24
REMARK    6  A    between atoms: C24_29  and  C25_30
REMARK    7  A    between atoms: C26_31  and  C27_32
ROOT
HETATM    1  C13 UNL     1      46.456  32.275  29.931  1.00  0.00     0.016 C
HETATM    2  C14 UNL     1      46.651  32.932  28.592  1.00  0.00     0.010 C
HETATM    3  C15 UNL     1      47.746  33.954  28.760  1.00  0.00     0.010 C
HETATM    4  C16 UNL     1      48.938  33.511  29.517  1.00  0.00     0.026 C
HETATM    5  C17 UNL     1      49.332  34.441  30.604  1.00  0.00    -0.048 C
HETATM    6  C18 UNL     1      49.731  35.668  30.512  1.00  0.00     0.004 C
HETATM    7  C20 UNL     1      49.202  33.662  31.874  1.00  0.00     0.148 C
HETATM    8  C21 UNL     1      49.598  32.253  31.448  1.00  0.00     0.046 C
HETATM    9  C22 UNL     1      48.954  32.120  30.048  1.00  0.00    -0.026 C
HETATM   10  C23 UNL     1      49.904  31.275  29.231  1.00  0.00     0.016 C
HETATM   11  C24 UNL     1      47.660  31.439  30.272  1.00  0.00     0.024 C
ENDROOT
BRANCH   1  12
HETATM   12  C12 UNL     1      45.208  31.448  30.003  1.00  0.00    -0.025 C
HETATM   13  C11 UNL     1      44.192  31.754  30.748  1.00  0.00    -0.025 C
BRANCH  13  14
HETATM   14  C10 UNL     1      42.962  31.001  30.863  1.00  0.00     0.016 C
HETATM   15  C2  UNL     1      41.773  31.903  31.270  1.00  0.00    -0.033 C
HETATM   16  C1  UNL     1      42.171  32.848  32.352  1.00  0.00     0.016 C
HETATM   17  C3  UNL     1      41.253  32.649  30.070  1.00  0.00     0.017 C
HETATM   18  C7  UNL     1      40.785  30.847  31.675  1.00  0.00     0.001 C
HETATM   19  C4  UNL     1      39.786  32.924  30.115  1.00  0.00     0.079 C
HETATM   20  C5  UNL     1      39.110  32.535  31.344  1.00  0.00     0.127 C
HETATM   21  O1  UNL     1      38.088  33.150  31.677  1.00  0.00    -0.298 OA
HETATM   22  C6  UNL     1      39.540  31.446  32.257  1.00  0.00     0.083 C
HETATM   23  C8  UNL     1      41.574  29.993  32.595  1.00  0.00     0.006 C
HETATM   24  C9  UNL     1      42.918  29.873  31.847  1.00  0.00     0.010 C
ENDBRANCH  13  14
ENDBRANCH   1  12
BRANCH  11  25
HETATM   25  C25 UNL     1      47.611  30.232  29.394  1.00  0.00    -0.022 C
HETATM   26  C26 UNL     1      47.543  29.006  29.896  1.00  0.00     0.001 C
BRANCH  26  27
HETATM   27  C27 UNL     1      47.495  27.803  29.053  1.00  0.00     0.144 C
HETATM   28  C28 UNL     1      48.502  27.836  27.927  1.00  0.00     0.043 C
HETATM   29  C29 UNL     1      49.005  26.478  27.548  1.00  0.00     0.083 C
HETATM   30  C30 UNL     1      49.366  25.703  28.746  1.00  0.00     0.150 C
HETATM   31  O4  UNL     1      50.114  24.750  28.629  1.00  0.00    -0.296 OA
HETATM   32  C31 UNL     1      48.783  26.149  30.048  1.00  0.00     0.246 C
HETATM   33  O5  UNL     1      47.519  26.630  29.785  1.00  0.00    -0.375 OA
ENDBRANCH  26  27
ENDBRANCH  11  25
BRANCH   7  34
HETATM   34  O3  UNL     1      50.048  34.093  32.867  1.00  0.00    -0.391 OA
ATOM     35  H3  UNL     1      50.440  33.383  33.362  1.00  0.00     0.210 HD
ENDBRANCH   7  34
BRANCH   6  36
HETATM   36  C19 UNL     1      49.885  36.429  29.254  1.00  0.00     0.191 C
BRANCH  36  37
HETATM   37  O2  UNL     1      48.838  37.365  29.099  1.00  0.00    -0.397 OA
ATOM     38  H2  UNL     1      48.863  38.019  29.788  1.00  0.00     0.209 HD
ENDBRANCH  36  37
ENDBRANCH   6  36
TORSDOF 7
ENDMDL