MODEL 4
REMARK VINA RESULT: -7.044005625      2.003      2.259
REMARK  8 active torsions:
REMARK  status: ('A' for Active; 'I' for Inactive)
REMARK    1  A    between atoms: C2_2  and  C4_4
REMARK    2  A    between atoms: C5_5  and  C6_6
REMARK    3  A    between atoms: C6_6  and  O1_7
REMARK    4  A    between atoms: C17_19  and  O2_20
REMARK    5  A    between atoms: O2_20  and  C18_21
REMARK       I    between atoms: C18_21  and  N1_23
REMARK    6  A    between atoms: N1_23  and  C19_25
REMARK    7  A    between atoms: C19_25  and  C20_26
REMARK    8  A    between atoms: C20_26  and  N2_27
ROOT
HETATM    1  C6  UNL     1      49.415  35.036  30.223  1.00  0.00     0.128 C
HETATM    2  C7  UNL     1      48.165  35.090  31.117  1.00  0.00     0.052 C
HETATM    3  C8  UNL     1      47.626  33.650  31.110  1.00  0.00     0.010 C
HETATM    4  C9  UNL     1      48.917  32.953  30.976  1.00  0.00     0.002 C
HETATM    5  C10 UNL     1      49.035  31.520  31.146  1.00  0.00    -0.004 C
HETATM    6  C11 UNL     1      48.356  30.586  30.232  1.00  0.00     0.006 C
HETATM    7  C12 UNL     1      49.033  29.210  30.247  1.00  0.00     0.007 C
HETATM    8  C13 UNL     1      49.750  28.987  31.568  1.00  0.00     0.012 C
HETATM    9  C14 UNL     1      50.067  27.558  31.796  1.00  0.00    -0.016 C
HETATM   10  C15 UNL     1      49.014  26.675  31.112  1.00  0.00     0.018 C
HETATM   11  C16 UNL     1      49.918  27.240  33.287  1.00  0.00     0.018 C
HETATM   12  C17 UNL     1      51.390  27.087  31.332  1.00  0.00     0.148 C
HETATM   13  C22 UNL     1      52.507  28.049  31.322  1.00  0.00     0.112 C
HETATM   14  C23 UNL     1      52.208  29.452  31.564  1.00  0.00     0.138 C
HETATM   15  O4  UNL     1      53.128  30.236  31.554  1.00  0.00    -0.297 OA
HETATM   16  C24 UNL     1      50.860  29.950  31.817  1.00  0.00     0.025 C
HETATM   17  C25 UNL     1      50.836  30.195  33.355  1.00  0.00     0.024 C
HETATM   18  C26 UNL     1      50.558  31.274  31.226  1.00  0.00     0.006 C
HETATM   19  C27 UNL     1      51.045  31.607  29.874  1.00  0.00     0.007 C
HETATM   20  C28 UNL     1      50.966  33.130  29.694  1.00  0.00     0.014 C
HETATM   21  C29 UNL     1      49.530  33.599  29.766  1.00  0.00     0.003 C
HETATM   22  C30 UNL     1      48.843  33.356  28.484  1.00  0.00     0.020 C
ENDROOT
BRANCH  12  23
HETATM   23  O2  UNL     1      51.764  26.014  32.212  1.00  0.00    -0.297 OA
BRANCH  23  24
HETATM   24  C18 UNL     1      51.760  24.694  31.873  1.00  0.00     0.360 C
HETATM   25  O3  UNL     1      51.825  24.362  30.684  1.00  0.00    -0.239 OA
HETATM   26  N1  UNL     1      51.680  23.693  32.911  1.00  0.00    -0.336 N
ATOM     27  H1  UNL     1      51.625  23.994  33.884  1.00  0.00     0.164 HD
BRANCH  26  28
HETATM   28  C19 UNL     1      51.672  22.291  32.621  1.00  0.00     0.142 C
BRANCH  28  29
HETATM   29  C20 UNL     1      50.341  21.641  32.559  1.00  0.00     0.145 C
BRANCH  29  30
HETATM   30  N2  UNL     1      49.444  21.849  33.642  1.00  0.00    -0.157 NA
HETATM   31  C21 UNL     1      48.304  22.663  33.361  1.00  0.00     0.149 C
HETATM   32  F1  UNL     1      49.022  20.656  34.094  1.00  0.00    -0.134 F
ENDBRANCH  29  30
ENDBRANCH  28  29
ENDBRANCH  26  28
ENDBRANCH  23  24
ENDBRANCH  12  23
BRANCH   1  33
HETATM   33  C5  UNL     1      49.297  35.971  29.118  1.00  0.00    -0.067 C
HETATM   34  C4  UNL     1      49.221  36.765  28.201  1.00  0.00    -0.099 C
BRANCH  34  35
HETATM   35  C2  UNL     1      49.126  37.755  27.103  1.00  0.00     0.057 C
HETATM   36  C1  UNL     1      49.089  39.159  27.678  1.00  0.00     0.023 C
HETATM   37  C3  UNL     1      50.389  37.686  26.237  1.00  0.00     0.023 C
ENDBRANCH  34  35
ENDBRANCH   1  33
BRANCH   1  38
HETATM   38  O1  UNL     1      50.565  35.357  30.932  1.00  0.00    -0.377 OA
ATOM     39  H1  UNL     1      50.305  35.616  31.808  1.00  0.00     0.211 HD
ENDBRANCH   1  38
TORSDOF 8
ENDMDL