MODEL 3
REMARK VINA RESULT: -6.646376698      4.306      8.219
REMARK  7 active torsions:
REMARK  status: ('A' for Active; 'I' for Inactive)
REMARK    1  A    between atoms: C17_21  and  C18_22
REMARK    2  A    between atoms: C18_22  and  C19_23
REMARK    3  A    between atoms: C18_22  and  C22_26
REMARK    4  A    between atoms: C22_26  and  O2_27
REMARK    5  A    between atoms: C22_26  and  C23_29
REMARK    6  A    between atoms: C23_29  and  O4_31
REMARK    7  A    between atoms: O4_31  and  C24_32
ROOT
HETATM    1  C1  UNL     1      48.820  26.327  28.874  1.00  0.00     0.015 C
HETATM    2  C2  UNL     1      49.635  26.690  29.853  1.00  0.00    -0.078 C
HETATM    3  C3  UNL     1      50.204  25.594  30.741  1.00  0.00     0.044 C
HETATM    4  C4  UNL     1      49.049  24.905  31.389  1.00  0.00     0.241 C
HETATM    5  N1  UNL     1      49.505  23.854  32.284  1.00  0.00    -0.074 N
ATOM      6  H11 UNL     1      49.507  22.947  31.817  1.00  0.00     0.277 HD
ATOM      7  H12 UNL     1      48.814  23.662  33.009  1.00  0.00     0.277 HD
HETATM    8  C5  UNL     1      50.804  24.151  32.862  1.00  0.00     0.232 C
HETATM    9  C6  UNL     1      50.973  25.662  33.050  1.00  0.00     0.033 C
HETATM   10  C7  UNL     1      51.167  26.242  31.665  1.00  0.00     0.002 C
HETATM   11  C8  UNL     1      50.901  27.701  31.563  1.00  0.00    -0.001 C
HETATM   12  C9  UNL     1      50.139  28.255  32.744  1.00  0.00     0.006 C
HETATM   13  C10 UNL     1      50.313  29.770  32.542  1.00  0.00     0.006 C
HETATM   14  C11 UNL     1      49.374  30.141  31.417  1.00  0.00     0.003 C
HETATM   15  C12 UNL     1      49.576  31.595  31.000  1.00  0.00    -0.035 C
HETATM   16  C13 UNL     1      49.982  32.272  32.307  1.00  0.00     0.016 C
HETATM   17  C14 UNL     1      48.360  32.248  30.454  1.00  0.00     0.017 C
HETATM   18  C15 UNL     1      48.644  33.202  29.316  1.00  0.00     0.079 C
HETATM   19  C16 UNL     1      49.973  33.847  29.660  1.00  0.00     0.132 C
HETATM   20  O1  UNL     1      49.863  35.010  29.935  1.00  0.00    -0.298 OA
HETATM   21  C17 UNL     1      51.193  32.995  29.616  1.00  0.00     0.067 C
HETATM   22  C26 UNL     1      50.777  31.646  30.076  1.00  0.00     0.006 C
HETATM   23  C27 UNL     1      50.542  30.765  28.857  1.00  0.00     0.007 C
HETATM   24  C28 UNL     1      49.397  29.830  28.944  1.00  0.00     0.011 C
HETATM   25  C29 UNL     1      49.248  29.151  30.318  1.00  0.00    -0.032 C
HETATM   26  C30 UNL     1      47.806  28.649  30.341  1.00  0.00     0.016 C
HETATM   27  C31 UNL     1      50.167  27.995  30.296  1.00  0.00     0.027 C
ENDROOT
BRANCH  21  28
HETATM   28  C18 UNL     1      52.383  33.594  30.334  1.00  0.00     0.039 C
BRANCH  28  29
HETATM   29  C19 UNL     1      53.193  34.389  29.344  1.00  0.00    -0.015 C
HETATM   30  C20 UNL     1      53.031  33.976  27.893  1.00  0.00     0.010 C
HETATM   31  C21 UNL     1      53.098  35.878  29.496  1.00  0.00     0.010 C
ENDBRANCH  28  29
BRANCH  28  32
HETATM   32  C22 UNL     1      53.126  32.737  31.266  1.00  0.00     0.222 C
BRANCH  32  33
HETATM   33  O2  UNL     1      53.401  33.577  32.405  1.00  0.00    -0.385 OA
ATOM     34  H2  UNL     1      54.239  33.276  32.735  1.00  0.00     0.210 HD
ENDBRANCH  32  33
BRANCH  32  35
HETATM   35  C23 UNL     1      54.465  32.238  30.986  1.00  0.00     0.288 C
HETATM   36  O3  UNL     1      54.643  31.162  30.394  1.00  0.00    -0.262 OA
BRANCH  35  37
HETATM   37  O4  UNL     1      55.677  32.838  31.311  1.00  0.00    -0.320 OA
BRANCH  37  38
HETATM   38  C24 UNL     1      56.534  33.485  30.409  1.00  0.00     0.174 C
HETATM   39  C25 UNL     1      56.537  34.978  30.752  1.00  0.00     0.034 C
ENDBRANCH  37  38
ENDBRANCH  35  37
ENDBRANCH  32  35
ENDBRANCH  28  32
ENDBRANCH  21  28
TORSDOF 7
ENDMDL