MODEL 5
REMARK VINA RESULT: -7.691677609      7.623     11.216
REMARK  7 active torsions:
REMARK  status: ('A' for Active; 'I' for Inactive)
REMARK    1  A    between atoms: C2_2  and  C5_5
REMARK    2  A    between atoms: C5_5  and  C6_6
REMARK       I    between atoms: C6_6  and  N1_8
REMARK    3  A    between atoms: C20_24  and  O2_25
REMARK    4  A    between atoms: C23_29  and  C24_30
REMARK    5  A    between atoms: C24_30  and  C25_31
REMARK    6  A    between atoms: C25_31  and  C26_33
REMARK    7  A    between atoms: C26_33  and  C27_34
ROOT
HETATM    1  C6  UNL     1      50.079  33.342  29.856  1.00  0.00     0.243 C
HETATM    2  O1  UNL     1      50.871  33.374  28.851  1.00  0.00    -0.271 OA
HETATM    3  N1  UNL     1      49.844  32.072  30.419  1.00  0.00    -0.222 N
HETATM    4  N2  UNL     1      49.107  31.525  31.470  1.00  0.00    -0.292 N
ATOM      5  H2  UNL     1      48.492  31.961  32.158  1.00  0.00     0.187 HD
HETATM    6  C7  UNL     1      49.451  30.287  31.296  1.00  0.00     0.059 A
HETATM    7  C8  UNL     1      50.259  30.723  30.180  1.00  0.00     0.080 A
HETATM    8  C9  UNL     1      50.954  29.905  29.458  1.00  0.00     0.008 C
HETATM    9  C10 UNL     1      50.989  28.470  29.734  1.00  0.00     0.040 C
HETATM   10  C11 UNL     1      49.835  27.962  30.530  1.00  0.00    -0.027 C
HETATM   11  C12 UNL     1      48.670  27.964  29.489  1.00  0.00     0.016 C
HETATM   12  C13 UNL     1      49.413  28.846  31.637  1.00  0.00     0.048 C
HETATM   13  C14 UNL     1      50.200  28.609  32.879  1.00  0.00     0.012 C
HETATM   14  C15 UNL     1      50.147  27.146  33.343  1.00  0.00     0.011 C
HETATM   15  C16 UNL     1      50.702  26.306  32.269  1.00  0.00    -0.035 C
HETATM   16  C17 UNL     1      52.193  26.618  32.172  1.00  0.00     0.016 C
HETATM   17  C18 UNL     1      49.982  26.527  30.933  1.00  0.00     0.005 C
HETATM   18  C19 UNL     1      48.662  25.845  30.962  1.00  0.00     0.038 C
HETATM   19  C20 UNL     1      48.737  24.320  31.189  1.00  0.00     0.127 C
HETATM   20  C21 UNL     1      49.389  24.143  32.499  1.00  0.00    -0.010 C
HETATM   21  C22 UNL     1      48.469  24.398  33.625  1.00  0.00     0.018 C
HETATM   22  C23 UNL     1      50.253  22.965  32.836  1.00  0.00     0.004 C
HETATM   23  C28 UNL     1      51.216  23.997  33.410  1.00  0.00     0.012 C
HETATM   24  C29 UNL     1      50.681  24.846  32.374  1.00  0.00     0.005 C
ENDROOT
BRANCH   1  25
HETATM   25  C5  UNL     1      49.455  34.567  30.384  1.00  0.00     0.113 C
BRANCH  25  26
HETATM   26  C2  UNL     1      48.120  34.794  29.680  1.00  0.00    -0.043 C
HETATM   27  C1  UNL     1      47.043  35.078  30.687  1.00  0.00     0.015 C
HETATM   28  C3  UNL     1      48.287  36.050  28.828  1.00  0.00     0.015 C
HETATM   29  C4  UNL     1      47.726  33.620  28.847  1.00  0.00     0.015 C
ENDBRANCH  25  26
ENDBRANCH   1  25
BRANCH  19  30
HETATM   30  O2  UNL     1      47.396  23.923  31.305  1.00  0.00    -0.395 OA
ATOM     31  H2  UNL     1      47.437  23.097  31.772  1.00  0.00     0.210 HD
ENDBRANCH  19  30
BRANCH  22  32
HETATM   32  C24 UNL     1      50.726  22.109  31.742  1.00  0.00     0.084 C
BRANCH  32  33
HETATM   33  C25 UNL     1      50.336  20.682  31.862  1.00  0.00     0.135 C
HETATM   34  O3  UNL     1      51.064  19.776  31.470  1.00  0.00    -0.298 OA
BRANCH  33  35
HETATM   35  C26 UNL     1      49.040  20.291  32.465  1.00  0.00     0.177 C
BRANCH  35  36
HETATM   36  C27 UNL     1      47.932  20.453  31.457  1.00  0.00     0.238 C
HETATM   37  N3  UNL     1      46.804  21.203  31.838  1.00  0.00    -0.062 NA
HETATM   38  O4  UNL     1      48.077  19.911  30.332  1.00  0.00    -0.276 OA
ENDBRANCH  35  36
ENDBRANCH  33  35
ENDBRANCH  32  33
ENDBRANCH  22  32
TORSDOF 7
ENDMDL