MODEL 5
REMARK VINA RESULT: -6.505008482      2.655      4.300
REMARK  9 active torsions:
REMARK  status: ('A' for Active; 'I' for Inactive)
REMARK    1  A    between atoms: C2_2  and  C3_3
REMARK    2  A    between atoms: C3_3  and  C4_4
REMARK    3  A    between atoms: C4_4  and  C5_5
REMARK    4  A    between atoms: C5_5  and  N1_6
REMARK    5  A    between atoms: C8_9  and  O1_10
REMARK    6  A    between atoms: C15_18  and  O2_19
REMARK    7  A    between atoms: C27_32  and  O3_33
REMARK    8  A    between atoms: C27_32  and  N2_35
REMARK    9  A    between atoms: N2_35  and  C29_37
ROOT
HETATM    1  C29 UNL     1      48.681  34.602  31.814  1.00  0.00     0.186 C
HETATM    2  C30 UNL     1      47.276  34.700  31.298  1.00  0.00     0.105 C
HETATM    3  N3  UNL     1      46.210  34.783  30.886  1.00  0.00    -0.191 NA
ENDROOT
BRANCH   1   4
HETATM    4  N2  UNL     1      49.434  33.875  30.873  1.00  0.00    -0.333 N
HETATM    5  C28 UNL     1      50.529  34.722  30.237  1.00  0.00     0.158 C
BRANCH   4   6
HETATM    6  C27 UNL     1      49.316  32.572  30.411  1.00  0.00     0.147 C
HETATM    7  C2  UNL     1      49.478  31.280  30.988  1.00  0.00    -0.014 C
HETATM    8  C1  UNL     1      50.061  31.361  32.421  1.00  0.00     0.052 C
BRANCH   7   9
HETATM    9  C3  UNL     1      49.301  30.123  30.503  1.00  0.00    -0.002 C
BRANCH   9  10
HETATM   10  C4  UNL     1      49.440  29.120  29.481  1.00  0.00     0.035 C
HETATM   11  C8  UNL     1      50.407  29.161  28.370  1.00  0.00     0.132 C
HETATM   12  C9  UNL     1      51.733  28.510  28.518  1.00  0.00     0.034 C
HETATM   13  C10 UNL     1      51.966  27.583  29.626  1.00  0.00     0.012 C
HETATM   14  C11 UNL     1      50.926  27.418  30.684  1.00  0.00    -0.035 C
HETATM   15  C12 UNL     1      51.372  28.318  31.819  1.00  0.00     0.016 C
HETATM   16  C13 UNL     1      50.982  26.024  31.276  1.00  0.00     0.001 C
HETATM   17  C26 UNL     1      49.580  27.719  30.156  1.00  0.00     0.011 C
HETATM   18  C14 UNL     1      51.219  25.953  32.747  1.00  0.00     0.038 C
HETATM   19  C23 UNL     1      49.754  25.181  31.010  1.00  0.00    -0.004 C
HETATM   20  C15 UNL     1      50.644  24.748  33.443  1.00  0.00     0.127 C
HETATM   21  C16 UNL     1      50.728  23.515  32.616  1.00  0.00    -0.014 C
HETATM   22  C17 UNL     1      52.191  23.071  32.605  1.00  0.00     0.018 C
HETATM   23  C18 UNL     1      49.914  22.379  33.128  1.00  0.00     0.012 C
HETATM   24  C22 UNL     1      50.184  23.749  31.248  1.00  0.00     0.004 C
HETATM   25  C19 UNL     1      49.665  21.564  31.851  1.00  0.00     0.005 C
HETATM   26  C20 UNL     1      49.196  22.705  30.932  1.00  0.00    -0.013 C
HETATM   27  C21 UNL     1      47.776  22.960  31.249  1.00  0.00     0.010 C
HETATM   28  C24 UNL     1      49.394  25.272  29.588  1.00  0.00     0.006 C
HETATM   29  C25 UNL     1      48.994  26.705  29.273  1.00  0.00     0.007 C
BRANCH  10  30
HETATM   30  C5  UNL     1      48.010  29.009  28.835  1.00  0.00     0.287 C
BRANCH  30  31
HETATM   31  N1  UNL     1      46.949  29.560  29.576  1.00  0.00     0.081 N
HETATM   32  C6  UNL     1      46.323  30.548  28.621  1.00  0.00     0.309 C
HETATM   33  C7  UNL     1      45.846  28.773  29.980  1.00  0.00     0.309 C
ENDBRANCH  30  31
ENDBRANCH  10  30
BRANCH  11  34
HETATM   34  O1  UNL     1      50.394  30.293  27.552  1.00  0.00    -0.394 OA
ATOM     35  H1  UNL     1      50.916  31.036  27.830  1.00  0.00     0.210 HD
ENDBRANCH  11  34
BRANCH  20  36
HETATM   36  O2  UNL     1      49.362  24.986  33.970  1.00  0.00    -0.395 OA
ATOM     37  H2  UNL     1      48.970  24.208  34.348  1.00  0.00     0.210 HD
ENDBRANCH  20  36
ENDBRANCH   9  10
ENDBRANCH   7   9
BRANCH   6  38
HETATM   38  O3  UNL     1      48.971  32.555  29.139  1.00  0.00    -0.346 OA
ATOM     39  H3  UNL     1      49.701  32.469  28.539  1.00  0.00     0.219 HD
ENDBRANCH   6  38
ENDBRANCH   4   6
ENDBRANCH   1   4
TORSDOF 9
ENDMDL