MODEL 3
REMARK VINA RESULT: -6.174091942      2.867      5.415
REMARK  16 active torsions:
REMARK  status: ('A' for Active; 'I' for Inactive)
REMARK    1  A    between atoms: C2_2  and  C3_3
REMARK    2  A    between atoms: C3_3  and  C4_4
REMARK    3  A    between atoms: C3_3  and  C32_43
REMARK    4  A    between atoms: C4_4  and  C5_5
REMARK    5  A    between atoms: C5_5  and  N1_6
REMARK       I    between atoms: N1_6  and  C7_8
REMARK    6  A    between atoms: C7_8  and  C8_10
REMARK    7  A    between atoms: C8_10  and  C9_11
REMARK    8  A    between atoms: C8_10  and  N4_22
REMARK    9  A    between atoms: C9_11  and  C10_12
REMARK   10  A    between atoms: C10_12  and  C11_13
REMARK   11  A    between atoms: C11_13  and  C12_14
REMARK   12  A    between atoms: C12_14  and  C13_15
REMARK   13  A    between atoms: C13_15  and  N2_16
REMARK   14  A    between atoms: N4_22  and  C16_23
REMARK   15  A    between atoms: N4_22  and  S2_39
REMARK   16  A    between atoms: C32_43  and  O6_45
ROOT
HETATM    1  C8  UNL     1      41.259  16.003  67.349  1.00  0.00     0.194 C
ENDROOT
BRANCH   1   2
HETATM    2  C7  UNL     1      41.366  15.823  68.810  1.00  0.00     0.243 C
HETATM    3  N1  UNL     1      42.214  16.513  69.687  1.00  0.00    -0.355 N
HETATM    4  C6  UNL     1      43.155  17.508  69.250  1.00  0.00     0.152 C
HETATM    5  O1  UNL     1      40.588  14.931  69.300  1.00  0.00    -0.271 OA
BRANCH   3   6
HETATM    6  C5  UNL     1      42.174  16.219  71.119  1.00  0.00     0.126 C
BRANCH   6   7
HETATM    7  C4  UNL     1      41.419  17.296  71.856  1.00  0.00     0.034 C
BRANCH   7   8
HETATM    8  C3  UNL     1      40.279  16.796  72.679  1.00  0.00     0.086 C
BRANCH   8   9
HETATM    9  C2  UNL     1      38.931  17.203  72.091  1.00  0.00     0.010 C
HETATM   10  C1  UNL     1      38.205  16.003  71.524  1.00  0.00     0.006 C
ENDBRANCH   8   9
BRANCH   8  11
HETATM   11  C32 UNL     1      40.322  17.231  74.093  1.00  0.00     0.262 C
HETATM   12  O5  UNL     1      40.651  16.461  75.013  1.00  0.00    -0.265 OA
BRANCH  11  13
HETATM   13  O6  UNL     1      39.986  18.559  74.439  1.00  0.00    -0.326 OA
HETATM   14  C33 UNL     1      40.849  19.248  75.317  1.00  0.00     0.213 C
ENDBRANCH  11  13
ENDBRANCH   8  11
ENDBRANCH   7   8
ENDBRANCH   6   7
ENDBRANCH   3   6
ENDBRANCH   1   2
BRANCH   1  15
HETATM   15  C9  UNL     1      40.635  14.727  66.791  1.00  0.00     0.036 C
BRANCH  15  16
HETATM   16  C10 UNL     1      41.557  13.851  66.033  1.00  0.00     0.002 C
BRANCH  16  17
HETATM   17  C11 UNL     1      41.764  12.559  66.778  1.00  0.00     0.002 C
BRANCH  17  18
HETATM   18  C12 UNL     1      42.934  12.553  67.713  1.00  0.00     0.022 C
BRANCH  18  19
HETATM   19  C13 UNL     1      43.286  11.186  68.248  1.00  0.00     0.148 C
BRANCH  19  20
HETATM   20  N2  UNL     1      43.663  11.247  69.680  1.00  0.00    -0.297 N
HETATM   21  C14 UNL     1      43.718  12.449  70.276  1.00  0.00     0.160 A
HETATM   22  S1  UNL     1      44.185  12.021  71.864  1.00  0.00    -0.076 SA
HETATM   23  C15 UNL     1      44.273  10.328  71.640  1.00  0.00     0.158 A
HETATM   24  N3  UNL     1      43.937  10.221  70.364  1.00  0.00    -0.303 N
ATOM     25  H3  UNL     1      43.898   9.300  69.928  1.00  0.00     0.186 HD
ENDBRANCH  19  20
ENDBRANCH  18  19
ENDBRANCH  17  18
ENDBRANCH  16  17
ENDBRANCH  15  16
ENDBRANCH   1  15
BRANCH   1  26
HETATM   26  N4  UNL     1      40.621  17.204  66.911  1.00  0.00    -0.262 N
BRANCH  26  27
HETATM   27  C16 UNL     1      39.507  17.755  67.657  1.00  0.00     0.047 A
HETATM   28  C17 UNL     1      39.579  18.762  68.511  1.00  0.00     0.042 A
HETATM   29  C18 UNL     1      38.264  19.037  69.066  1.00  0.00    -0.031 A
HETATM   30  C19 UNL     1      37.763  19.889  69.927  1.00  0.00    -0.014 C
HETATM   31  C29 UNL     1      37.374  18.065  68.438  1.00  0.00    -0.041 A
HETATM   32  C20 UNL     1      36.329  19.956  70.327  1.00  0.00     0.034 C
HETATM   33  C21 UNL     1      35.713  18.607  70.130  1.00  0.00     0.010 C
HETATM   34  C22 UNL     1      35.927  18.011  68.760  1.00  0.00     0.025 C
HETATM   35  C27 UNL     1      34.271  18.659  70.518  1.00  0.00     0.008 C
HETATM   36  C23 UNL     1      35.179  18.850  67.783  1.00  0.00     0.012 C
HETATM   37  C24 UNL     1      33.698  18.898  68.064  1.00  0.00     0.033 C
HETATM   38  C25 UNL     1      33.323  18.351  69.396  1.00  0.00     0.132 C
HETATM   39  O2  UNL     1      32.406  19.214  70.025  1.00  0.00    -0.384 OA
HETATM   40  C26 UNL     1      33.546  19.955  70.425  1.00  0.00     0.180 C
HETATM   41  C28 UNL     1      33.899  17.913  71.768  1.00  0.00     0.020 C
HETATM   42  C30 UNL     1      38.115  17.324  67.617  1.00  0.00     0.038 A
ENDBRANCH  26  27
BRANCH  26  43
HETATM   43  S2  UNL     1      41.049  18.102  65.506  1.00  0.00     0.230 S
HETATM   44  C31 UNL     1      41.158  17.060  64.070  1.00  0.00     0.186 C
HETATM   45  O3  UNL     1      39.974  19.115  65.233  1.00  0.00    -0.206 OA
HETATM   46  O4  UNL     1      42.321  18.894  65.684  1.00  0.00    -0.206 OA
ENDBRANCH  26  43
ENDBRANCH   1  26
TORSDOF 16
ENDMDL