MODEL 3
REMARK VINA RESULT: -6.395860256      2.446      5.683
REMARK  13 active torsions:
REMARK  status: ('A' for Active; 'I' for Inactive)
REMARK    1  A    between atoms: O1_2  and  C2_3
REMARK    2  A    between atoms: C2_3  and  C3_4
REMARK    3  A    between atoms: C3_4  and  N1_5
REMARK    4  A    between atoms: N1_5  and  C5_7
REMARK    5  A    between atoms: C5_7  and  C6_8
REMARK    6  A    between atoms: C6_8  and  C7_9
REMARK    7  A    between atoms: N2_12  and  C10_13
REMARK    8  A    between atoms: C10_13  and  C11_14
REMARK    9  A    between atoms: C11_14  and  C12_15
REMARK   10  A    between atoms: C12_15  and  N3_16
REMARK       I    between atoms: N3_16  and  C14_18
REMARK   11  A    between atoms: C14_18  and  C15_20
REMARK   12  A    between atoms: C27_34  and  C28_35
REMARK   13  A    between atoms: C28_35  and  C29_36
ROOT
HETATM    1  C15 UNL     1      39.542  17.442  72.013  1.00  0.00     0.219 C
HETATM    2  C16 UNL     1      38.499  17.082  70.941  1.00  0.00     0.078 C
HETATM    3  C17 UNL     1      39.069  17.654  69.620  1.00  0.00     0.151 C
HETATM    4  C18 UNL     1      37.926  17.906  68.755  1.00  0.00     0.007 C
HETATM    5  C19 UNL     1      37.757  17.742  67.465  1.00  0.00    -0.085 C
HETATM    6  C20 UNL     1      36.411  18.107  66.841  1.00  0.00     0.043 C
HETATM    7  C21 UNL     1      38.736  17.232  66.477  1.00  0.00     0.033 C
HETATM    8  C22 UNL     1      39.358  18.423  65.789  1.00  0.00     0.005 C
HETATM    9  C23 UNL     1      40.330  18.087  64.714  1.00  0.00     0.014 C
HETATM   10  C24 UNL     1      41.469  17.209  65.111  1.00  0.00     0.081 C
HETATM   11  C25 UNL     1      41.814  16.275  63.937  1.00  0.00     0.020 C
HETATM   12  C26 UNL     1      42.693  17.925  65.493  1.00  0.00     0.263 C
HETATM   13  O3  UNL     1      43.215  18.684  64.607  1.00  0.00    -0.265 OA
HETATM   14  O4  UNL     1      43.334  17.858  66.711  1.00  0.00    -0.315 OA
HETATM   15  C27 UNL     1      42.725  17.864  67.978  1.00  0.00     0.139 C
HETATM   16  C32 UNL     1      42.768  16.457  68.547  1.00  0.00     0.116 C
HETATM   17  C33 UNL     1      42.256  16.383  69.920  1.00  0.00     0.183 C
HETATM   18  O5  UNL     1      43.048  16.227  70.855  1.00  0.00    -0.292 OA
HETATM   19  C34 UNL     1      40.820  16.481  70.311  1.00  0.00     0.332 C
HETATM   20  O6  UNL     1      40.005  16.751  69.211  1.00  0.00    -0.345 OA
HETATM   21  O7  UNL     1      40.753  17.472  71.272  1.00  0.00    -0.339 OA
ENDROOT
BRANCH   1  22
HETATM   22  C14 UNL     1      39.618  16.463  73.095  1.00  0.00     0.248 C
HETATM   23  N3  UNL     1      40.458  16.623  74.216  1.00  0.00    -0.354 N
HETATM   24  C13 UNL     1      41.349  17.741  74.414  1.00  0.00     0.152 C
HETATM   25  O2  UNL     1      38.898  15.428  73.013  1.00  0.00    -0.270 OA
BRANCH  23  26
HETATM   26  C12 UNL     1      40.413  15.570  75.254  1.00  0.00     0.127 C
BRANCH  26  27
HETATM   27  C11 UNL     1      41.652  14.714  75.252  1.00  0.00     0.050 C
BRANCH  27  28
HETATM   28  C10 UNL     1      41.620  13.504  74.409  1.00  0.00     0.274 C
BRANCH  28  29
HETATM   29  N2  UNL     1      42.314  13.732  73.164  1.00  0.00     0.088 N
HETATM   30  C9  UNL     1      41.552  13.292  72.028  1.00  0.00     0.272 C
HETATM   31  C8  UNL     1      41.835  11.862  71.610  1.00  0.00     0.035 C
HETATM   32  C7  UNL     1      43.309  11.597  71.502  1.00  0.00    -0.010 C
HETATM   33  C36 UNL     1      44.061  12.893  71.759  1.00  0.00     0.035 C
HETATM   34  C35 UNL     1      43.674  13.282  73.193  1.00  0.00     0.272 C
BRANCH  32  35
HETATM   35  C6  UNL     1      43.709  10.964  70.170  1.00  0.00     0.035 C
BRANCH  35  36
HETATM   36  C5  UNL     1      42.625  11.242  69.213  1.00  0.00     0.272 C
BRANCH  36  37
HETATM   37  N1  UNL     1      42.970  11.661  67.880  1.00  0.00     0.086 N
HETATM   38  C4  UNL     1      43.574  13.028  68.163  1.00  0.00     0.310 C
BRANCH  37  39
HETATM   39  C3  UNL     1      41.830  12.021  67.042  1.00  0.00     0.297 C
BRANCH  39  40
HETATM   40  C2  UNL     1      41.811  13.465  66.662  1.00  0.00     0.197 C
BRANCH  40  41
HETATM   41  O1  UNL     1      40.562  14.010  66.795  1.00  0.00    -0.394 OA
HETATM   42  C1  UNL     1      39.951  13.606  67.956  1.00  0.00     0.201 C
ENDBRANCH  40  41
ENDBRANCH  39  40
ENDBRANCH  37  39
ENDBRANCH  36  37
ENDBRANCH  35  36
ENDBRANCH  32  35
ENDBRANCH  28  29
ENDBRANCH  27  28
ENDBRANCH  26  27
ENDBRANCH  23  26
ENDBRANCH   1  22
BRANCH  15  43
HETATM   43  C28 UNL     1      43.450  18.766  68.952  1.00  0.00     0.037 C
BRANCH  43  44
HETATM   44  C29 UNL     1      42.602  19.928  69.393  1.00  0.00    -0.020 C
HETATM   45  C30 UNL     1      43.305  21.246  69.289  1.00  0.00     0.009 C
HETATM   46  C31 UNL     1      41.342  20.045  68.538  1.00  0.00     0.009 C
ENDBRANCH  43  44
ENDBRANCH  15  43
TORSDOF 13
ENDMDL