MODEL 3
REMARK VINA RESULT: -6.700870819      0.840      1.076
REMARK  17 active torsions:
REMARK  status: ('A' for Active; 'I' for Inactive)
REMARK    1  A    between atoms: C2_2  and  O1_3
REMARK    2  A    between atoms: O1_3  and  C3_4
REMARK    3  A    between atoms: C3_4  and  C4_6
REMARK    4  A    between atoms: C4_6  and  C5_7
REMARK    5  A    between atoms: C5_7  and  N1_8
REMARK    6  A    between atoms: N1_8  and  C6_9
REMARK    7  A    between atoms: N1_8  and  S1_22
REMARK    8  A    between atoms: C7_10  and  O3_11
REMARK    9  A    between atoms: C7_10  and  N2_13
REMARK   10  A    between atoms: N2_13  and  C9_15
REMARK   11  A    between atoms: C9_15  and  C10_16
REMARK   12  A    between atoms: C10_16  and  N3_17
REMARK   13  A    between atoms: N3_17  and  C11_18
REMARK   14  A    between atoms: N3_17  and  C13_20
REMARK   15  A    between atoms: S1_22  and  C15_25
REMARK   16  A    between atoms: C19_29  and  N4_30
REMARK       I    between atoms: N4_30  and  C21_32
REMARK   17  A    between atoms: C27_39  and  C28_40
ROOT
HETATM    1  S1  UNL     1      41.838  15.917  65.458  1.00  0.00     0.247 S
HETATM    2  O4  UNL     1      41.079  15.469  64.213  1.00  0.00    -0.205 OA
HETATM    3  O5  UNL     1      43.332  15.813  65.186  1.00  0.00    -0.205 OA
ENDROOT
BRANCH   1   4
HETATM    4  N1  UNL     1      41.362  17.535  65.821  1.00  0.00    -0.178 NA
BRANCH   4   5
HETATM    5  C5  UNL     1      40.221  17.916  65.056  1.00  0.00     0.122 C
BRANCH   5   6
HETATM    6  C4  UNL     1      38.950  18.019  65.858  1.00  0.00     0.127 C
BRANCH   6   7
HETATM    7  C3  UNL     1      38.562  19.473  65.917  1.00  0.00     0.259 C
HETATM    8  O2  UNL     1      39.184  20.325  65.224  1.00  0.00    -0.265 OA
BRANCH   7   9
HETATM    9  O1  UNL     1      37.545  19.918  66.709  1.00  0.00    -0.322 OA
BRANCH   9  10
HETATM   10  C2  UNL     1      36.429  19.234  67.165  1.00  0.00     0.174 C
HETATM   11  C1  UNL     1      35.379  19.170  66.081  1.00  0.00     0.034 C
ENDBRANCH   9  10
ENDBRANCH   7   9
ENDBRANCH   6   7
ENDBRANCH   5   6
ENDBRANCH   4   5
BRANCH   4  12
HETATM   12  C6  UNL     1      42.460  18.373  65.959  1.00  0.00     0.132 C
HETATM   13  C7  UNL     1      42.987  18.841  67.203  1.00  0.00     0.149 C
BRANCH  13  14
HETATM   14  O3  UNL     1      44.109  19.542  67.058  1.00  0.00    -0.345 OA
ATOM     15  H3  UNL     1      43.951  20.440  66.791  1.00  0.00     0.219 HD
ENDBRANCH  13  14
BRANCH  13  16
HETATM   16  N2  UNL     1      42.609  18.743  68.545  1.00  0.00    -0.364 N
HETATM   17  C8  UNL     1      42.289  19.897  69.359  1.00  0.00     0.151 C
BRANCH  16  18
HETATM   18  C9  UNL     1      42.457  17.454  69.231  1.00  0.00     0.144 C
BRANCH  18  19
HETATM   19  C10 UNL     1      41.524  17.549  70.423  1.00  0.00     0.146 C
BRANCH  19  20
HETATM   20  N3  UNL     1      40.365  16.764  70.183  1.00  0.00    -0.373 N
BRANCH  20  21
HETATM   21  C11 UNL     1      39.387  17.411  69.429  1.00  0.00     0.058 C
HETATM   22  C12 UNL     1      37.956  17.089  69.770  1.00  0.00     0.055 C
ENDBRANCH  20  21
BRANCH  20  23
HETATM   23  C13 UNL     1      40.009  15.898  71.204  1.00  0.00     0.058 C
HETATM   24  C14 UNL     1      40.659  16.220  72.542  1.00  0.00     0.055 C
ENDBRANCH  20  23
ENDBRANCH  19  20
ENDBRANCH  18  19
ENDBRANCH  16  18
ENDBRANCH  13  16
ENDBRANCH   4  12
ENDBRANCH   1   4
BRANCH   1  25
HETATM   25  C15 UNL     1      41.440  14.809  66.698  1.00  0.00     0.078 A
HETATM   26  C16 UNL     1      40.097  14.622  67.048  1.00  0.00     0.038 A
HETATM   27  C17 UNL     1      39.766  13.810  68.077  1.00  0.00    -0.008 A
HETATM   28  C18 UNL     1      40.714  13.151  68.800  1.00  0.00    -0.015 A
HETATM   29  C32 UNL     1      38.461  13.477  68.668  1.00  0.00     0.022 A
HETATM   30  C19 UNL     1      42.079  13.294  68.498  1.00  0.00     0.045 A
HETATM   31  C24 UNL     1      40.078  12.374  69.846  1.00  0.00     0.082 A
HETATM   32  C23 UNL     1      42.404  14.122  67.450  1.00  0.00     0.055 A
HETATM   33  C25 UNL     1      38.614  12.639  69.727  1.00  0.00    -0.035 A
HETATM   34  C26 UNL     1      37.484  12.258  70.383  1.00  0.00     0.024 A
HETATM   35  C27 UNL     1      36.298  12.743  69.928  1.00  0.00    -0.009 A
HETATM   36  S2  UNL     1      36.764  13.713  68.605  1.00  0.00    -0.093 SA
BRANCH  30  37
HETATM   37  N4  UNL     1      43.025  12.590  69.288  1.00  0.00    -0.322 N
HETATM   38  C20 UNL     1      43.513  11.277  68.950  1.00  0.00     0.159 C
HETATM   39  C21 UNL     1      43.512  13.217  70.454  1.00  0.00     0.220 C
HETATM   40  C22 UNL     1      44.498  12.521  71.357  1.00  0.00     0.117 C
HETATM   41  O6  UNL     1      43.140  14.363  70.773  1.00  0.00    -0.274 OA
ENDBRANCH  30  37
BRANCH  35  42
HETATM   42  C28 UNL     1      34.932  12.483  70.455  1.00  0.00    -0.018 C
HETATM   43  C29 UNL     1      34.344  13.833  70.837  1.00  0.00     0.020 C
HETATM   44  C30 UNL     1      34.076  11.894  69.366  1.00  0.00     0.020 C
HETATM   45  C31 UNL     1      34.970  11.625  71.712  1.00  0.00     0.020 C
ENDBRANCH  35  42
ENDBRANCH   1  25
TORSDOF 17
ENDMDL