MODEL 1
REMARK VINA RESULT: -6.910055319      0.000      0.000
REMARK  15 active torsions:
REMARK  status: ('A' for Active; 'I' for Inactive)
REMARK    1  A    between atoms: C2_2  and  C3_3
REMARK    2  A    between atoms: C3_3  and  N1_4
REMARK    3  A    between atoms: C11_13  and  S1_14
REMARK    4  A    between atoms: S1_14  and  C12_15
REMARK    5  A    between atoms: C14_17  and  C15_18
REMARK       I    between atoms: C15_18  and  N2_20
REMARK    6  A    between atoms: N2_20  and  C17_22
REMARK    7  A    between atoms: N3_25  and  C20_26
REMARK    8  A    between atoms: C21_27  and  O3_28
REMARK    9  A    between atoms: C21_27  and  N4_30
REMARK   10  A    between atoms: C24_33  and  C25_34
REMARK   11  A    between atoms: C25_34  and  C26_35
REMARK   12  A    between atoms: C26_35  and  C27_36
REMARK   13  A    between atoms: C27_36  and  C28_37
REMARK   14  A    between atoms: C28_37  and  C29_38
REMARK   15  A    between atoms: C29_38  and  C30_39
ROOT
HETATM    1  C12 UNL     1      37.950  14.588  69.770  1.00  0.00     0.071 C
HETATM    2  C13 UNL     1      38.688  14.793  71.052  1.00  0.00     0.080 C
HETATM    3  C14 UNL     1      39.401  16.101  70.801  1.00  0.00     0.081 C
HETATM    4  N3  UNL     1      38.532  16.874  70.069  1.00  0.00    -0.350 N
HETATM    5  C36 UNL     1      37.838  16.010  69.181  1.00  0.00     0.144 C
ENDROOT
BRANCH   4   6
HETATM    6  C20 UNL     1      38.281  18.198  70.052  1.00  0.00     0.146 C
HETATM    7  C21 UNL     1      37.995  19.131  69.021  1.00  0.00     0.153 C
BRANCH   7   8
HETATM    8  O3  UNL     1      37.706  20.334  69.496  1.00  0.00    -0.345 OA
ATOM      9  H3  UNL     1      36.929  20.329  70.042  1.00  0.00     0.219 HD
ENDBRANCH   7   8
BRANCH   7  10
HETATM   10  N4  UNL     1      37.945  19.113  67.628  1.00  0.00    -0.361 N
HETATM   11  C22 UNL     1      37.308  18.141  66.768  1.00  0.00     0.125 C
HETATM   12  C23 UNL     1      38.409  17.353  66.054  1.00  0.00     0.024 C
HETATM   13  C24 UNL     1      39.593  18.202  65.751  1.00  0.00    -0.012 C
HETATM   14  C34 UNL     1      39.084  19.609  65.508  1.00  0.00     0.024 C
HETATM   15  C35 UNL     1      38.587  20.206  66.830  1.00  0.00     0.125 C
BRANCH  13  16
HETATM   16  C25 UNL     1      40.318  17.712  64.551  1.00  0.00     0.005 C
BRANCH  16  17
HETATM   17  C26 UNL     1      41.167  16.478  64.798  1.00  0.00     0.000 C
BRANCH  17  18
HETATM   18  C27 UNL     1      42.601  16.857  65.090  1.00  0.00     0.000 C
BRANCH  18  19
HETATM   19  C28 UNL     1      42.755  18.339  65.329  1.00  0.00     0.001 C
BRANCH  19  20
HETATM   20  C29 UNL     1      43.137  18.647  66.754  1.00  0.00     0.015 C
BRANCH  20  21
HETATM   21  C30 UNL     1      42.906  17.532  67.718  1.00  0.00     0.087 C
HETATM   22  C31 UNL     1      41.656  17.768  68.531  1.00  0.00     0.041 C
HETATM   23  C32 UNL     1      42.123  18.872  69.461  1.00  0.00     0.179 C
HETATM   24  O4  UNL     1      43.526  18.653  69.605  1.00  0.00    -0.321 OA
HETATM   25  C33 UNL     1      43.957  17.634  68.780  1.00  0.00     0.263 C
HETATM   26  O5  UNL     1      44.982  16.915  68.842  1.00  0.00    -0.265 OA
ENDBRANCH  20  21
ENDBRANCH  19  20
ENDBRANCH  18  19
ENDBRANCH  17  18
ENDBRANCH  16  17
ENDBRANCH  13  16
ENDBRANCH   7  10
ENDBRANCH   4   6
BRANCH   3  27
HETATM   27  C15 UNL     1      40.181  16.644  71.878  1.00  0.00     0.266 C
HETATM   28  O2  UNL     1      39.669  17.457  72.680  1.00  0.00    -0.266 OA
HETATM   29  N2  UNL     1      41.527  16.315  72.100  1.00  0.00    -0.347 N
HETATM   30  C16 UNL     1      42.317  15.424  71.278  1.00  0.00     0.153 C
BRANCH  29  31
HETATM   31  C17 UNL     1      42.213  16.907  73.255  1.00  0.00     0.087 A
HETATM   32  C18 UNL     1      43.010  18.157  73.091  1.00  0.00     0.027 A
HETATM   33  C19 UNL     1      43.657  16.815  73.442  1.00  0.00     0.027 A
ENDBRANCH  29  31
ENDBRANCH   3  27
BRANCH   1  34
HETATM   34  S1  UNL     1      38.778  13.594  68.608  1.00  0.00    -0.157 SA
BRANCH  34  35
HETATM   35  C11 UNL     1      40.508  13.335  68.623  1.00  0.00     0.061 C
HETATM   36  C5  UNL     1      40.855  11.892  68.822  1.00  0.00     0.093 C
HETATM   37  C4  UNL     1      41.545  11.811  70.178  1.00  0.00     0.225 C
HETATM   38  C6  UNL     1      41.889  11.352  67.898  1.00  0.00     0.040 C
HETATM   39  N1  UNL     1      42.883  11.428  69.936  1.00  0.00    -0.344 N
HETATM   40  O1  UNL     1      40.979  12.050  71.266  1.00  0.00    -0.273 OA
HETATM   41  C7  UNL     1      43.192  11.790  68.537  1.00  0.00     0.088 C
HETATM   42  C8  UNL     1      43.355  13.292  68.517  1.00  0.00     0.025 C
HETATM   43  C9  UNL     1      42.642  13.947  67.390  1.00  0.00     0.003 C
HETATM   44  C10 UNL     1      41.181  13.862  67.356  1.00  0.00     0.016 C
BRANCH  39  45
HETATM   45  C3  UNL     1      43.784  10.808  70.857  1.00  0.00     0.152 C
BRANCH  45  46
HETATM   46  C2  UNL     1      44.548  11.877  71.574  1.00  0.00    -0.017 C
HETATM   47  C1  UNL     1      44.134  12.292  72.767  1.00  0.00     0.008 C
ENDBRANCH  45  46
ENDBRANCH  39  45
ENDBRANCH  34  35
ENDBRANCH   1  34
TORSDOF 15
ENDMDL