MODEL 1
REMARK VINA RESULT: -7.357782415      0.000      0.000
REMARK  14 active torsions:
REMARK  status: ('A' for Active; 'I' for Inactive)
REMARK    1  A    between atoms: C2_2  and  C4_4
REMARK    2  A    between atoms: C6_6  and  C7_7
REMARK    3  A    between atoms: C7_7  and  C9_9
REMARK    4  A    between atoms: C9_9  and  C10_10
REMARK    5  A    between atoms: C10_10  and  C11_11
REMARK    6  A    between atoms: C11_11  and  N1_12
REMARK    7  A    between atoms: C14_15  and  N2_16
REMARK    8  A    between atoms: N3_21  and  C19_22
REMARK    9  A    between atoms: C19_22  and  C20_23
REMARK   10  A    between atoms: C20_23  and  C21_24
REMARK   11  A    between atoms: N4_27  and  C24_28
REMARK   12  A    between atoms: C24_28  and  C25_29
REMARK   13  A    between atoms: C25_29  and  C26_30
REMARK   14  A    between atoms: C26_30  and  S1_31
ROOT
HETATM    1  N2  UNL     1      41.268  13.826  67.766  1.00  0.00    -0.212 N
HETATM    2  C15 UNL     1      42.641  14.017  68.147  1.00  0.00     0.141 C
HETATM    3  C16 UNL     1      43.324  12.668  68.083  1.00  0.00     0.022 C
HETATM    4  C17 UNL     1      43.091  11.941  69.377  1.00  0.00     0.022 C
HETATM    5  C18 UNL     1      41.829  11.150  69.432  1.00  0.00     0.141 C
HETATM    6  N3  UNL     1      40.620  11.982  69.457  1.00  0.00    -0.217 N
HETATM    7  C30 UNL     1      40.305  12.996  68.520  1.00  0.00     0.687 C
HETATM    8  N5  UNL     1      39.117  13.234  68.293  1.00  0.00    -0.126 N
ATOM      9  H5  UNL     1      39.102  13.986  67.604  1.00  0.00     0.197 HD
HETATM   10  C31 UNL     1      37.856  12.942  68.548  1.00  0.00     0.196 C
HETATM   11  N6  UNL     1      36.764  12.695  68.743  1.00  0.00    -0.171 NA
ENDROOT
BRANCH   1  12
HETATM   12  C14 UNL     1      40.716  14.435  66.594  1.00  0.00     0.105 C
HETATM   13  C13 UNL     1      41.545  14.336  65.362  1.00  0.00     0.056 C
HETATM   14  C12 UNL     1      42.275  15.596  64.971  1.00  0.00     0.274 C
HETATM   15  N1  UNL     1      41.327  16.629  64.722  1.00  0.00     0.088 N
HETATM   16  C33 UNL     1      40.102  16.488  65.462  1.00  0.00     0.274 C
HETATM   17  C32 UNL     1      40.392  15.918  66.840  1.00  0.00     0.056 C
BRANCH  15  18
HETATM   18  C11 UNL     1      41.828  17.963  64.948  1.00  0.00     0.272 C
BRANCH  18  19
HETATM   19  C10 UNL     1      42.911  18.055  65.947  1.00  0.00     0.031 C
BRANCH  19  20
HETATM   20  C9  UNL     1      42.852  19.213  66.854  1.00  0.00     0.008 C
BRANCH  20  21
HETATM   21  C7  UNL     1      42.545  19.024  68.289  1.00  0.00     0.011 C
HETATM   22  C8  UNL     1      42.859  17.674  68.865  1.00  0.00     0.012 C
BRANCH  21  23
HETATM   23  C6  UNL     1      41.233  19.575  68.767  1.00  0.00     0.136 C
HETATM   24  C5  UNL     1      40.172  19.785  67.759  1.00  0.00     0.048 C
HETATM   25  C4  UNL     1      38.852  19.383  68.457  1.00  0.00     0.091 C
HETATM   26  C34 UNL     1      39.369  18.318  69.344  1.00  0.00     0.263 C
HETATM   27  O3  UNL     1      40.635  18.717  69.729  1.00  0.00    -0.315 OA
HETATM   28  O4  UNL     1      38.820  17.264  69.702  1.00  0.00    -0.265 OA
BRANCH  25  29
HETATM   29  C2  UNL     1      37.864  18.887  67.433  1.00  0.00    -0.009 C
HETATM   30  C1  UNL     1      36.444  19.142  67.811  1.00  0.00     0.010 C
HETATM   31  C3  UNL     1      38.113  19.590  66.117  1.00  0.00     0.010 C
ENDBRANCH  25  29
ENDBRANCH  21  23
ENDBRANCH  20  21
ENDBRANCH  19  20
ENDBRANCH  18  19
ENDBRANCH  15  18
ENDBRANCH   1  12
BRANCH   6  32
HETATM   32  C19 UNL     1      39.769  11.687  70.588  1.00  0.00     0.141 C
BRANCH  32  33
HETATM   33  C20 UNL     1      39.706  10.223  70.938  1.00  0.00     0.025 C
BRANCH  33  34
HETATM   34  C21 UNL     1      38.663   9.452  70.207  1.00  0.00    -0.007 C
HETATM   35  C22 UNL     1      38.934   7.957  70.236  1.00  0.00     0.024 C
HETATM   36  C23 UNL     1      38.092   7.354  69.144  1.00  0.00     0.122 C
HETATM   37  N4  UNL     1      36.690   7.520  69.492  1.00  0.00    -0.393 N
HETATM   38  C28 UNL     1      36.480   8.331  70.623  1.00  0.00     0.058 C
HETATM   39  C29 UNL     1      37.255   9.652  70.625  1.00  0.00     0.049 C
BRANCH  37  40
HETATM   40  C24 UNL     1      35.849   7.647  68.366  1.00  0.00     0.122 C
BRANCH  40  41
HETATM   41  C25 UNL     1      36.485   8.439  67.267  1.00  0.00     0.035 C
BRANCH  41  42
HETATM   42  C26 UNL     1      35.486   8.589  66.119  1.00  0.00     0.141 C
BRANCH  42  43
HETATM   43  S1  UNL     1      36.259   7.816  64.714  1.00  0.00     0.140 S
HETATM   44  C27 UNL     1      35.658   6.165  64.507  1.00  0.00     0.161 C
HETATM   45  O1  UNL     1      37.762   7.766  64.922  1.00  0.00    -0.228 OA
HETATM   46  O2  UNL     1      35.895   8.621  63.502  1.00  0.00    -0.228 OA
ENDBRANCH  42  43
ENDBRANCH  41  42
ENDBRANCH  40  41
ENDBRANCH  37  40
ENDBRANCH  33  34
ENDBRANCH  32  33
ENDBRANCH   6  32
TORSDOF 14
ENDMDL