MODEL 2
REMARK VINA RESULT: -6.223330792      1.885      2.156
REMARK  17 active torsions:
REMARK  status: ('A' for Active; 'I' for Inactive)
REMARK    1  A    between atoms: C2_2  and  O1_3
REMARK    2  A    between atoms: O1_3  and  C3_4
REMARK    3  A    between atoms: C3_4  and  C4_6
REMARK    4  A    between atoms: C5_7  and  C6_8
REMARK    5  A    between atoms: C6_8  and  C7_9
REMARK    6  A    between atoms: C7_9  and  C8_10
REMARK       I    between atoms: C8_10  and  N1_12
REMARK    7  A    between atoms: N1_12  and  C9_13
REMARK    8  A    between atoms: N1_12  and  C11_15
REMARK    9  A    between atoms: N2_20  and  C15_21
REMARK   10  A    between atoms: C15_21  and  C16_22
REMARK   11  A    between atoms: C16_22  and  C17_23
REMARK   12  A    between atoms: C17_23  and  C18_24
REMARK   13  A    between atoms: C19_25  and  S2_26
REMARK       I    between atoms: N3_30  and  C22_32
REMARK   14  A    between atoms: C22_32  and  C23_34
REMARK   15  A    between atoms: C26_37  and  C27_38
REMARK   16  A    between atoms: C27_38  and  O7_40
REMARK   17  A    between atoms: O7_40  and  C28_41
ROOT
HETATM    1  C4  UNL     1      40.714  18.160  66.619  1.00  0.00     0.121 C
HETATM    2  C5  UNL     1      40.011  19.111  67.155  1.00  0.00     0.013 C
HETATM    3  S1  UNL     1      40.430  19.094  68.932  1.00  0.00    -0.104 SA
HETATM    4  C13 UNL     1      42.030  18.188  68.604  1.00  0.00     0.171 C
HETATM    5  C14 UNL     1      42.504  17.544  69.834  1.00  0.00     0.160 C
HETATM    6  N2  UNL     1      43.123  16.242  69.586  1.00  0.00    -0.366 N
HETATM    7  C21 UNL     1      42.380  15.400  68.718  1.00  0.00     0.115 C
HETATM    8  N3  UNL     1      42.194  14.174  68.885  1.00  0.00    -0.314 N
ATOM      9  H3  UNL     1      41.629  13.800  68.123  1.00  0.00     0.170 HD
HETATM   10  C22 UNL     1      42.510  13.181  69.764  1.00  0.00     0.226 C
HETATM   11  O5  UNL     1      42.000  13.086  70.931  1.00  0.00    -0.273 OA
HETATM   12  C26 UNL     1      41.734  15.973  67.470  1.00  0.00     0.254 C
HETATM   13  N4  UNL     1      41.500  17.367  67.555  1.00  0.00    -0.339 N
ENDROOT
BRANCH   2  14
HETATM   14  C6  UNL     1      39.076  20.124  66.654  1.00  0.00     0.058 C
BRANCH  14  15
HETATM   15  C7  UNL     1      38.059  20.521  67.723  1.00  0.00     0.108 C
BRANCH  15  16
HETATM   16  C8  UNL     1      36.919  19.583  67.740  1.00  0.00     0.220 C
HETATM   17  O3  UNL     1      36.483  19.145  66.645  1.00  0.00    -0.273 OA
HETATM   18  N1  UNL     1      36.290  19.152  68.935  1.00  0.00    -0.353 N
BRANCH  18  19
HETATM   19  C9  UNL     1      36.801  19.645  70.194  1.00  0.00     0.121 C
HETATM   20  C10 UNL     1      37.085  18.402  71.049  1.00  0.00     0.026 C
ENDBRANCH  18  19
BRANCH  18  21
HETATM   21  C11 UNL     1      35.159  18.252  68.954  1.00  0.00     0.121 C
HETATM   22  C12 UNL     1      33.850  18.987  68.802  1.00  0.00     0.026 C
ENDBRANCH  18  21
ENDBRANCH  15  16
ENDBRANCH  14  15
ENDBRANCH   2  14
BRANCH   1  23
HETATM   23  C3  UNL     1      40.716  17.861  65.167  1.00  0.00     0.311 C
HETATM   24  O2  UNL     1      39.692  17.399  64.588  1.00  0.00    -0.258 OA
BRANCH  23  25
HETATM   25  O1  UNL     1      41.836  18.080  64.421  1.00  0.00    -0.317 OA
BRANCH  25  26
HETATM   26  C2  UNL     1      42.971  17.277  64.416  1.00  0.00     0.175 C
HETATM   27  C1  UNL     1      42.576  15.868  64.031  1.00  0.00     0.034 C
ENDBRANCH  25  26
ENDBRANCH  23  25
ENDBRANCH   1  23
BRANCH  12  28
HETATM   28  C27 UNL     1      40.545  15.148  67.130  1.00  0.00     0.290 C
HETATM   29  O6  UNL     1      40.665  14.120  66.400  1.00  0.00    -0.262 OA
BRANCH  28  30
HETATM   30  O7  UNL     1      39.256  15.417  67.563  1.00  0.00    -0.309 OA
BRANCH  30  31
HETATM   31  C28 UNL     1      38.677  14.852  68.726  1.00  0.00     0.060 C
HETATM   32  C29 UNL     1      38.877  13.363  68.804  1.00  0.00     0.045 C
HETATM   33  C30 UNL     1      37.162  15.066  68.608  1.00  0.00     0.045 C
HETATM   34  C31 UNL     1      39.176  15.471  69.995  1.00  0.00     0.045 C
ENDBRANCH  30  31
ENDBRANCH  28  30
ENDBRANCH  12  28
BRANCH   6  35
HETATM   35  C15 UNL     1      44.379  15.859  70.112  1.00  0.00     0.124 C
BRANCH  35  36
HETATM   36  C16 UNL     1      44.494  15.600  71.566  1.00  0.00     0.023 C
BRANCH  36  37
HETATM   37  C17 UNL     1      45.669  14.625  71.733  1.00  0.00     0.029 C
BRANCH  37  38
HETATM   38  C18 UNL     1      45.277  13.401  72.450  1.00  0.00    -0.018 C
HETATM   39  C19 UNL     1      46.047  12.394  72.736  1.00  0.00     0.074 C
BRANCH  39  40
HETATM   40  S2  UNL     1      45.420  11.010  73.599  1.00  0.00     0.034 S
HETATM   41  C20 UNL     1      45.924   9.531  72.759  1.00  0.00     0.132 C
HETATM   42  O4  UNL     1      45.898  10.952  75.188  1.00  0.00    -0.254 OA
ENDBRANCH  39  40
ENDBRANCH  37  38
ENDBRANCH  36  37
ENDBRANCH  35  36
ENDBRANCH   6  35
BRANCH  10  43
HETATM   43  C23 UNL     1      43.504  12.116  69.383  1.00  0.00     0.070 C
HETATM   44  C24 UNL     1      43.300  11.703  67.957  1.00  0.00     0.019 C
HETATM   45  C25 UNL     1      43.417  10.925  70.291  1.00  0.00     0.019 C
ENDBRANCH  10  43
TORSDOF 17
ENDMDL