MODEL 4
REMARK VINA RESULT: -6.134013065      2.487      6.473
REMARK  17 active torsions:
REMARK  status: ('A' for Active; 'I' for Inactive)
REMARK    1  A    between atoms: C2_2  and  N1_3
REMARK    2  A    between atoms: N1_3  and  C3_4
REMARK    3  A    between atoms: N1_3  and  C5_6
REMARK    4  A    between atoms: C5_6  and  C6_7
REMARK    5  A    between atoms: C6_7  and  O1_8
REMARK    6  A    between atoms: C6_7  and  N2_10
REMARK    7  A    between atoms: N2_10  and  C7_11
REMARK    8  A    between atoms: N2_10  and  C13_19
REMARK    9  A    between atoms: C7_11  and  C8_12
REMARK   10  A    between atoms: C8_12  and  C9_13
REMARK   11  A    between atoms: C9_13  and  O3_15
REMARK   12  A    between atoms: O3_15  and  C10_16
REMARK   13  A    between atoms: C13_19  and  N3_20
REMARK   14  A    between atoms: C15_25  and  C16_26
REMARK   15  A    between atoms: C19_29  and  O5_30
REMARK   16  A    between atoms: C21_32  and  C23_34
REMARK   17  A    between atoms: C31_42  and  C32_43
ROOT
HETATM    1  N3  UNL     1      39.741  19.120  68.600  1.00  0.00    -0.183 N
HETATM    2  O4  UNL     1      39.820  17.928  69.404  1.00  0.00    -0.209 OA
HETATM    3  C14 UNL     1      38.764  17.335  70.085  1.00  0.00     0.179 C
HETATM    4  N4  UNL     1      38.826  16.064  69.720  1.00  0.00    -0.339 N
ATOM      5  H4  UNL     1      39.601  15.803  69.110  1.00  0.00     0.167 HD
HETATM    6  C15 UNL     1      37.941  15.038  70.081  1.00  0.00     0.022 C
HETATM    7  C19 UNL     1      37.334  15.011  71.479  1.00  0.00     0.179 C
HETATM    8  C21 UNL     1      37.819  15.990  72.420  1.00  0.00     0.019 C
HETATM    9  C22 UNL     1      37.184  15.635  73.824  1.00  0.00     0.024 C
HETATM   10  C29 UNL     1      37.165  17.316  72.061  1.00  0.00     0.062 C
HETATM   11  C30 UNL     1      37.736  18.025  70.902  1.00  0.00     0.019 C
HETATM   12  C31 UNL     1      36.869  18.961  70.112  1.00  0.00     0.025 C
HETATM   13  N5  UNL     1      37.378  19.545  69.113  1.00  0.00    -0.334 N
ATOM     14  H5  UNL     1      36.641  20.129  68.718  1.00  0.00     0.168 HD
HETATM   15  C35 UNL     1      38.517  19.747  68.300  1.00  0.00     0.204 C
HETATM   16  S1  UNL     1      38.456  20.798  67.104  1.00  0.00    -0.038 SA
ENDROOT
BRANCH   1  17
HETATM   17  C13 UNL     1      41.056  19.548  68.366  1.00  0.00     0.221 C
BRANCH  17  18
HETATM   18  N2  UNL     1      42.134  18.822  67.865  1.00  0.00    -0.321 N
BRANCH  18  19
HETATM   19  C6  UNL     1      42.528  18.617  66.579  1.00  0.00     0.153 C
BRANCH  19  20
HETATM   20  C5  UNL     1      42.136  17.698  65.568  1.00  0.00     0.116 C
BRANCH  20  21
HETATM   21  N1  UNL     1      41.135  16.693  65.905  1.00  0.00    -0.290 NA
BRANCH  21  22
HETATM   22  C2  UNL     1      39.853  17.107  65.260  1.00  0.00     0.090 C
HETATM   23  C1  UNL     1      38.769  16.571  66.211  1.00  0.00     0.021 C
ENDBRANCH  21  22
BRANCH  21  24
HETATM   24  C3  UNL     1      41.499  15.513  65.010  1.00  0.00     0.090 C
HETATM   25  C4  UNL     1      41.588  14.234  65.710  1.00  0.00     0.021 C
ENDBRANCH  21  24
ENDBRANCH  20  21
ENDBRANCH  19  20
BRANCH  19  26
HETATM   26  O1  UNL     1      43.569  19.448  66.336  1.00  0.00    -0.345 OA
ATOM     27  H1  UNL     1      44.012  19.851  67.072  1.00  0.00     0.219 HD
ENDBRANCH  19  26
ENDBRANCH  18  19
BRANCH  18  28
HETATM   28  C7  UNL     1      43.190  18.507  68.892  1.00  0.00     0.141 C
BRANCH  28  29
HETATM   29  C8  UNL     1      42.793  16.997  69.123  1.00  0.00     0.131 C
BRANCH  29  30
HETATM   30  C9  UNL     1      44.034  16.327  68.857  1.00  0.00     0.260 C
HETATM   31  O2  UNL     1      45.110  16.995  69.010  1.00  0.00    -0.265 OA
BRANCH  30  32
HETATM   32  O3  UNL     1      44.091  15.003  68.478  1.00  0.00    -0.317 OA
BRANCH  32  33
HETATM   33  C10 UNL     1      43.412  14.007  69.159  1.00  0.00     0.123 C
HETATM   34  C11 UNL     1      43.389  12.648  68.629  1.00  0.00     0.040 C
HETATM   35  C12 UNL     1      44.085  13.939  70.565  1.00  0.00     0.040 C
ENDBRANCH  32  33
ENDBRANCH  30  32
ENDBRANCH  29  30
ENDBRANCH  28  29
ENDBRANCH  18  28
ENDBRANCH  17  18
ENDBRANCH   1  17
BRANCH  12  36
HETATM   36  C32 UNL     1      35.445  19.139  70.363  1.00  0.00     0.028 C
HETATM   37  C33 UNL     1      35.070  20.373  71.172  1.00  0.00     0.016 C
HETATM   38  C34 UNL     1      34.624  19.058  69.063  1.00  0.00     0.016 C
ENDBRANCH  12  36
BRANCH   6  39
HETATM   39  C16 UNL     1      38.410  13.671  69.647  1.00  0.00     0.026 C
HETATM   40  C17 UNL     1      37.581  13.057  68.545  1.00  0.00     0.016 C
HETATM   41  C18 UNL     1      39.779  13.891  68.896  1.00  0.00     0.016 C
ENDBRANCH   6  39
BRANCH   7  42
HETATM   42  O5  UNL     1      37.315  13.652  71.864  1.00  0.00    -0.384 OA
HETATM   43  C20 UNL     1      36.121  13.057  72.043  1.00  0.00     0.202 C
ENDBRANCH   7  42
BRANCH   8  44
HETATM   44  C23 UNL     1      39.212  16.044  72.805  1.00  0.00    -0.047 A
HETATM   45  C24 UNL     1      40.029  14.976  72.668  1.00  0.00     0.008 A
HETATM   46  C25 UNL     1      41.345  14.966  73.132  1.00  0.00     0.001 A
HETATM   47  C26 UNL     1      41.848  16.118  73.692  1.00  0.00     0.000 A
HETATM   48  C27 UNL     1      41.017  17.204  73.835  1.00  0.00     0.001 A
HETATM   49  C28 UNL     1      39.687  17.163  73.427  1.00  0.00     0.008 A
ENDBRANCH   8  44
TORSDOF 17
ENDMDL