MODEL 2
REMARK VINA RESULT: -6.544242459      3.572      8.919
REMARK  15 active torsions:
REMARK  status: ('A' for Active; 'I' for Inactive)
REMARK    1  A    between atoms: C2_2  and  O1_3
REMARK    2  A    between atoms: O1_3  and  C3_4
REMARK       I    between atoms: C3_4  and  N1_6
REMARK    3  A    between atoms: N1_6  and  C4_7
REMARK    4  A    between atoms: C8_11  and  C9_12
REMARK    5  A    between atoms: C10_14  and  C11_15
REMARK    6  A    between atoms: C11_15  and  C12_16
REMARK    7  A    between atoms: C12_16  and  N2_17
REMARK    8  A    between atoms: C15_20  and  C16_21
REMARK    9  A    between atoms: C16_21  and  N3_22
REMARK   10  A    between atoms: C18_26  and  N5_27
REMARK   11  A    between atoms: C24_35  and  O6_36
REMARK   12  A    between atoms: O6_36  and  C25_37
REMARK   13  A    between atoms: C25_37  and  C26_38
REMARK   14  A    between atoms: C26_38  and  N6_39
REMARK   15  A    between atoms: C32_45  and  C33_46
ROOT
HETATM    1  C9  UNL     1      41.225  18.896  66.576  1.00  0.00     0.155 C
HETATM    2  O3  UNL     1      42.156  18.142  65.919  1.00  0.00    -0.378 OA
HETATM    3  C10 UNL     1      41.598  17.656  64.741  1.00  0.00     0.126 C
HETATM    4  C23 UNL     1      40.160  17.430  65.094  1.00  0.00     0.066 C
HETATM    5  C24 UNL     1      39.871  18.600  66.013  1.00  0.00     0.153 C
ENDROOT
BRANCH   3   6
HETATM    6  C11 UNL     1      42.254  16.303  64.508  1.00  0.00     0.052 C
BRANCH   6   7
HETATM    7  C12 UNL     1      41.399  15.169  64.954  1.00  0.00     0.130 C
BRANCH   7   8
HETATM    8  N2  UNL     1      42.019  14.403  66.052  1.00  0.00    -0.366 N
HETATM    9  C13 UNL     1      42.977  14.820  66.887  1.00  0.00     0.091 A
HETATM   10  C14 UNL     1      43.277  13.806  67.763  1.00  0.00     0.027 A
HETATM   11  C15 UNL     1      42.480  12.724  67.463  1.00  0.00    -0.013 A
HETATM   12  C22 UNL     1      41.717  13.140  66.396  1.00  0.00     0.099 A
BRANCH  11  13
HETATM   13  C16 UNL     1      42.464  11.413  68.151  1.00  0.00     0.316 C
BRANCH  13  14
HETATM   14  N3  UNL     1      41.713  11.425  69.367  1.00  0.00     0.126 N
HETATM   15  C17 UNL     1      40.597  10.529  69.386  1.00  0.00     0.398 C
HETATM   16  N4  UNL     1      40.546  10.072  70.740  1.00  0.00    -0.347 N
HETATM   17  C18 UNL     1      41.557  10.454  71.430  1.00  0.00     0.186 C
ATOM     18  H4  UNL     1      39.787   9.505  71.116  1.00  0.00     0.162 HD
HETATM   19  C19 UNL     1      42.461  11.263  70.554  1.00  0.00     0.218 C
HETATM   20  C20 UNL     1      42.797  12.516  71.294  1.00  0.00     0.058 C
HETATM   21  C21 UNL     1      43.770  10.508  70.320  1.00  0.00     0.058 C
BRANCH  17  22
HETATM   22  N5  UNL     1      41.821  10.175  72.811  1.00  0.00    -0.100 N
HETATM   23  O4  UNL     1      42.677   9.349  73.180  1.00  0.00    -0.531 OA
HETATM   24  O5  UNL     1      41.103  10.846  73.770  1.00  0.00    -0.531 OA
ENDBRANCH  17  22
ENDBRANCH  13  14
ENDBRANCH  11  13
ENDBRANCH   7   8
ENDBRANCH   6   7
ENDBRANCH   3   6
BRANCH   1  25
HETATM   25  C8  UNL     1      41.336  18.614  68.075  1.00  0.00     0.019 C
HETATM   26  C7  UNL     1      42.495  17.654  68.254  1.00  0.00     0.036 C
HETATM   27  C6  UNL     1      43.094  17.631  69.610  1.00  0.00     0.251 C
HETATM   28  N1  UNL     1      42.378  16.970  70.654  1.00  0.00     0.024 N
HETATM   29  C3  UNL     1      42.307  17.877  71.762  1.00  0.00     0.459 C
HETATM   30  C32 UNL     1      41.064  16.530  70.277  1.00  0.00     0.206 C
HETATM   31  O2  UNL     1      43.081  18.891  71.853  1.00  0.00    -0.231 OA
HETATM   32  C31 UNL     1      40.185  17.727  70.071  1.00  0.00     0.035 C
HETATM   33  C30 UNL     1      40.047  18.069  68.581  1.00  0.00     0.009 C
BRANCH  28  34
HETATM   34  C4  UNL     1      43.224  15.870  71.119  1.00  0.00     0.246 C
HETATM   35  C5  UNL     1      44.573  15.871  70.444  1.00  0.00     0.035 C
ENDBRANCH  28  34
BRANCH  29  36
HETATM   36  O1  UNL     1      41.416  17.753  72.815  1.00  0.00    -0.299 OA
BRANCH  36  37
HETATM   37  C2  UNL     1      41.831  17.590  74.157  1.00  0.00     0.176 C
HETATM   38  C1  UNL     1      41.823  16.152  74.581  1.00  0.00     0.034 C
ENDBRANCH  36  37
ENDBRANCH  29  36
BRANCH  30  39
HETATM   39  C33 UNL     1      40.447  15.501  71.158  1.00  0.00     0.017 A
HETATM   40  C34 UNL     1      39.805  14.358  70.350  1.00  0.00     0.007 A
HETATM   41  C35 UNL     1      39.034  15.202  71.278  1.00  0.00     0.007 A
ENDBRANCH  30  39
ENDBRANCH   1  25
BRANCH   5  42
HETATM   42  O6  UNL     1      39.429  19.712  65.305  1.00  0.00    -0.382 OA
BRANCH  42  43
HETATM   43  C25 UNL     1      38.081  19.981  65.471  1.00  0.00     0.196 C
BRANCH  43  44
HETATM   44  C26 UNL     1      37.577  19.839  66.866  1.00  0.00     0.262 C
BRANCH  44  45
HETATM   45  N6  UNL     1      36.465  18.942  66.919  1.00  0.00    -0.077 N
HETATM   46  C27 UNL     1      36.787  17.549  66.765  1.00  0.00     0.271 C
HETATM   47  C28 UNL     1      35.785  19.054  68.220  1.00  0.00     0.271 C
HETATM   48  C29 UNL     1      35.443  19.255  65.924  1.00  0.00     0.271 C
ENDBRANCH  44  45
ENDBRANCH  43  44
ENDBRANCH  42  43
ENDBRANCH   5  42
TORSDOF 15
ENDMDL