MODEL 3
REMARK VINA RESULT: -6.909931660      1.769      2.883
REMARK  15 active torsions:
REMARK  status: ('A' for Active; 'I' for Inactive)
REMARK    1  A    between atoms: C2_2  and  C3_3
REMARK    2  A    between atoms: N1_4  and  C4_5
REMARK    3  A    between atoms: N1_4  and  C17_20
REMARK    4  A    between atoms: C4_5  and  C5_6
REMARK    5  A    between atoms: C17_20  and  C18_21
REMARK    6  A    between atoms: C18_21  and  C20_23
REMARK    7  A    between atoms: C18_21  and  N2_25
REMARK    8  A    between atoms: N2_25  and  C22_26
REMARK    9  A    between atoms: N2_25  and  S2_38
REMARK   10  A    between atoms: C22_26  and  O3_27
REMARK   11  A    between atoms: C22_26  and  N3_29
REMARK   12  A    between atoms: N3_29  and  C23_30
REMARK   13  A    between atoms: N3_29  and  S1_34
REMARK   14  A    between atoms: C23_30  and  C24_31
REMARK   15  A    between atoms: S2_38  and  C28_41
ROOT
HETATM    1  C18 UNL     1      40.994  15.798  66.438  1.00  0.00     0.064 C
HETATM    2  C19 UNL     1      40.192  14.614  66.859  1.00  0.00     0.041 C
ENDROOT
BRANCH   1   3
HETATM    3  C17 UNL     1      42.422  15.470  66.672  1.00  0.00     0.154 C
BRANCH   3   4
HETATM    4  N1  UNL     1      42.767  14.731  67.834  1.00  0.00    -0.387 N
HETATM    5  C3  UNL     1      43.371  13.512  67.862  1.00  0.00     0.058 C
BRANCH   5   6
HETATM    6  C2  UNL     1      42.422  12.308  68.058  1.00  0.00     0.040 C
HETATM    7  C1  UNL     1      43.312  11.132  68.406  1.00  0.00     0.010 C
ENDBRANCH   5   6
BRANCH   4   8
HETATM    8  C4  UNL     1      42.137  15.290  68.981  1.00  0.00     0.156 C
BRANCH   8   9
HETATM    9  C5  UNL     1      42.888  15.247  70.252  1.00  0.00    -0.058 C
HETATM   10  C6  UNL     1      42.390  14.532  71.290  1.00  0.00    -0.013 C
HETATM   11  C7  UNL     1      43.158  14.511  72.534  1.00  0.00     0.058 C
HETATM   12  C8  UNL     1      42.953  13.214  73.334  1.00  0.00     0.030 C
HETATM   13  C11 UNL     1      44.610  14.151  72.152  1.00  0.00     0.129 C
HETATM   14  C9  UNL     1      43.163  12.214  72.233  1.00  0.00     0.012 C
HETATM   15  C12 UNL     1      44.213  13.279  74.165  1.00  0.00     0.059 C
HETATM   16  C10 UNL     1      44.390  12.797  71.533  1.00  0.00     0.047 C
HETATM   17  O1  UNL     1      45.151  14.025  73.411  1.00  0.00    -0.361 OA
HETATM   18  C13 UNL     1      44.760  11.951  74.565  1.00  0.00     0.046 C
HETATM   19  C14 UNL     1      43.849  14.086  75.419  1.00  0.00     0.046 C
HETATM   20  C15 UNL     1      45.136  15.163  71.292  1.00  0.00     0.166 C
HETATM   21  O2  UNL     1      46.315  15.445  71.220  1.00  0.00    -0.294 OA
HETATM   22  C16 UNL     1      44.189  15.945  70.409  1.00  0.00     0.117 C
ENDBRANCH   8   9
ENDBRANCH   4   8
ENDBRANCH   3   4
ENDBRANCH   1   3
BRANCH   1  23
HETATM   23  C20 UNL     1      40.914  15.421  64.823  1.00  0.00     0.029 C
HETATM   24  C21 UNL     1      42.240  15.338  64.232  1.00  0.00     0.007 C
ENDBRANCH   1  23
BRANCH   1  25
HETATM   25  N2  UNL     1      40.443  17.073  66.470  1.00  0.00    -0.224 N
BRANCH  25  26
HETATM   26  C22 UNL     1      39.112  17.404  66.618  1.00  0.00     0.246 C
BRANCH  26  27
HETATM   27  O3  UNL     1      38.625  17.544  65.336  1.00  0.00    -0.331 OA
ATOM     28  H3  UNL     1      39.072  16.881  64.822  1.00  0.00     0.221 HD
ENDBRANCH  26  27
BRANCH  26  29
HETATM   29  N3  UNL     1      38.039  17.664  67.446  1.00  0.00    -0.240 N
BRANCH  29  30
HETATM   30  C23 UNL     1      37.685  16.662  68.539  1.00  0.00     0.149 C
BRANCH  30  31
HETATM   31  C24 UNL     1      38.704  16.664  69.622  1.00  0.00    -0.003 C
HETATM   32  C25 UNL     1      38.785  15.399  70.438  1.00  0.00     0.011 C
HETATM   33  C26 UNL     1      38.445  17.787  70.627  1.00  0.00     0.011 C
ENDBRANCH  30  31
ENDBRANCH  29  30
BRANCH  29  34
HETATM   34  S1  UNL     1      36.810  18.863  67.330  1.00  0.00     0.231 S
HETATM   35  C27 UNL     1      35.463  18.583  68.478  1.00  0.00     0.186 C
HETATM   36  O4  UNL     1      37.386  20.208  67.913  1.00  0.00    -0.206 OA
HETATM   37  O5  UNL     1      36.406  19.280  65.984  1.00  0.00    -0.206 OA
ENDBRANCH  29  34
ENDBRANCH  26  29
ENDBRANCH  25  26
BRANCH  25  38
HETATM   38  S2  UNL     1      41.400  18.549  66.386  1.00  0.00     0.270 S
HETATM   39  O6  UNL     1      40.363  19.665  66.239  1.00  0.00    -0.200 OA
HETATM   40  O7  UNL     1      42.368  18.704  65.347  1.00  0.00    -0.200 OA
BRANCH  38  41
HETATM   41  C28 UNL     1      42.236  18.868  67.882  1.00  0.00     0.104 A
HETATM   42  C29 UNL     1      41.675  19.018  69.131  1.00  0.00     0.052 A
HETATM   43  C30 UNL     1      42.686  19.257  70.049  1.00  0.00     0.143 A
HETATM   44  O8  UNL     1      43.773  19.243  69.351  1.00  0.00    -0.333 OA
HETATM   45  C31 UNL     1      43.584  19.020  68.078  1.00  0.00     0.166 A
ENDBRANCH  38  41
ENDBRANCH  25  38
ENDBRANCH   1  25
TORSDOF 15
ENDMDL