MODEL 1
REMARK VINA RESULT: -6.385037666      0.000      0.000
REMARK  17 active torsions:
REMARK  status: ('A' for Active; 'I' for Inactive)
REMARK    1  A    between atoms: C2_2  and  O1_4
REMARK    2  A    between atoms: O1_4  and  C4_5
REMARK       I    between atoms: C4_5  and  N1_7
REMARK    3  A    between atoms: N2_12  and  C9_13
REMARK    4  A    between atoms: C9_13  and  C10_14
REMARK    5  A    between atoms: C10_14  and  C11_15
REMARK    6  A    between atoms: C11_15  and  N3_16
REMARK    7  A    between atoms: N3_16  and  C14_19
REMARK    8  A    between atoms: C14_19  and  C15_20
REMARK    9  A    between atoms: C15_20  and  C16_21
REMARK   10  A    between atoms: C16_21  and  C17_22
REMARK   11  A    between atoms: C17_22  and  C18_23
REMARK   12  A    between atoms: C18_23  and  C19_24
REMARK   13  A    between atoms: C19_24  and  N4_25
REMARK       I    between atoms: N4_25  and  C20_26
REMARK   14  A    between atoms: N4_25  and  C25_35
REMARK   15  A    between atoms: C20_26  and  O4_28
REMARK   16  A    between atoms: O4_28  and  C21_29
REMARK   17  A    between atoms: C21_29  and  C22_30
ROOT
HETATM    1  C14 UNL     1      38.789  13.155  70.402  1.00  0.00     0.201 C
ENDROOT
BRANCH   1   2
HETATM    2  N3  UNL     1      40.176  13.163  70.546  1.00  0.00    -0.055 N
HETATM    3  C12 UNL     1      40.582  14.423  71.201  1.00  0.00     0.277 C
HETATM    4  C13 UNL     1      40.719  12.084  71.392  1.00  0.00     0.277 C
BRANCH   2   5
HETATM    5  C11 UNL     1      40.951  13.176  69.293  1.00  0.00     0.243 C
BRANCH   5   6
HETATM    6  C10 UNL     1      41.122  14.493  68.630  1.00  0.00     0.056 C
BRANCH   6   7
HETATM    7  C9  UNL     1      40.326  14.750  67.407  1.00  0.00     0.241 C
BRANCH   7   8
HETATM    8  N2  UNL     1      40.813  15.608  66.384  1.00  0.00    -0.051 N
HETATM    9  C8  UNL     1      39.879  16.085  65.432  1.00  0.00     0.240 C
HETATM   10  C7  UNL     1      40.469  16.264  64.064  1.00  0.00     0.034 C
HETATM   11  C6  UNL     1      41.868  16.861  64.138  1.00  0.00     0.007 C
HETATM   12  C5  UNL     1      41.731  18.128  64.949  1.00  0.00     0.134 C
HETATM   13  C30 UNL     1      42.778  15.924  64.904  1.00  0.00     0.034 C
HETATM   14  N1  UNL     1      41.882  17.804  66.335  1.00  0.00    -0.303 N
HETATM   15  C4  UNL     1      42.852  18.617  67.019  1.00  0.00     0.364 C
HETATM   16  C31 UNL     1      41.236  16.835  67.141  1.00  0.00     0.366 C
HETATM   17  O2  UNL     1      43.479  19.522  66.414  1.00  0.00    -0.238 OA
HETATM   18  C29 UNL     1      41.962  15.012  65.792  1.00  0.00     0.240 C
BRANCH  15  19
HETATM   19  O1  UNL     1      43.138  18.443  68.369  1.00  0.00    -0.299 OA
BRANCH  19  20
HETATM   20  C2  UNL     1      42.581  19.206  69.394  1.00  0.00     0.125 C
HETATM   21  C1  UNL     1      43.368  20.495  69.623  1.00  0.00     0.040 C
HETATM   22  C3  UNL     1      42.643  18.420  70.683  1.00  0.00     0.040 C
ENDBRANCH  19  20
ENDBRANCH  15  19
ENDBRANCH   7   8
ENDBRANCH   6   7
ENDBRANCH   5   6
ENDBRANCH   2   5
ENDBRANCH   1   2
BRANCH   1  23
HETATM   23  C15 UNL     1      37.899  14.299  70.463  1.00  0.00     0.021 C
BRANCH  23  24
HETATM   24  C16 UNL     1      37.355  15.077  69.347  1.00  0.00    -0.025 C
BRANCH  24  25
HETATM   25  C17 UNL     1      37.378  16.544  69.296  1.00  0.00     0.029 C
BRANCH  25  26
HETATM   26  C18 UNL     1      35.965  17.109  69.544  1.00  0.00     0.024 C
BRANCH  26  27
HETATM   27  C19 UNL     1      35.941  18.575  69.344  1.00  0.00     0.134 C
BRANCH  27  28
HETATM   28  N4  UNL     1      34.732  18.940  68.535  1.00  0.00    -0.297 N
HETATM   29  C20 UNL     1      34.944  18.969  67.156  1.00  0.00     0.367 C
HETATM   30  O3  UNL     1      34.032  19.245  66.362  1.00  0.00    -0.238 OA
BRANCH  29  31
HETATM   31  O4  UNL     1      36.184  18.687  66.629  1.00  0.00    -0.299 OA
BRANCH  31  32
HETATM   32  C21 UNL     1      36.833  19.615  65.776  1.00  0.00     0.241 C
BRANCH  32  33
HETATM   33  C22 UNL     1      38.330  19.373  65.859  1.00  0.00     0.283 C
HETATM   34  O5  UNL     1      38.715  18.950  67.106  1.00  0.00    -0.357 OA
HETATM   35  C23 UNL     1      38.993  20.089  67.845  1.00  0.00     0.197 C
HETATM   36  C24 UNL     1      39.038  21.200  66.831  1.00  0.00     0.197 C
HETATM   37  O6  UNL     1      39.023  20.549  65.600  1.00  0.00    -0.357 OA
ENDBRANCH  32  33
ENDBRANCH  31  32
ENDBRANCH  29  31
BRANCH  28  38
HETATM   38  C25 UNL     1      33.526  19.209  69.264  1.00  0.00     0.024 C
HETATM   39  C26 UNL     1      32.468  18.197  69.277  1.00  0.00     0.010 C
HETATM   40  C27 UNL     1      32.511  16.988  70.097  1.00  0.00     0.115 C
HETATM   41  S1  UNL     1      32.724  17.323  71.878  1.00  0.00    -0.093 SA
HETATM   42  S2  UNL     1      34.056  18.990  72.000  1.00  0.00    -0.091 SA
HETATM   43  C28 UNL     1      33.759  19.978  70.546  1.00  0.00     0.143 C
ENDBRANCH  28  38
ENDBRANCH  27  28
ENDBRANCH  26  27
ENDBRANCH  25  26
ENDBRANCH  24  25
ENDBRANCH  23  24
ENDBRANCH   1  23
TORSDOF 17
ENDMDL