MODEL 4
REMARK VINA RESULT: -5.929750675      1.727      2.249
REMARK  11 active torsions:
REMARK  status: ('A' for Active; 'I' for Inactive)
REMARK    1  A    between atoms: C2_2  and  C3_3
REMARK    2  A    between atoms: C3_3  and  C4_4
REMARK    3  A    between atoms: C4_4  and  C5_5
REMARK    4  A    between atoms: C5_5  and  C6_6
REMARK    5  A    between atoms: C6_6  and  C7_7
REMARK    6  A    between atoms: C7_7  and  C8_8
REMARK    7  A    between atoms: C8_8  and  C9_9
REMARK    8  A    between atoms: C9_9  and  O1_10
REMARK    9  A    between atoms: C9_9  and  N1_12
REMARK   10  A    between atoms: C17_23  and  C18_24
REMARK   11  A    between atoms: C19_25  and  C20_26
ROOT
HETATM    1  N1  UNL     1      49.960  18.741   2.850  1.00  0.00    -0.270 N
HETATM    2  N2  UNL     1      51.308  18.317   3.159  1.00  0.00    -0.134 NA
HETATM    3  C10 UNL     1      52.141  19.414   2.803  1.00  0.00     0.167 C
HETATM    4  C11 UNL     1      51.885  19.994   1.430  1.00  0.00     0.150 C
HETATM    5  O2  UNL     1      53.089  20.199   0.837  1.00  0.00    -0.349 OA
HETATM    6  C12 UNL     1      53.411  19.569  -0.305  1.00  0.00     0.157 C
HETATM    7  C13 UNL     1      54.102  20.480  -1.326  1.00  0.00     0.078 C
HETATM    8  C14 UNL     1      54.490  18.526   0.047  1.00  0.00     0.078 C
HETATM    9  O3  UNL     1      52.446  18.890  -0.991  1.00  0.00    -0.355 OA
HETATM   10  C15 UNL     1      51.573  18.175  -0.146  1.00  0.00     0.181 C
HETATM   11  C16 UNL     1      50.863  19.254   0.641  1.00  0.00     0.068 C
HETATM   12  C17 UNL     1      49.702  18.741   1.458  1.00  0.00     0.137 C
ENDROOT
BRANCH   1  13
HETATM   13  C9  UNL     1      49.165  19.058   3.924  1.00  0.00     0.130 C
BRANCH  13  14
HETATM   14  C8  UNL     1      48.220  18.254   4.700  1.00  0.00     0.085 C
BRANCH  14  15
HETATM   15  C7  UNL     1      46.863  18.063   4.046  1.00  0.00     0.008 C
BRANCH  15  16
HETATM   16  C6  UNL     1      46.577  16.696   3.558  1.00  0.00     0.000 C
BRANCH  16  17
HETATM   17  C5  UNL     1      47.481  15.697   4.297  1.00  0.00     0.000 C
BRANCH  17  18
HETATM   18  C4  UNL     1      48.161  14.806   3.273  1.00  0.00     0.000 C
BRANCH  18  19
HETATM   19  C3  UNL     1      47.769  15.178   1.871  1.00  0.00    -0.000 C
BRANCH  19  20
HETATM   20  C2  UNL     1      48.995  15.211   0.975  1.00  0.00    -0.005 C
HETATM   21  C1  UNL     1      50.242  15.096   1.825  1.00  0.00     0.005 C
ENDBRANCH  19  20
ENDBRANCH  18  19
ENDBRANCH  17  18
ENDBRANCH  16  17
ENDBRANCH  15  16
ENDBRANCH  14  15
ENDBRANCH  13  14
BRANCH  13  22
HETATM   22  O1  UNL     1      49.247  20.290   4.350  1.00  0.00    -0.348 OA
ATOM     23  H1  UNL     1      49.564  20.888   3.683  1.00  0.00     0.219 HD
ENDBRANCH  13  22
ENDBRANCH   1  13
BRANCH  12  24
HETATM   24  C18 UNL     1      48.423  19.332   1.051  1.00  0.00    -0.003 C
HETATM   25  C19 UNL     1      47.441  18.658   0.468  1.00  0.00    -0.025 C
BRANCH  25  26
HETATM   26  C20 UNL     1      46.157  19.283   0.066  1.00  0.00    -0.001 C
HETATM   27  C21 UNL     1      44.955  18.428   0.477  1.00  0.00     0.013 C
HETATM   28  C22 UNL     1      46.000  20.673   0.636  1.00  0.00     0.013 C
ENDBRANCH  25  26
ENDBRANCH  12  24
TORSDOF 11
ENDMDL