MODEL 2
REMARK VINA RESULT: -6.043903422      1.761      4.294
REMARK  10 active torsions:
REMARK  status: ('A' for Active; 'I' for Inactive)
REMARK    1  A    between atoms: N1_2  and  C2_3
REMARK    2  A    between atoms: N1_2  and  C17_24
REMARK    3  A    between atoms: C2_3  and  C3_4
REMARK    4  A    between atoms: C3_4  and  C4_5
REMARK    5  A    between atoms: C4_5  and  C5_6
REMARK    6  A    between atoms: C5_6  and  C6_7
REMARK    7  A    between atoms: C6_7  and  C7_8
REMARK    8  A    between atoms: C7_8  and  C8_9
REMARK    9  A    between atoms: C8_9  and  N2_10
REMARK       I    between atoms: N2_10  and  C9_12
REMARK       I    between atoms: C9_12  and  N3_14
REMARK   10  A    between atoms: N3_14  and  C10_16
ROOT
HETATM    1  C4  UNL     1      48.030  16.183   3.290  1.00  0.00     0.062 C
HETATM    2  C14 UNL     1      46.636  16.661   3.301  1.00  0.00     0.040 C
HETATM    3  C15 UNL     1      45.825  15.550   3.975  1.00  0.00     0.029 C
HETATM    4  C16 UNL     1      46.951  14.831   4.720  1.00  0.00     0.168 C
HETATM    5  O2  UNL     1      47.954  14.853   3.755  1.00  0.00    -0.380 OA
ENDROOT
BRANCH   1   6
HETATM    6  C3  UNL     1      48.622  16.093   1.905  1.00  0.00     0.068 C
BRANCH   6   7
HETATM    7  C2  UNL     1      48.891  14.734   1.399  1.00  0.00     0.275 C
BRANCH   7   8
HETATM    8  N1  UNL     1      48.117  14.325   0.260  1.00  0.00     0.088 N
HETATM    9  C1  UNL     1      47.097  15.272  -0.116  1.00  0.00     0.310 C
BRANCH   8  10
HETATM   10  C17 UNL     1      47.420  13.096   0.661  1.00  0.00     0.222 C
HETATM   11  C18 UNL     1      48.178  12.321   1.686  1.00  0.00     0.036 C
HETATM   12  C19 UNL     1      47.699  10.865   1.592  1.00  0.00     0.002 C
HETATM   13  C20 UNL     1      46.181  10.861   1.556  1.00  0.00     0.000 C
HETATM   14  C21 UNL     1      45.630  12.193   2.057  1.00  0.00     0.002 C
HETATM   15  C22 UNL     1      46.031  13.338   1.150  1.00  0.00     0.036 C
ENDBRANCH   8  10
ENDBRANCH   7   8
ENDBRANCH   6   7
ENDBRANCH   1   6
BRANCH   1  16
HETATM   16  C5  UNL     1      48.947  16.909   4.239  1.00  0.00     0.038 C
BRANCH  16  17
HETATM   17  C6  UNL     1      48.567  18.338   4.477  1.00  0.00     0.004 C
BRANCH  17  18
HETATM   18  C7  UNL     1      49.669  19.233   3.921  1.00  0.00     0.020 C
BRANCH  18  19
HETATM   19  C8  UNL     1      49.157  20.285   3.007  1.00  0.00     0.124 C
BRANCH  19  20
HETATM   20  N2  UNL     1      48.736  19.700   1.771  1.00  0.00    -0.343 N
HETATM   21  C9  UNL     1      47.376  19.716   1.403  1.00  0.00     0.316 C
HETATM   22  O1  UNL     1      46.519  20.246   2.164  1.00  0.00    -0.247 OA
HETATM   23  N3  UNL     1      46.976  19.134   0.177  1.00  0.00    -0.335 N
ATOM     24  H3  UNL     1      47.668  18.707  -0.438  1.00  0.00     0.165 HD
ATOM     25  H2  UNL     1      49.424  19.268   1.154  1.00  0.00     0.164 HD
BRANCH  23  26
HETATM   26  C10 UNL     1      45.582  19.149  -0.197  1.00  0.00     0.023 C
HETATM   27  C11 UNL     1      45.496  18.653  -1.632  1.00  0.00     0.037 C
HETATM   28  C12 UNL     1      44.761  18.224   0.687  1.00  0.00     0.037 C
HETATM   29  C13 UNL     1      45.055  20.539  -0.079  1.00  0.00     0.037 C
ENDBRANCH  23  26
ENDBRANCH  19  20
ENDBRANCH  18  19
ENDBRANCH  17  18
ENDBRANCH  16  17
ENDBRANCH   1  16
TORSDOF 10
ENDMDL