MODEL 5
REMARK VINA RESULT: -6.092660312      2.237      6.288
REMARK  9 active torsions:
REMARK  status: ('A' for Active; 'I' for Inactive)
REMARK    1  A    between atoms: C2_2  and  C3_3
REMARK    2  A    between atoms: C4_4  and  O1_5
REMARK    3  A    between atoms: O1_5  and  C5_6
REMARK    4  A    between atoms: C5_6  and  C6_7
REMARK    5  A    between atoms: C6_7  and  C7_8
REMARK    6  A    between atoms: C7_8  and  N1_9
REMARK       I    between atoms: N1_9  and  C8_11
REMARK       I    between atoms: C8_11  and  N2_13
REMARK    7  A    between atoms: N2_13  and  C9_15
REMARK    8  A    between atoms: C9_15  and  C10_16
REMARK    9  A    between atoms: C10_16  and  C11_17
ROOT
HETATM    1  C5  UNL     1      48.727  13.160   1.743  1.00  0.00     0.177 C
ENDROOT
BRANCH   1   2
HETATM    2  O1  UNL     1      48.370  14.485   1.674  1.00  0.00    -0.350 OA
BRANCH   2   3
HETATM    3  C4  UNL     1      48.918  15.623   2.139  1.00  0.00     0.084 A
HETATM    4  C3  UNL     1      48.666  16.174   3.371  1.00  0.00     0.012 A
HETATM    5  C21 UNL     1      49.296  17.374   3.756  1.00  0.00     0.114 A
HETATM    6  C20 UNL     1      50.172  18.007   2.901  1.00  0.00     0.112 A
HETATM    7  O3  UNL     1      49.219  18.130   4.921  1.00  0.00    -0.322 OA
HETATM    8  C18 UNL     1      50.440  17.473   1.660  1.00  0.00    -0.017 A
HETATM    9  O4  UNL     1      50.613  19.156   3.586  1.00  0.00    -0.322 OA
HETATM   10  C16 UNL     1      49.805  16.295   1.314  1.00  0.00    -0.019 A
HETATM   11  C19 UNL     1      51.369  18.154   0.765  1.00  0.00     0.052 C
HETATM   12  C17 UNL     1      50.097  15.732  -0.006  1.00  0.00     0.052 C
HETATM   13  C22 UNL     1      49.620  19.456   4.560  1.00  0.00     0.352 C
BRANCH   4  14
HETATM   14  C2  UNL     1      47.752  15.564   4.338  1.00  0.00     0.040 C
HETATM   15  C1  UNL     1      46.309  15.884   4.179  1.00  0.00     0.010 C
ENDBRANCH   4  14
ENDBRANCH   2   3
ENDBRANCH   1   2
BRANCH   1  16
HETATM   16  C6  UNL     1      47.580  12.356   2.389  1.00  0.00     0.046 C
BRANCH  16  17
HETATM   17  C7  UNL     1      46.395  12.363   1.495  1.00  0.00     0.126 C
BRANCH  17  18
HETATM   18  N1  UNL     1      45.542  13.483   1.662  1.00  0.00    -0.343 N
HETATM   19  C8  UNL     1      45.295  14.456   0.668  1.00  0.00     0.316 C
HETATM   20  O2  UNL     1      45.861  14.312  -0.444  1.00  0.00    -0.247 OA
HETATM   21  N2  UNL     1      44.430  15.532   0.971  1.00  0.00    -0.343 N
ATOM     22  H2  UNL     1      43.991  15.584   1.891  1.00  0.00     0.164 HD
ATOM     23  H1  UNL     1      45.075  13.595   2.563  1.00  0.00     0.164 HD
BRANCH  21  24
HETATM   24  C9  UNL     1      44.163  16.555  -0.005  1.00  0.00     0.125 C
BRANCH  24  25
HETATM   25  C10 UNL     1      44.401  17.904   0.590  1.00  0.00     0.024 C
BRANCH  25  26
HETATM   26  C11 UNL     1      45.772  17.977   1.240  1.00  0.00    -0.013 C
HETATM   27  C12 UNL     1      45.856  19.330   1.924  1.00  0.00     0.005 C
HETATM   28  C13 UNL     1      47.323  19.679   1.771  1.00  0.00     0.000 C
HETATM   29  C14 UNL     1      47.557  19.349   0.309  1.00  0.00     0.000 C
HETATM   30  C15 UNL     1      46.858  18.020   0.170  1.00  0.00     0.005 C
ENDBRANCH  25  26
ENDBRANCH  24  25
ENDBRANCH  21  24
ENDBRANCH  17  18
ENDBRANCH  16  17
ENDBRANCH   1  16
TORSDOF 9
ENDMDL