MODEL 1
REMARK VINA RESULT: -5.773339197      0.000      0.000
REMARK  11 active torsions:
REMARK  status: ('A' for Active; 'I' for Inactive)
REMARK    1  A    between atoms: C4_5  and  N1_6
REMARK    2  A    between atoms: N1_6  and  C5_8
REMARK    3  A    between atoms: C5_8  and  C6_9
REMARK    4  A    between atoms: C6_9  and  C7_10
REMARK    5  A    between atoms: C7_10  and  C8_11
REMARK    6  A    between atoms: C8_11  and  C9_12
REMARK    7  A    between atoms: C9_12  and  C10_13
REMARK    8  A    between atoms: C10_13  and  C11_14
REMARK    9  A    between atoms: C11_14  and  C12_15
REMARK   10  A    between atoms: C12_15  and  N2_16
REMARK   11  A    between atoms: N2_16  and  C13_18
ROOT
HETATM    1  C11 UNL     1      46.860  14.977   4.616  1.00  0.00     0.020 C
ENDROOT
BRANCH   1   2
HETATM    2  C10 UNL     1      48.061  15.864   4.531  1.00  0.00     0.002 C
BRANCH   2   3
HETATM    3  C9  UNL     1      47.812  17.232   5.105  1.00  0.00     0.000 C
BRANCH   3   4
HETATM    4  C8  UNL     1      48.407  18.343   4.287  1.00  0.00     0.000 C
BRANCH   4   5
HETATM    5  C7  UNL     1      47.350  18.775   3.292  1.00  0.00     0.002 C
BRANCH   5   6
HETATM    6  C6  UNL     1      47.886  18.821   1.877  1.00  0.00     0.020 C
BRANCH   6   7
HETATM    7  C5  UNL     1      47.930  20.247   1.367  1.00  0.00     0.121 C
BRANCH   7   8
HETATM    8  N1  UNL     1      49.007  20.996   1.963  1.00  0.00    -0.370 N
ATOM      9  H1  UNL     1      48.825  21.830   2.522  1.00  0.00     0.161 HD
BRANCH   8  10
HETATM   10  C4  UNL     1      50.234  20.564   1.758  1.00  0.00     0.144 A
HETATM   11  S1  UNL     1      51.030  20.240   0.286  1.00  0.00    -0.064 SA
HETATM   12  C3  UNL     1      52.530  19.740   0.913  1.00  0.00     0.077 A
HETATM   13  C2  UNL     1      52.332  19.853   2.264  1.00  0.00     0.014 A
HETATM   14  C1  UNL     1      53.457  19.497   3.235  1.00  0.00     0.068 C
HETATM   15  N5  UNL     1      51.158  20.274   2.674  1.00  0.00    -0.340 N
ATOM     16  H5  UNL     1      50.958  20.376   3.669  1.00  0.00     0.167 HD
ENDBRANCH   8  10
ENDBRANCH   7   8
ENDBRANCH   6   7
ENDBRANCH   5   6
ENDBRANCH   4   5
ENDBRANCH   3   4
ENDBRANCH   2   3
ENDBRANCH   1   2
BRANCH   1  17
HETATM   17  C12 UNL     1      45.991  15.105   3.355  1.00  0.00     0.121 C
BRANCH  17  18
HETATM   18  N2  UNL     1      46.376  14.259   2.338  1.00  0.00    -0.376 N
ATOM     19  H2  UNL     1      45.650  14.294   1.622  1.00  0.00     0.161 HD
BRANCH  18  20
HETATM   20  C13 UNL     1      47.251  13.471   1.938  1.00  0.00     0.110 A
HETATM   21  N3  UNL     1      46.898  12.140   2.129  1.00  0.00    -0.338 N
HETATM   22  C14 UNL     1      47.747  11.197   1.742  1.00  0.00     0.182 A
ATOM     23  H3  UNL     1      46.006  11.893   2.558  1.00  0.00     0.168 HD
HETATM   24  N4  UNL     1      48.946  11.461   1.168  1.00  0.00    -0.355 N
HETATM   25  C15 UNL     1      49.296  12.749   0.978  1.00  0.00     0.020 A
ATOM     26  H4  UNL     1      49.568  10.703   0.885  1.00  0.00     0.166 HD
HETATM   27  C16 UNL     1      48.449  13.767   1.364  1.00  0.00     0.009 A
HETATM   28  C21 UNL     1      50.594  13.118   0.348  1.00  0.00     0.058 C
HETATM   29  C17 UNL     1      48.926  15.122   1.118  1.00  0.00     0.048 C
HETATM   30  C18 UNL     1      50.337  15.141   1.768  1.00  0.00    -0.014 C
HETATM   31  C19 UNL     1      50.784  16.565   1.975  1.00  0.00     0.010 C
HETATM   32  C20 UNL     1      51.233  14.341   0.893  1.00  0.00     0.010 C
ENDBRANCH  18  20
ENDBRANCH  17  18
ENDBRANCH   1  17
TORSDOF 11
ENDMDL