MODEL 5
REMARK VINA RESULT: -6.469704549      2.221      4.169
REMARK  8 active torsions:
REMARK  status: ('A' for Active; 'I' for Inactive)
REMARK    1  A    between atoms: C2_2  and  N1_3
REMARK    2  A    between atoms: C2_2  and  C9_13
REMARK       I    between atoms: N1_3  and  C3_5
REMARK    3  A    between atoms: C3_5  and  C4_7
REMARK    4  A    between atoms: C4_7  and  C5_8
REMARK    5  A    between atoms: C5_8  and  C6_9
REMARK    6  A    between atoms: C6_9  and  C7_10
REMARK       I    between atoms: C9_13  and  N3_15
REMARK    7  A    between atoms: N3_15  and  C10_17
REMARK    8  A    between atoms: C10_17  and  C12_19
ROOT
HETATM    1  C7  UNL     1      44.361  15.561  -1.797  1.00  0.00     0.124 C
HETATM    2  C8  UNL     1      43.302  15.934  -0.889  1.00  0.00     0.059 C
HETATM    3  N2  UNL     1      42.460  16.213  -0.167  1.00  0.00    -0.197 NA
ENDROOT
BRANCH   1   4
HETATM    4  C6  UNL     1      44.870  16.742  -2.600  1.00  0.00     0.014 C
BRANCH   4   5
HETATM    5  C5  UNL     1      45.810  17.598  -1.826  1.00  0.00     0.010 C
BRANCH   5   6
HETATM    6  C4  UNL     1      45.288  18.969  -1.622  1.00  0.00     0.103 C
BRANCH   6   7
HETATM    7  C3  UNL     1      45.662  19.639  -0.366  1.00  0.00     0.218 C
HETATM    8  N1  UNL     1      46.929  19.291   0.206  1.00  0.00    -0.348 N
ATOM      9  H1  UNL     1      47.519  18.605  -0.265  1.00  0.00     0.163 HD
HETATM   10  O1  UNL     1      44.899  20.472   0.166  1.00  0.00    -0.274 OA
BRANCH   8  11
HETATM   11  C2  UNL     1      47.384  19.895   1.436  1.00  0.00     0.172 C
HETATM   12  C1  UNL     1      48.869  20.179   1.408  1.00  0.00     0.042 C
BRANCH  11  13
HETATM   13  C9  UNL     1      46.972  19.034   2.559  1.00  0.00     0.240 C
HETATM   14  O2  UNL     1      45.989  19.376   3.255  1.00  0.00    -0.271 OA
HETATM   15  N3  UNL     1      47.633  17.821   2.907  1.00  0.00    -0.355 N
ATOM     16  H3  UNL     1      48.436  17.526   2.351  1.00  0.00     0.162 HD
BRANCH  15  17
HETATM   17  C10 UNL     1      47.216  16.995   4.011  1.00  0.00     0.085 C
HETATM   18  C11 UNL     1      48.179  17.300   5.167  1.00  0.00     0.032 C
BRANCH  17  19
HETATM   19  C12 UNL     1      47.260  15.530   3.757  1.00  0.00     0.017 C
HETATM   20  C13 UNL     1      45.936  14.840   3.704  1.00  0.00     0.007 C
HETATM   21  C14 UNL     1      45.266  14.760   2.394  1.00  0.00     0.002 C
HETATM   22  C15 UNL     1      45.795  13.879   1.356  1.00  0.00     0.020 C
HETATM   23  C16 UNL     1      46.751  12.811   1.705  1.00  0.00     0.008 C
HETATM   24  C17 UNL     1      47.229  12.209   0.370  1.00  0.00     0.020 C
HETATM   25  C20 UNL     1      46.195  11.600   2.371  1.00  0.00     0.020 C
HETATM   26  S1  UNL     1      48.250  13.403   2.518  1.00  0.00    -0.159 SA
HETATM   27  C18 UNL     1      46.122  11.248  -0.005  1.00  0.00     0.002 C
HETATM   28  C19 UNL     1      45.618  10.705   1.293  1.00  0.00     0.002 C
HETATM   29  C21 UNL     1      48.118  15.237   2.522  1.00  0.00     0.081 C
ENDBRANCH  17  19
ENDBRANCH  15  17
ENDBRANCH  11  13
ENDBRANCH   8  11
ENDBRANCH   6   7
ENDBRANCH   5   6
ENDBRANCH   4   5
ENDBRANCH   1   4
TORSDOF 8
ENDMDL