MODEL 1
REMARK VINA RESULT: -6.148671868      0.000      0.000
REMARK  9 active torsions:
REMARK  status: ('A' for Active; 'I' for Inactive)
REMARK    1  A    between atoms: C2_2  and  C3_3
REMARK    2  A    between atoms: C3_3  and  C4_4
REMARK    3  A    between atoms: C4_4  and  C5_5
REMARK    4  A    between atoms: C5_5  and  S1_6
REMARK    5  A    between atoms: S1_6  and  C6_7
REMARK    6  A    between atoms: C9_12  and  C10_13
REMARK    7  A    between atoms: C10_13  and  N2_14
REMARK    8  A    between atoms: C19_23  and  C20_24
REMARK    9  A    between atoms: C20_24  and  C21_25
ROOT
HETATM    1  C10 UNL     1      48.059  17.741   1.532  1.00  0.00     0.080 C
HETATM    2  C16 UNL     1      46.877  17.034   1.895  1.00  0.00     0.038 C
HETATM    3  C17 UNL     1      46.277  17.516   3.186  1.00  0.00     0.003 C
HETATM    4  C18 UNL     1      47.494  18.022   3.925  1.00  0.00     0.008 C
HETATM    5  C19 UNL     1      48.314  18.593   2.817  1.00  0.00     0.028 C
ENDROOT
BRANCH   1   6
HETATM    6  C9  UNL     1      49.319  17.038   1.174  1.00  0.00     0.062 A
HETATM    7  C7  UNL     1      49.859  15.881   1.617  1.00  0.00     0.032 A
HETATM    8  N1  UNL     1      51.073  15.747   0.996  1.00  0.00    -0.339 N
HETATM    9  C8  UNL     1      49.322  14.906   2.557  1.00  0.00     0.070 C
HETATM   10  C6  UNL     1      51.309  16.768   0.192  1.00  0.00     0.144 A
ATOM     11  H1  UNL     1      51.710  14.963   1.135  1.00  0.00     0.168 HD
HETATM   12  N4  UNL     1      50.210  17.576   0.306  1.00  0.00    -0.336 N
ATOM     13  H4  UNL     1      50.080  18.457  -0.191  1.00  0.00     0.168 HD
BRANCH  10  14
HETATM   14  S1  UNL     1      52.733  17.097  -0.845  1.00  0.00    -0.094 SA
BRANCH  14  15
HETATM   15  C5  UNL     1      53.452  18.711  -0.354  1.00  0.00     0.082 C
BRANCH  15  16
HETATM   16  C4  UNL     1      54.786  18.516   0.278  1.00  0.00     0.010 C
BRANCH  16  17
HETATM   17  C3  UNL     1      54.853  19.210   1.606  1.00  0.00     0.000 C
BRANCH  17  18
HETATM   18  C2  UNL     1      53.453  19.494   2.105  1.00  0.00    -0.005 C
HETATM   19  C1  UNL     1      53.425  19.575   3.628  1.00  0.00     0.005 C
ENDBRANCH  17  18
ENDBRANCH  16  17
ENDBRANCH  15  16
ENDBRANCH  14  15
ENDBRANCH  10  14
ENDBRANCH   1   6
BRANCH   1  20
HETATM   20  N2  UNL     1      47.830  18.729   0.538  1.00  0.00    -0.378 N
HETATM   21  C11 UNL     1      47.750  20.058   0.604  1.00  0.00     0.059 C
HETATM   22  C12 UNL     1      46.407  20.637   0.924  1.00  0.00     0.044 C
HETATM   23  C13 UNL     1      45.281  19.891   0.311  1.00  0.00     0.007 C
HETATM   24  C14 UNL     1      45.667  18.799  -0.604  1.00  0.00     0.020 C
HETATM   25  C15 UNL     1      47.037  18.232  -0.572  1.00  0.00     0.123 C
ENDBRANCH   1  20
BRANCH   5  26
HETATM   26  C20 UNL     1      49.728  18.840   3.128  1.00  0.00     0.107 C
BRANCH  26  27
HETATM   27  C21 UNL     1      49.792  20.063   4.024  1.00  0.00     0.231 C
HETATM   28  N3  UNL     1      49.374  21.309   3.488  1.00  0.00    -0.062 NA
HETATM   29  O1  UNL     1      50.192  20.023   5.206  1.00  0.00    -0.277 OA
ENDBRANCH  26  27
ENDBRANCH   5  26
TORSDOF 9
ENDMDL