MODEL 4
REMARK VINA RESULT: -7.027553492      2.280      2.690
REMARK  9 active torsions:
REMARK  status: ('A' for Active; 'I' for Inactive)
REMARK    1  A    between atoms: C2_2  and  C3_3
REMARK    2  A    between atoms: C3_3  and  C4_4
REMARK    3  A    between atoms: C4_4  and  C5_5
REMARK    4  A    between atoms: C5_5  and  C6_6
REMARK    5  A    between atoms: C6_6  and  C7_7
REMARK    6  A    between atoms: C7_7  and  C8_8
REMARK    7  A    between atoms: C8_8  and  N1_9
REMARK       I    between atoms: N1_9  and  C9_11
REMARK       I    between atoms: C9_11  and  N3_29
REMARK    8  A    between atoms: N2_12  and  C10_14
REMARK    9  A    between atoms: C14_19  and  O2_20
ROOT
HETATM    1  N1  UNL     1      46.340  16.449   2.490  1.00  0.00    -0.226 N
ATOM      2  H1  UNL     1      46.315  17.371   2.054  1.00  0.00     0.177 HD
HETATM    3  C9  UNL     1      47.276  16.225   3.525  1.00  0.00     0.683 C
HETATM    4  N2  UNL     1      48.232  16.982   3.725  1.00  0.00    -0.221 N
ATOM      5  H2  UNL     1      48.826  16.698   4.504  1.00  0.00     0.178 HD
HETATM    6  N3  UNL     1      47.095  15.087   4.353  1.00  0.00    -0.126 N
ATOM      7  H3  UNL     1      47.617  14.241   4.126  1.00  0.00     0.197 HD
HETATM    8  C23 UNL     1      46.251  15.055   5.453  1.00  0.00     0.196 C
HETATM    9  N4  UNL     1      45.534  15.016   6.360  1.00  0.00    -0.171 NA
ENDROOT
BRANCH   1  10
HETATM   10  C8  UNL     1      45.422  15.450   2.018  1.00  0.00     0.138 C
BRANCH  10  11
HETATM   11  C7  UNL     1      45.258  15.429   0.520  1.00  0.00     0.020 C
BRANCH  11  12
HETATM   12  C6  UNL     1      46.434  16.092  -0.154  1.00  0.00     0.002 C
BRANCH  12  13
HETATM   13  C5  UNL     1      47.270  15.080  -0.895  1.00  0.00     0.000 C
BRANCH  13  14
HETATM   14  C4  UNL     1      48.670  15.041  -0.307  1.00  0.00     0.000 C
BRANCH  14  15
HETATM   15  C3  UNL     1      48.702  14.023   0.801  1.00  0.00    -0.000 C
BRANCH  15  16
HETATM   16  C2  UNL     1      49.902  14.327   1.676  1.00  0.00    -0.005 C
HETATM   17  C1  UNL     1      51.191  14.160   0.910  1.00  0.00     0.005 C
ENDBRANCH  15  16
ENDBRANCH  14  15
ENDBRANCH  13  14
ENDBRANCH  12  13
ENDBRANCH  11  12
ENDBRANCH  10  11
ENDBRANCH   1  10
BRANCH   4  18
HETATM   18  C10 UNL     1      48.670  18.189   3.069  1.00  0.00     0.106 C
HETATM   19  C11 UNL     1      49.444  18.892   4.197  1.00  0.00     0.052 C
HETATM   20  C12 UNL     1      49.894  20.258   3.876  1.00  0.00     0.170 C
HETATM   21  O1  UNL     1      50.714  20.312   2.768  1.00  0.00    -0.383 OA
HETATM   22  C13 UNL     1      51.536  19.224   2.761  1.00  0.00     0.155 C
HETATM   23  C14 UNL     1      52.817  19.516   1.999  1.00  0.00     0.150 C
HETATM   24  C22 UNL     1      51.020  18.000   2.164  1.00  0.00     0.028 C
HETATM   25  C16 UNL     1      52.931  18.478   0.910  1.00  0.00     0.039 C
HETATM   26  C17 UNL     1      51.561  17.876   0.754  1.00  0.00    -0.005 C
HETATM   27  C18 UNL     1      50.618  18.733  -0.038  1.00  0.00     0.010 C
HETATM   28  C19 UNL     1      49.233  18.549   0.606  1.00  0.00    -0.012 C
HETATM   29  C20 UNL     1      48.551  19.849   0.549  1.00  0.00     0.010 C
HETATM   30  C21 UNL     1      49.535  17.908   1.889  1.00  0.00     0.019 C
BRANCH  23  31
HETATM   31  O2  UNL     1      53.958  19.399   2.787  1.00  0.00    -0.388 OA
HETATM   32  C15 UNL     1      55.130  19.539   2.079  1.00  0.00     0.202 C
ENDBRANCH  23  31
ENDBRANCH   4  18
TORSDOF 9
ENDMDL