MODEL 3
REMARK VINA RESULT: -5.998288629      2.699      3.277
REMARK  9 active torsions:
REMARK  status: ('A' for Active; 'I' for Inactive)
REMARK    1  A    between atoms: C2_2  and  C3_3
REMARK    2  A    between atoms: C11_11  and  C12_12
REMARK    3  A    between atoms: C12_12  and  C13_13
REMARK    4  A    between atoms: N1_18  and  C17_19
REMARK    5  A    between atoms: C17_19  and  C18_20
REMARK    6  A    between atoms: C18_20  and  C19_21
REMARK    7  A    between atoms: C19_21  and  N2_22
REMARK    8  A    between atoms: N2_22  and  C20_25
REMARK    9  A    between atoms: C20_25  and  C21_26
ROOT
HETATM    1  C13 UNL     1      48.237  16.812   4.047  1.00  0.00     0.101 A
HETATM    2  C14 UNL     1      46.802  17.122   3.839  1.00  0.00    -0.007 A
HETATM    3  C15 UNL     1      46.331  18.194   3.236  1.00  0.00     0.071 A
HETATM    4  C16 UNL     1      47.200  19.232   2.689  1.00  0.00     0.249 A
HETATM    5  O1  UNL     1      46.731  20.246   2.116  1.00  0.00    -0.268 OA
HETATM    6  N1  UNL     1      48.598  19.057   2.827  1.00  0.00    -0.284 N
HETATM    7  C22 UNL     1      49.094  17.927   3.468  1.00  0.00     0.234 A
HETATM    8  O2  UNL     1      50.342  17.750   3.616  1.00  0.00    -0.272 OA
ENDROOT
BRANCH   1   9
HETATM    9  C12 UNL     1      48.660  15.531   3.444  1.00  0.00     0.024 C
BRANCH   9  10
HETATM   10  C11 UNL     1      48.182  15.110   2.117  1.00  0.00     0.002 C
HETATM   11  C3  UNL     1      47.371  13.903   1.937  1.00  0.00    -0.023 C
HETATM   12  C4  UNL     1      46.246  13.635   2.866  1.00  0.00     0.020 C
HETATM   13  C5  UNL     1      48.185  12.612   1.902  1.00  0.00     0.014 C
HETATM   14  C6  UNL     1      49.335  12.672   0.932  1.00  0.00     0.005 C
HETATM   15  C7  UNL     1      50.205  13.832   1.358  1.00  0.00    -0.014 C
HETATM   16  C8  UNL     1      51.500  13.891   0.616  1.00  0.00     0.010 C
HETATM   17  C9  UNL     1      49.423  15.088   1.203  1.00  0.00    -0.010 C
HETATM   18  C10 UNL     1      49.140  15.518  -0.190  1.00  0.00     0.011 C
BRANCH  11  19
HETATM   19  C2  UNL     1      46.735  13.992   0.565  1.00  0.00    -0.027 C
HETATM   20  C1  UNL     1      45.581  14.614   0.446  1.00  0.00     0.007 C
ENDBRANCH  11  19
ENDBRANCH   9  10
ENDBRANCH   1   9
BRANCH   6  21
HETATM   21  C17 UNL     1      49.461  20.075   2.277  1.00  0.00     0.137 C
BRANCH  21  22
HETATM   22  C18 UNL     1      50.085  19.696   0.955  1.00  0.00     0.048 C
BRANCH  22  23
HETATM   23  C19 UNL     1      51.574  19.873   1.098  1.00  0.00     0.234 C
BRANCH  23  24
HETATM   24  N2  UNL     1      51.968  20.096   2.469  1.00  0.00    -0.074 N
ATOM     25  H22 UNL     1      51.954  21.086   2.715  1.00  0.00     0.277 HD
ATOM     26  H21 UNL     1      51.261  19.769   3.128  1.00  0.00     0.277 HD
BRANCH  24  27
HETATM   27  C20 UNL     1      53.255  19.497   2.717  1.00  0.00     0.243 C
BRANCH  27  28
HETATM   28  C21 UNL     1      53.839  19.096   1.357  1.00  0.00     0.113 C
HETATM   29  S1  UNL     1      55.623  19.496   1.366  1.00  0.00    -0.096 SA
ENDBRANCH  27  28
ENDBRANCH  24  27
ENDBRANCH  23  24
ENDBRANCH  22  23
ENDBRANCH  21  22
ENDBRANCH   6  21
TORSDOF 9
ENDMDL