MODEL 5
REMARK VINA RESULT: -6.734826279      3.281      7.567
REMARK  11 active torsions:
REMARK  status: ('A' for Active; 'I' for Inactive)
REMARK    1  A    between atoms: C2_2  and  C3_3
REMARK    2  A    between atoms: C4_4  and  C5_5
REMARK    3  A    between atoms: C5_5  and  C6_6
REMARK    4  A    between atoms: C7_7  and  O1_8
REMARK    5  A    between atoms: C12_15  and  C13_16
REMARK    6  A    between atoms: C14_17  and  C15_18
REMARK    7  A    between atoms: C15_18  and  O3_19
REMARK    8  A    between atoms: C15_18  and  C16_21
REMARK    9  A    between atoms: C16_21  and  C17_22
REMARK   10  A    between atoms: C17_22  and  C18_23
REMARK   11  A    between atoms: N1_28  and  C23_29
ROOT
HETATM    1  C6  UNL     1      49.890  19.406   0.931  1.00  0.00     0.033 C
HETATM    2  C7  UNL     1      50.826  19.732  -0.168  1.00  0.00     0.124 C
HETATM    3  C8  UNL     1      52.271  19.829   0.162  1.00  0.00     0.044 C
HETATM    4  C9  UNL     1      52.762  18.690   1.028  1.00  0.00     0.054 C
HETATM    5  C10 UNL     1      54.151  19.041   1.513  1.00  0.00     0.018 C
HETATM    6  C11 UNL     1      51.826  18.600   2.162  1.00  0.00     0.139 C
HETATM    7  O2  UNL     1      52.229  18.694   3.292  1.00  0.00    -0.297 OA
HETATM    8  C12 UNL     1      50.395  18.391   1.887  1.00  0.00     0.085 C
ENDROOT
BRANCH   8   9
HETATM    9  C13 UNL     1      49.598  18.260   3.133  1.00  0.00    -0.016 C
HETATM   10  C14 UNL     1      48.765  17.287   3.422  1.00  0.00     0.001 C
BRANCH  10  11
HETATM   11  C15 UNL     1      48.007  17.237   4.700  1.00  0.00     0.140 C
BRANCH  11  12
HETATM   12  O3  UNL     1      47.247  18.368   4.907  1.00  0.00    -0.392 OA
ATOM     13  H3  UNL     1      47.719  19.166   4.697  1.00  0.00     0.210 HD
ENDBRANCH  11  12
BRANCH  11  14
HETATM   14  C16 UNL     1      47.056  16.038   4.722  1.00  0.00     0.037 C
BRANCH  14  15
HETATM   15  C17 UNL     1      47.901  14.838   4.270  1.00  0.00     0.028 C
BRANCH  15  16
HETATM   16  C18 UNL     1      47.042  13.882   3.499  1.00  0.00     0.083 C
HETATM   17  C19 UNL     1      45.858  14.640   2.966  1.00  0.00     0.025 C
HETATM   18  C20 UNL     1      45.543  14.329   1.531  1.00  0.00     0.007 C
HETATM   19  C21 UNL     1      45.739  12.898   1.161  1.00  0.00     0.044 C
HETATM   20  C22 UNL     1      46.987  12.293   1.725  1.00  0.00     0.058 C
HETATM   21  N1  UNL     1      47.766  13.145   2.534  1.00  0.00    -0.389 N
BRANCH  21  22
HETATM   22  C23 UNL     1      48.780  13.900   1.846  1.00  0.00     0.118 C
HETATM   23  C24 UNL     1      49.541  13.062   0.877  1.00  0.00     0.026 C
ENDBRANCH  21  22
ENDBRANCH  15  16
ENDBRANCH  14  15
ENDBRANCH  11  14
ENDBRANCH  10  11
ENDBRANCH   8   9
BRANCH   1  24
HETATM   24  C5  UNL     1      48.599  18.901   0.247  1.00  0.00     0.035 C
BRANCH  24  25
HETATM   25  C4  UNL     1      47.479  19.780   0.644  1.00  0.00    -0.030 C
HETATM   26  C3  UNL     1      46.327  19.430   1.146  1.00  0.00    -0.031 C
BRANCH  26  27
HETATM   27  C2  UNL     1      45.863  18.062   1.441  1.00  0.00     0.022 C
HETATM   28  C1  UNL     1      44.552  17.864   0.702  1.00  0.00     0.009 C
ENDBRANCH  26  27
ENDBRANCH  24  25
ENDBRANCH   1  24
BRANCH   2  29
HETATM   29  O1  UNL     1      50.456  21.012  -0.659  1.00  0.00    -0.395 OA
ATOM     30  H1  UNL     1      50.526  20.976  -1.605  1.00  0.00     0.210 HD
ENDBRANCH   2  29
TORSDOF 11
ENDMDL