MODEL 3
REMARK VINA RESULT: -7.665731092      3.619      7.333
REMARK  9 active torsions:
REMARK  status: ('A' for Active; 'I' for Inactive)
REMARK    1  A    between atoms: N1_1  and  C1_4
REMARK    2  A    between atoms: C2_9  and  C3_10
REMARK    3  A    between atoms: C3_10  and  C4_11
REMARK    4  A    between atoms: C4_11  and  N4_12
REMARK    5  A    between atoms: N4_12  and  C5_13
REMARK    6  A    between atoms: C5_13  and  C6_14
REMARK    7  A    between atoms: C6_14  and  C7_15
REMARK    8  A    between atoms: C7_15  and  C8_16
REMARK    9  A    between atoms: C8_16  and  C9_17
ROOT
HETATM    1  N4  UNL     1      16.897   9.418  10.220  1.00  0.00    -0.067 N
HETATM    2  C12 UNL     1      15.988   8.390   9.672  1.00  0.00     0.237 C
HETATM    3  C13 UNL     1      16.586   7.058  10.092  1.00  0.00     0.029 C
HETATM    4  C14 UNL     1      16.981   7.453  11.526  1.00  0.00     0.029 C
HETATM    5  C15 UNL     1      17.689   8.759  11.219  1.00  0.00     0.237 C
ENDROOT
BRANCH   1   6
HETATM    6  C4  UNL     1      16.001  10.326  10.899  1.00  0.00     0.245 C
BRANCH   6   7
HETATM    7  C3  UNL     1      14.590  10.345  10.500  1.00  0.00     0.106 C
BRANCH   7   8
HETATM    8  C2  UNL     1      13.899  11.352  11.396  1.00  0.00     0.114 A
HETATM    9  N3  UNL     1      13.644  12.636  11.104  1.00  0.00    -0.274 N
HETATM   10  N2  UNL     1      13.028  13.160  12.159  1.00  0.00    -0.131 N
ATOM     11  H3  UNL     1      13.878  13.119  10.236  1.00  0.00     0.189 HD
HETATM   12  C1  UNL     1      12.875  12.248  13.132  1.00  0.00     0.691 A
ATOM     13  H2  UNL     1      12.713  14.128  12.221  1.00  0.00     0.205 HD
HETATM   14  N7  UNL     1      13.431  11.116  12.632  1.00  0.00    -0.178 N
ATOM     15  H7  UNL     1      13.484  10.222  13.121  1.00  0.00     0.185 HD
BRANCH  12  16
HETATM   16  N1  UNL     1      12.345  12.330  14.292  1.00  0.00    -0.233 N
ATOM     17  H12 UNL     1      12.112  13.211  14.750  1.00  0.00     0.174 HD
ATOM     18  H11 UNL     1      12.062  11.611  14.957  1.00  0.00     0.174 HD
ENDBRANCH  12  16
ENDBRANCH   7   8
ENDBRANCH   6   7
ENDBRANCH   1   6
BRANCH   1  19
HETATM   19  C5  UNL     1      17.649  10.047   9.216  1.00  0.00     0.237 C
BRANCH  19  20
HETATM   20  C6  UNL     1      17.465   9.781   7.793  1.00  0.00     0.028 C
BRANCH  20  21
HETATM   21  C7  UNL     1      18.387   8.850   7.086  1.00  0.00     0.008 C
BRANCH  21  22
HETATM   22  C8  UNL     1      17.762   8.364   5.765  1.00  0.00     0.058 C
BRANCH  22  23
HETATM   23  C9  UNL     1      17.527   6.909   5.788  1.00  0.00     0.025 A
HETATM   24  C10 UNL     1      16.519   6.218   6.448  1.00  0.00     0.113 A
HETATM   25  N5  UNL     1      16.664   4.887   6.193  1.00  0.00    -0.360 N
HETATM   26  C11 UNL     1      17.733   4.762   5.395  1.00  0.00     0.180 A
ATOM     27  H5  UNL     1      16.072   4.133   6.541  1.00  0.00     0.166 HD
HETATM   28  N6  UNL     1      18.241   5.972   5.160  1.00  0.00    -0.355 N
ATOM     29  H6  UNL     1      19.060   6.156   4.580  1.00  0.00     0.166 HD
ENDBRANCH  22  23
ENDBRANCH  21  22
ENDBRANCH  20  21
ENDBRANCH  19  20
ENDBRANCH   1  19
TORSDOF 9
ENDMDL