MODEL 3
REMARK VINA RESULT: -7.042714091      2.383      3.460
REMARK  10 active torsions:
REMARK  status: ('A' for Active; 'I' for Inactive)
REMARK    1  A    between atoms: N2_3  and  S1_5
REMARK    2  A    between atoms: S1_5  and  C2_6
REMARK    3  A    between atoms: C2_6  and  N3_7
REMARK    4  A    between atoms: N4_10  and  C3_12
REMARK    5  A    between atoms: C3_12  and  C4_13
REMARK    6  A    between atoms: C4_13  and  C5_14
REMARK    7  A    between atoms: C5_14  and  C6_15
REMARK    8  A    between atoms: C6_15  and  C7_16
REMARK    9  A    between atoms: C7_16  and  C8_17
REMARK   10  A    between atoms: C8_17  and  N5_18
REMARK       I    between atoms: N6_21  and  C11_22
ROOT
HETATM    1  N1  UNL     1      18.600   9.778  10.131  1.00  0.00    -0.171 NA
HETATM    2  C1  UNL     1      17.679  10.383  10.584  1.00  0.00     0.188 C
HETATM    3  N2  UNL     1      16.609  11.157  11.133  1.00  0.00    -0.260 N
ATOM      4  H2  UNL     1      16.736  12.126  11.426  1.00  0.00     0.186 HD
ENDROOT
BRANCH   3   5
HETATM    5  S1  UNL     1      15.145  10.379  11.261  1.00  0.00     0.031 SA
BRANCH   5   6
HETATM    6  C2  UNL     1      14.613  10.613  12.794  1.00  0.00     0.155 C
HETATM    7  N4  UNL     1      14.853   9.625  13.697  1.00  0.00    -0.370 N
ATOM      8  H4  UNL     1      14.599   9.851  14.659  1.00  0.00     0.161 HD
BRANCH   6   9
HETATM    9  N3  UNL     1      14.077  11.844  13.037  1.00  0.00    -0.379 N
ATOM     10  H32 UNL     1      13.408  12.353  12.459  1.00  0.00     0.158 HD
ATOM     11  H31 UNL     1      14.315  12.248  13.943  1.00  0.00     0.158 HD
ENDBRANCH   6   9
BRANCH   7  12
HETATM   12  C3  UNL     1      15.409   8.308  13.507  1.00  0.00     0.121 C
BRANCH  12  13
HETATM   13  C4  UNL     1      14.681   7.243  14.341  1.00  0.00     0.020 C
BRANCH  13  14
HETATM   14  C5  UNL     1      15.445   5.983  14.150  1.00  0.00     0.002 C
BRANCH  14  15
HETATM   15  C6  UNL     1      15.233   5.216  12.923  1.00  0.00     0.002 C
BRANCH  15  16
HETATM   16  C7  UNL     1      16.336   4.891  12.001  1.00  0.00     0.020 C
BRANCH  16  17
HETATM   17  C8  UNL     1      15.997   4.371  10.677  1.00  0.00     0.122 C
BRANCH  17  18
HETATM   18  N5  UNL     1      16.320   5.267   9.586  1.00  0.00    -0.390 N
HETATM   19  C9  UNL     1      15.974   4.870   8.295  1.00  0.00     0.078 C
HETATM   20  C10 UNL     1      16.778   5.671   7.286  1.00  0.00     0.169 C
HETATM   21  N6  UNL     1      16.707   7.079   7.582  1.00  0.00    -0.350 N
HETATM   22  C11 UNL     1      17.308   8.017   6.713  1.00  0.00     0.184 C
HETATM   23  C12 UNL     1      16.018   7.510   8.771  1.00  0.00     0.145 C
HETATM   24  N7  UNL     1      18.152   8.902   7.142  1.00  0.00    -0.374 N
HETATM   25  N8  UNL     1      17.022   8.037   5.325  1.00  0.00    -0.064 NA
ATOM     26  H72 UNL     1      18.358   8.887   8.141  1.00  0.00     0.158 HD
ATOM     27  H71 UNL     1      18.586   9.579   6.515  1.00  0.00     0.158 HD
HETATM   28  C13 UNL     1      16.532   6.614   9.901  1.00  0.00     0.141 C
ENDBRANCH  17  18
ENDBRANCH  16  17
ENDBRANCH  15  16
ENDBRANCH  14  15
ENDBRANCH  13  14
ENDBRANCH  12  13
ENDBRANCH   7  12
ENDBRANCH   5   6
ENDBRANCH   3   5
TORSDOF 10
ENDMDL