MODEL 2
REMARK VINA RESULT: -7.405171094      2.688      4.329
REMARK  8 active torsions:
REMARK  status: ('A' for Active; 'I' for Inactive)
REMARK    1  A    between atoms: N3_4  and  C2_6
REMARK    2  A    between atoms: C2_6  and  C3_7
REMARK    3  A    between atoms: C3_7  and  N4_8
REMARK    4  A    between atoms: N4_8  and  C4_11
REMARK    5  A    between atoms: C4_11  and  C5_12
REMARK    6  A    between atoms: C5_12  and  C6_13
REMARK    7  A    between atoms: C6_13  and  C7_14
REMARK    8  A    between atoms: C7_14  and  C8_15
ROOT
HETATM    1  C6  UNL     1      16.646   6.357  11.250  1.00  0.00     0.005 C
ENDROOT
BRANCH   1   2
HETATM    2  C5  UNL     1      15.776   6.071  12.479  1.00  0.00     0.027 C
BRANCH   2   3
HETATM    3  C4  UNL     1      15.862   7.315  13.330  1.00  0.00     0.232 C
BRANCH   3   4
HETATM    4  N4  UNL     1      15.348   8.494  12.712  1.00  0.00    -0.074 N
ATOM      5  H42 UNL     1      14.420   8.734  13.061  1.00  0.00     0.277 HD
ATOM      6  H41 UNL     1      15.105   8.336  11.734  1.00  0.00     0.277 HD
BRANCH   4   7
HETATM    7  C3  UNL     1      16.281   9.589  12.866  1.00  0.00     0.251 C
BRANCH   7   8
HETATM    8  C2  UNL     1      16.289  10.375  11.581  1.00  0.00     0.149 C
BRANCH   8   9
HETATM    9  N3  UNL     1      15.214  11.318  11.600  1.00  0.00    -0.365 N
HETATM   10  C1  UNL     1      14.160  11.085  10.906  1.00  0.00     0.197 C
HETATM   11  N1  UNL     1      13.098  12.021  10.928  1.00  0.00    -0.067 NA
HETATM   12  N2  UNL     1      14.073   9.904  10.128  1.00  0.00    -0.067 NA
ATOM     13  H3  UNL     1      15.284  12.167  12.161  1.00  0.00     0.161 HD
ENDBRANCH   8   9
ENDBRANCH   7   8
ENDBRANCH   4   7
ENDBRANCH   3   4
ENDBRANCH   2   3
ENDBRANCH   1   2
BRANCH   1  14
HETATM   14  C7  UNL     1      16.263   5.490  10.098  1.00  0.00     0.057 C
BRANCH  14  15
HETATM   15  C8  UNL     1      16.340   6.267   8.812  1.00  0.00     0.324 C
HETATM   16  N5  UNL     1      16.353   7.682   9.031  1.00  0.00    -0.331 N
HETATM   17  C9  UNL     1      17.134   8.575   8.229  1.00  0.00     0.225 C
ATOM     18  H5  UNL     1      15.786   8.068   9.787  1.00  0.00     0.164 HD
HETATM   19  O1  UNL     1      16.683   9.726   8.030  1.00  0.00    -0.273 OA
HETATM   20  C10 UNL     1      18.422   8.086   7.685  1.00  0.00     0.106 C
HETATM   21  C11 UNL     1      18.466   8.157   6.197  1.00  0.00     0.016 C
HETATM   22  C15 UNL     1      18.622   6.658   8.171  1.00  0.00     0.289 C
HETATM   23  C12 UNL     1      17.170   7.915   5.504  1.00  0.00     0.003 C
HETATM   24  C13 UNL     1      16.395   6.731   5.949  1.00  0.00     0.030 C
HETATM   25  C14 UNL     1      17.177   5.661   6.623  1.00  0.00     0.275 C
HETATM   26  N6  UNL     1      17.457   5.856   7.996  1.00  0.00     0.112 N
ENDBRANCH  14  15
ENDBRANCH   1  14
TORSDOF 8
ENDMDL