MODEL 3
REMARK VINA RESULT: -6.277567778      4.636      7.012
REMARK  12 active torsions:
REMARK  status: ('A' for Active; 'I' for Inactive)
REMARK    1  A    between atoms: C2_2  and  N1_3
REMARK    2  A    between atoms: N1_3  and  C3_4
REMARK    3  A    between atoms: C3_4  and  C4_5
REMARK    4  A    between atoms: C4_5  and  C5_6
REMARK    5  A    between atoms: C5_6  and  C6_7
REMARK    6  A    between atoms: C6_7  and  N2_8
REMARK    7  A    between atoms: N2_8  and  C9_11
REMARK    8  A    between atoms: C9_11  and  C10_12
REMARK    9  A    between atoms: C10_12  and  O1_13
REMARK   10  A    between atoms: C13_17  and  O2_18
REMARK   11  A    between atoms: C14_20  and  O3_21
REMARK   12  A    between atoms: C15_23  and  O4_24
ROOT
HETATM    1  N1  UNL     1      15.850   9.869  11.663  1.00  0.00    -0.039 N
HETATM    2  C11 UNL     1      17.008  10.701  11.476  1.00  0.00     0.243 C
HETATM    3  C12 UNL     1      17.901  10.337  10.354  1.00  0.00     0.062 C
HETATM    4  C13 UNL     1      17.228   9.906   9.102  1.00  0.00     0.152 C
HETATM    5  C14 UNL     1      15.926   9.210   9.278  1.00  0.00     0.203 C
HETATM    6  C15 UNL     1      15.122   9.621  10.447  1.00  0.00     0.354 C
ENDROOT
BRANCH   1   7
HETATM    7  C2  UNL     1      16.053   8.705  12.449  1.00  0.00     0.236 C
HETATM    8  C1  UNL     1      17.448   8.413  12.874  1.00  0.00     0.035 C
ENDBRANCH   1   7
BRANCH   1   9
HETATM    9  C3  UNL     1      14.935  10.724  12.456  1.00  0.00     0.240 C
BRANCH   9  10
HETATM   10  C4  UNL     1      14.456  10.050  13.693  1.00  0.00     0.030 C
BRANCH  10  11
HETATM   11  C5  UNL     1      13.652  11.105  14.465  1.00  0.00     0.029 C
BRANCH  11  12
HETATM   12  C6  UNL     1      13.562  10.618  15.893  1.00  0.00     0.236 C
BRANCH  12  13
HETATM   13  N2  UNL     1      12.907  11.542  16.767  1.00  0.00    -0.073 N
HETATM   14  C7  UNL     1      13.923  12.275  17.532  1.00  0.00     0.272 C
HETATM   15  C8  UNL     1      12.121  12.528  16.070  1.00  0.00     0.272 C
BRANCH  13  16
HETATM   16  C9  UNL     1      12.130  10.800  17.723  1.00  0.00     0.262 C
BRANCH  16  17
HETATM   17  C10 UNL     1      12.023  11.479  19.062  1.00  0.00     0.192 C
BRANCH  17  18
HETATM   18  O1  UNL     1      10.732  11.484  19.563  1.00  0.00    -0.399 OA
ATOM     19  H1  UNL     1      10.141  10.925  19.071  1.00  0.00     0.209 HD
ENDBRANCH  17  18
ENDBRANCH  16  17
ENDBRANCH  13  16
ENDBRANCH  12  13
ENDBRANCH  11  12
ENDBRANCH  10  11
ENDBRANCH   9  10
ENDBRANCH   1   9
BRANCH   6  20
HETATM   20  O4  UNL     1      14.435  10.808  10.101  1.00  0.00    -0.367 OA
ATOM     21  H4  UNL     1      14.937  11.543  10.432  1.00  0.00     0.212 HD
ENDBRANCH   6  20
BRANCH   5  22
HETATM   22  O3  UNL     1      16.091   7.810   9.205  1.00  0.00    -0.389 OA
ATOM     23  H3  UNL     1      15.517   7.436   8.547  1.00  0.00     0.210 HD
ENDBRANCH   5  22
BRANCH   4  24
HETATM   24  O2  UNL     1      17.097  10.994   8.209  1.00  0.00    -0.393 OA
ATOM     25  H2  UNL     1      17.632  11.726   8.495  1.00  0.00     0.210 HD
ENDBRANCH   4  24
TORSDOF 12
ENDMDL