MODEL 1
REMARK VINA RESULT: -7.676824613      0.000      0.000
REMARK  8 active torsions:
REMARK  status: ('A' for Active; 'I' for Inactive)
REMARK    1  A    between atoms: N3_7  and  C3_8
REMARK    2  A    between atoms: C3_8  and  C4_9
REMARK    3  A    between atoms: C4_9  and  C5_10
REMARK    4  A    between atoms: C5_10  and  C6_11
REMARK    5  A    between atoms: C6_11  and  N4_12
REMARK    6  A    between atoms: N4_12  and  S1_14
REMARK    7  A    between atoms: S1_14  and  N5_17
REMARK    8  A    between atoms: N5_17  and  C7_19
ROOT
HETATM    1  N4  UNL     1      14.084  12.258  11.361  1.00  0.00    -0.303 N
ATOM      2  H4  UNL     1      14.529  13.132  11.082  1.00  0.00     0.173 HD
ENDROOT
BRANCH   1   3
HETATM    3  C6  UNL     1      12.845  12.146  12.083  1.00  0.00     0.133 C
BRANCH   3   4
HETATM    4  C5  UNL     1      12.979  12.664  13.492  1.00  0.00     0.022 C
BRANCH   4   5
HETATM    5  C4  UNL     1      12.312  11.786  14.501  1.00  0.00     0.023 C
BRANCH   5   6
HETATM    6  C3  UNL     1      13.343  11.098  15.362  1.00  0.00     0.150 C
BRANCH   6   7
HETATM    7  N3  UNL     1      13.142  11.242  16.768  1.00  0.00    -0.245 N
HETATM    8  C1  UNL     1      13.433  12.365  17.608  1.00  0.00     0.335 C
HETATM    9  O1  UNL     1      14.301  13.243  17.350  1.00  0.00    -0.246 OA
HETATM   10  N1  UNL     1      12.560  12.258  18.735  1.00  0.00    -0.327 N
HETATM   11  C2  UNL     1      11.651  11.156  18.391  1.00  0.00     0.261 C
ATOM     12  H1  UNL     1      12.567  12.819  19.587  1.00  0.00     0.165 HD
HETATM   13  N2  UNL     1      12.594  10.287  17.665  1.00  0.00    -0.115 NA
ENDBRANCH   6   7
ENDBRANCH   5   6
ENDBRANCH   4   5
ENDBRANCH   3   4
ENDBRANCH   1   3
BRANCH   1  14
HETATM   14  S1  UNL     1      14.703  10.666  11.039  1.00  0.00     0.315 S
HETATM   15  O2  UNL     1      13.824   9.927  10.067  1.00  0.00    -0.183 OA
HETATM   16  O3  UNL     1      14.757   9.915  12.358  1.00  0.00    -0.183 OA
BRANCH  14  17
HETATM   17  N5  UNL     1      16.298  10.757  10.411  1.00  0.00    -0.298 N
ATOM     18  H5  UNL     1      17.030  11.386  10.740  1.00  0.00     0.174 HD
BRANCH  17  19
HETATM   19  C7  UNL     1      16.435   9.806   9.349  1.00  0.00     0.094 C
HETATM   20  C8  UNL     1      17.385  10.295   8.255  1.00  0.00     0.026 C
HETATM   21  C9  UNL     1      17.550   9.017   7.445  1.00  0.00     0.002 C
HETATM   22  C10 UNL     1      17.848   8.013   8.542  1.00  0.00     0.002 C
HETATM   23  C11 UNL     1      17.078   8.521   9.761  1.00  0.00     0.026 C
ENDBRANCH  17  19
ENDBRANCH  14  17
ENDBRANCH   1  14
TORSDOF 8
ENDMDL