MODEL 5
REMARK VINA RESULT: -7.366662093      1.539      1.820
REMARK  8 active torsions:
REMARK  status: ('A' for Active; 'I' for Inactive)
REMARK    1  A    between atoms: C1_2  and  C2_4
REMARK    2  A    between atoms: C4_6  and  O2_7
REMARK    3  A    between atoms: O2_7  and  C5_8
REMARK    4  A    between atoms: C5_8  and  C6_9
REMARK    5  A    between atoms: C6_9  and  C7_10
REMARK    6  A    between atoms: C7_10  and  C8_11
REMARK    7  A    between atoms: C8_11  and  C9_12
REMARK    8  A    between atoms: C9_12  and  N2_13
ROOT
HETATM    1  C2  UNL     1      17.877   6.928   5.517  1.00  0.00     0.083 C
HETATM    2  C3  UNL     1      17.980   8.334   6.096  1.00  0.00     0.046 C
HETATM    3  C4  UNL     1      17.432   8.157   7.499  1.00  0.00     0.127 C
HETATM    4  C11 UNL     1      16.511   6.963   7.496  1.00  0.00     0.026 C
HETATM    5  C12 UNL     1      16.791   6.044   8.647  1.00  0.00     0.051 C
HETATM    6  C13 UNL     1      16.154   4.716   8.417  1.00  0.00     0.056 C
HETATM    7  N5  UNL     1      16.525   4.111   7.210  1.00  0.00    -0.402 N
ATOM      8  H5  UNL     1      16.832   3.139   7.181  1.00  0.00     0.158 HD
HETATM    9  C14 UNL     1      16.460   4.891   6.028  1.00  0.00     0.124 C
HETATM   10  C15 UNL     1      16.644   6.346   6.152  1.00  0.00     0.023 C
ENDROOT
BRANCH   3  11
HETATM   11  O2  UNL     1      16.735   9.310   7.801  1.00  0.00    -0.385 OA
BRANCH  11  12
HETATM   12  C5  UNL     1      17.304  10.103   8.767  1.00  0.00     0.168 C
BRANCH  12  13
HETATM   13  C6  UNL     1      16.784   9.851  10.164  1.00  0.00     0.026 C
BRANCH  13  14
HETATM   14  C7  UNL     1      15.286   9.725  10.091  1.00  0.00     0.004 C
BRANCH  14  15
HETATM   15  C8  UNL     1      14.572  10.729  10.933  1.00  0.00     0.020 C
BRANCH  15  16
HETATM   16  C9  UNL     1      15.005  10.683  12.381  1.00  0.00     0.122 C
BRANCH  16  17
HETATM   17  N2  UNL     1      14.100  11.509  13.144  1.00  0.00    -0.367 N
HETATM   18  C10 UNL     1      13.565  11.116  14.241  1.00  0.00     0.196 C
HETATM   19  N3  UNL     1      12.685  11.980  14.939  1.00  0.00    -0.067 NA
HETATM   20  N4  UNL     1      13.884   9.816  14.714  1.00  0.00    -0.067 NA
ATOM     21  H2  UNL     1      13.877  12.442  12.797  1.00  0.00     0.161 HD
ENDBRANCH  16  17
ENDBRANCH  15  16
ENDBRANCH  14  15
ENDBRANCH  13  14
ENDBRANCH  12  13
ENDBRANCH  11  12
ENDBRANCH   3  11
BRANCH   1  22
HETATM   22  C1  UNL     1      19.131   6.257   5.777  1.00  0.00     0.235 C
HETATM   23  N1  UNL     1      19.657   5.339   4.833  1.00  0.00    -0.062 NA
HETATM   24  O1  UNL     1      19.784   6.453   6.817  1.00  0.00    -0.276 OA
ENDBRANCH   1  22
TORSDOF 8
ENDMDL