MODEL 1
REMARK VINA RESULT: -7.282117814      0.000      0.000
REMARK  9 active torsions:
REMARK  status: ('A' for Active; 'I' for Inactive)
REMARK    1  A    between atoms: N3_4  and  C2_6
REMARK    2  A    between atoms: C2_6  and  C3_7
REMARK    3  A    between atoms: C3_7  and  N4_8
REMARK       I    between atoms: N4_8  and  C4_10
REMARK    4  A    between atoms: N6_12  and  C5_14
REMARK    5  A    between atoms: C5_14  and  C6_16
REMARK    6  A    between atoms: C6_16  and  C7_17
REMARK    7  A    between atoms: C7_17  and  C8_18
REMARK    8  A    between atoms: C8_18  and  N7_19
REMARK    9  A    between atoms: N7_19  and  C9_22
ROOT
HETATM    1  N4  UNL     1      17.269   9.926   8.051  1.00  0.00    -0.363 N
ATOM      2  H4  UNL     1      17.161  10.656   7.347  1.00  0.00     0.162 HD
HETATM    3  C4  UNL     1      16.278   9.680   9.019  1.00  0.00     0.189 C
HETATM    4  N5  UNL     1      15.460   8.553   8.920  1.00  0.00    -0.064 NA
HETATM    5  N6  UNL     1      16.129  10.503   9.994  1.00  0.00    -0.325 N
ATOM      6  H6  UNL     1      16.744  11.316  10.026  1.00  0.00     0.169 HD
ENDROOT
BRANCH   5   7
HETATM    7  C5  UNL     1      15.187  10.361  11.010  1.00  0.00     0.079 C
HETATM    8  S1  UNL     1      15.704   9.661  12.417  1.00  0.00    -0.065 SA
BRANCH   7   9
HETATM    9  C6  UNL     1      13.770  10.811  10.901  1.00  0.00     0.071 C
BRANCH   9  10
HETATM   10  C7  UNL     1      13.625  12.159  11.593  1.00  0.00     0.034 C
BRANCH  10  11
HETATM   11  C8  UNL     1      12.408  12.192  12.441  1.00  0.00     0.233 C
BRANCH  11  12
HETATM   12  N7  UNL     1      12.442  11.171  13.431  1.00  0.00    -0.071 N
ATOM     13  H72 UNL     1      11.499  10.838  13.631  1.00  0.00     0.277 HD
ATOM     14  H71 UNL     1      12.851  10.318  13.049  1.00  0.00     0.277 HD
BRANCH  12  15
HETATM   15  C9  UNL     1      13.110  11.545  14.649  1.00  0.00     0.185 C
HETATM   16  C10 UNL     1      12.371  12.483  15.529  1.00  0.00     0.033 C
HETATM   17  C11 UNL     1      12.125  11.772  16.840  1.00  0.00     0.002 C
HETATM   18  C12 UNL     1      13.041  10.591  16.888  1.00  0.00     0.002 C
HETATM   19  C13 UNL     1      13.547  10.352  15.489  1.00  0.00     0.033 C
ENDBRANCH  12  15
ENDBRANCH  11  12
ENDBRANCH  10  11
ENDBRANCH   9  10
ENDBRANCH   7   9
ENDBRANCH   5   7
BRANCH   1  20
HETATM   20  C3  UNL     1      18.463   9.083   8.106  1.00  0.00     0.142 C
BRANCH  20  21
HETATM   21  C2  UNL     1      18.433   8.220   6.854  1.00  0.00     0.141 C
BRANCH  21  22
HETATM   22  N3  UNL     1      17.951   6.868   7.185  1.00  0.00    -0.365 N
HETATM   23  C1  UNL     1      16.889   6.513   6.515  1.00  0.00     0.197 C
HETATM   24  N1  UNL     1      16.357   5.209   6.783  1.00  0.00    -0.067 NA
HETATM   25  N2  UNL     1      16.262   7.339   5.558  1.00  0.00    -0.067 NA
ATOM     26  H3  UNL     1      18.405   6.266   7.872  1.00  0.00     0.161 HD
ENDBRANCH  21  22
ENDBRANCH  20  21
ENDBRANCH   1  20
TORSDOF 9
ENDMDL