MODEL 3
REMARK VINA RESULT: -7.651095313      1.049      1.259
REMARK  9 active torsions:
REMARK  status: ('A' for Active; 'I' for Inactive)
REMARK    1  A    between atoms: C2_2  and  C3_3
REMARK    2  A    between atoms: N1_6  and  C6_7
REMARK    3  A    between atoms: C6_7  and  C7_8
REMARK    4  A    between atoms: C7_8  and  C8_9
REMARK    5  A    between atoms: C8_9  and  C9_10
REMARK    6  A    between atoms: C9_10  and  C10_11
REMARK    7  A    between atoms: C10_11  and  N2_12
REMARK    8  A    between atoms: N5_18  and  N6_20
REMARK    9  A    between atoms: N8_25  and  C13_26
ROOT
HETATM    1  C3  UNL     1      15.747   7.920  13.277  1.00  0.00     0.081 C
HETATM    2  C4  UNL     1      16.086   7.451  11.899  1.00  0.00     0.042 C
HETATM    3  C5  UNL     1      17.123   8.287  11.179  1.00  0.00     0.143 C
HETATM    4  N1  UNL     1      16.348   9.328  10.488  1.00  0.00    -0.215 N
HETATM    5  C12 UNL     1      15.259  10.039  11.072  1.00  0.00     0.704 C
HETATM    6  N5  UNL     1      14.747  11.013  10.358  1.00  0.00    -0.138 N
ATOM      7  H5  UNL     1      15.123  11.231   9.435  1.00  0.00     0.205 HD
HETATM    8  N7  UNL     1      14.653   9.827  12.337  1.00  0.00    -0.150 N
ATOM      9  H7  UNL     1      13.691  10.145  12.451  1.00  0.00     0.199 HD
HETATM   10  N8  UNL     1      15.253   9.225  13.431  1.00  0.00    -0.212 NA
ENDROOT
BRANCH   4  11
HETATM   11  C6  UNL     1      16.683   9.672   9.135  1.00  0.00     0.141 C
BRANCH  11  12
HETATM   12  C7  UNL     1      16.720   8.491   8.192  1.00  0.00     0.020 C
BRANCH  12  13
HETATM   13  C8  UNL     1      17.711   8.850   7.105  1.00  0.00     0.003 C
BRANCH  13  14
HETATM   14  C9  UNL     1      17.434   8.071   5.822  1.00  0.00     0.020 C
BRANCH  14  15
HETATM   15  C10 UNL     1      18.392   6.897   5.839  1.00  0.00     0.122 C
BRANCH  15  16
HETATM   16  N2  UNL     1      17.795   5.681   5.340  1.00  0.00    -0.367 N
HETATM   17  C11 UNL     1      18.545   4.761   4.885  1.00  0.00     0.196 C
HETATM   18  N3  UNL     1      19.942   4.917   4.861  1.00  0.00    -0.067 NA
HETATM   19  N4  UNL     1      17.965   3.569   4.395  1.00  0.00    -0.067 NA
ATOM     20  H2  UNL     1      16.782   5.562   5.354  1.00  0.00     0.161 HD
ENDBRANCH  15  16
ENDBRANCH  14  15
ENDBRANCH  13  14
ENDBRANCH  12  13
ENDBRANCH  11  12
ENDBRANCH   4  11
BRANCH   6  21
HETATM   21  N6  UNL     1      13.687  11.741  10.871  1.00  0.00    -0.331 N
ATOM     22  H62 UNL     1      13.423  11.620  11.849  1.00  0.00     0.177 HD
ATOM     23  H61 UNL     1      13.187  12.388  10.262  1.00  0.00     0.177 HD
ENDBRANCH   6  21
BRANCH   1  24
HETATM   24  C2  UNL     1      14.801   6.919  13.874  1.00  0.00     0.017 C
HETATM   25  C1  UNL     1      15.030   5.521  13.309  1.00  0.00     0.006 C
ENDBRANCH   1  24
BRANCH  10  26
HETATM   26  C13 UNL     1      14.422   9.380  14.596  1.00  0.00     0.110 C
HETATM   27  C14 UNL     1      13.636  10.681  14.539  1.00  0.00     0.023 C
ENDBRANCH  10  26
TORSDOF 9
ENDMDL