MODEL 1
REMARK VINA RESULT: -7.746570676      0.000      0.000
REMARK  11 active torsions:
REMARK  status: ('A' for Active; 'I' for Inactive)
REMARK    1  A    between atoms: C2_2  and  C3_3
REMARK    2  A    between atoms: C3_3  and  C4_4
REMARK    3  A    between atoms: C4_4  and  C5_5
REMARK    4  A    between atoms: C5_5  and  C6_6
REMARK    5  A    between atoms: C6_6  and  C7_7
REMARK    6  A    between atoms: C7_7  and  C8_8
REMARK    7  A    between atoms: C8_8  and  N1_9
REMARK    8  A    between atoms: C9_10  and  O1_11
REMARK    9  A    between atoms: C10_15  and  N3_16
REMARK   10  A    between atoms: N3_16  and  C11_18
REMARK   11  A    between atoms: C14_26  and  N6_27
ROOT
HETATM    1  N1  UNL     1      13.715  11.202  12.760  1.00  0.00    -0.146 N
HETATM    2  C9  UNL     1      14.416  10.091  13.151  1.00  0.00     0.252 A
HETATM    3  N2  UNL     1      15.309   9.492  12.347  1.00  0.00    -0.154 N
ATOM      4  H2  UNL     1      15.810   8.665  12.673  1.00  0.00     0.188 HD
HETATM    5  C10 UNL     1      15.549   9.978  11.103  1.00  0.00     0.697 A
HETATM    6  N5  UNL     1      14.873  11.062  10.709  1.00  0.00    -0.022 N
ATOM      7  H5  UNL     1      15.034  11.448   9.779  1.00  0.00     0.203 HD
HETATM    8  C14 UNL     1      13.974  11.655  11.532  1.00  0.00     0.695 A
ENDROOT
BRANCH   1   9
HETATM    9  C8  UNL     1      12.770  11.786  13.684  1.00  0.00     0.151 C
BRANCH   9  10
HETATM   10  C7  UNL     1      13.401  12.815  14.576  1.00  0.00     0.021 C
BRANCH  10  11
HETATM   11  C6  UNL     1      12.826  12.816  15.971  1.00  0.00     0.002 C
BRANCH  11  12
HETATM   12  C5  UNL     1      13.506  11.822  16.884  1.00  0.00     0.000 C
BRANCH  12  13
HETATM   13  C4  UNL     1      12.553  10.788  17.409  1.00  0.00     0.000 C
BRANCH  13  14
HETATM   14  C3  UNL     1      11.385  11.385  18.160  1.00  0.00    -0.000 C
BRANCH  14  15
HETATM   15  C2  UNL     1      11.407  10.748  19.555  1.00  0.00    -0.005 C
HETATM   16  C1  UNL     1      11.805  11.744  20.602  1.00  0.00     0.005 C
ENDBRANCH  14  15
ENDBRANCH  13  14
ENDBRANCH  12  13
ENDBRANCH  11  12
ENDBRANCH  10  11
ENDBRANCH   9  10
ENDBRANCH   1   9
BRANCH   2  17
HETATM   17  O1  UNL     1      14.219   9.540  14.410  1.00  0.00    -0.331 OA
ATOM     18  H1  UNL     1      14.630   8.717  14.646  1.00  0.00     0.221 HD
ENDBRANCH   2  17
BRANCH   8  19
HETATM   19  N6  UNL     1      13.356  12.677  11.080  1.00  0.00    -0.234 N
ATOM     20  H62 UNL     1      12.730  12.528  10.288  1.00  0.00     0.174 HD
ATOM     21  H61 UNL     1      13.488  13.591  11.513  1.00  0.00     0.174 HD
ENDBRANCH   8  19
BRANCH   5  22
HETATM   22  N3  UNL     1      16.397   9.438  10.297  1.00  0.00    -0.204 N
ATOM     23  H3  UNL     1      17.192   8.934  10.690  1.00  0.00     0.179 HD
BRANCH  22  24
HETATM   24  C11 UNL     1      16.269   9.516   8.855  1.00  0.00     0.210 C
HETATM   25  C12 UNL     1      17.422  10.214   8.166  1.00  0.00     0.150 C
HETATM   26  C13 UNL     1      17.712   8.990   7.380  1.00  0.00     0.222 C
HETATM   27  O2  UNL     1      18.514   8.754   6.454  1.00  0.00    -0.273 OA
HETATM   28  N4  UNL     1      16.712   8.327   8.157  1.00  0.00    -0.339 N
ATOM     29  H4  UNL     1      16.414   7.352   8.204  1.00  0.00     0.164 HD
ENDBRANCH  22  24
ENDBRANCH   5  22
TORSDOF 11
ENDMDL