MODEL 5
REMARK VINA RESULT: -7.876334285      2.323      3.680
REMARK  10 active torsions:
REMARK  status: ('A' for Active; 'I' for Inactive)
REMARK    1  A    between atoms: N1_2  and  C3_4
REMARK    2  A    between atoms: C3_4  and  C4_5
REMARK    3  A    between atoms: C9_10  and  N2_11
REMARK       I    between atoms: N2_11  and  C10_13
REMARK    4  A    between atoms: C10_13  and  C11_15
REMARK    5  A    between atoms: C11_15  and  C12_16
REMARK    6  A    between atoms: C11_15  and  N3_23
REMARK    7  A    between atoms: C12_16  and  C13_17
REMARK    8  A    between atoms: N3_23  and  C19_25
REMARK    9  A    between atoms: C19_25  and  C20_29
REMARK   10  A    between atoms: C20_29  and  N5_30
ROOT
HETATM    1  C11 UNL     1      15.370  10.159  11.953  1.00  0.00     0.175 C
ENDROOT
BRANCH   1   2
HETATM    2  C10 UNL     1      16.407   9.571  11.080  1.00  0.00     0.240 C
HETATM    3  N2  UNL     1      16.162   8.495  10.226  1.00  0.00    -0.354 N
ATOM      4  H2  UNL     1      15.219   8.108  10.208  1.00  0.00     0.162 HD
HETATM    5  O1  UNL     1      17.554  10.055  11.102  1.00  0.00    -0.271 OA
BRANCH   3   6
HETATM    6  C9  UNL     1      17.160   7.890   9.361  1.00  0.00     0.090 C
HETATM    7  C4  UNL     1      17.507   6.479   9.798  1.00  0.00     0.036 C
HETATM    8  C5  UNL     1      16.337   5.612   9.399  1.00  0.00     0.008 C
HETATM    9  C6  UNL     1      16.304   5.571   7.906  1.00  0.00     0.001 C
HETATM   10  C7  UNL     1      16.212   6.890   7.228  1.00  0.00     0.002 C
HETATM   11  C8  UNL     1      16.873   8.017   7.907  1.00  0.00     0.026 C
BRANCH   7  12
HETATM   12  C3  UNL     1      18.783   6.029   9.134  1.00  0.00     0.278 C
BRANCH  12  13
HETATM   13  N1  UNL     1      19.207   4.774   9.733  1.00  0.00     0.080 N
HETATM   14  C1  UNL     1      20.224   4.119   8.953  1.00  0.00     0.309 C
HETATM   15  C2  UNL     1      19.736   5.046  11.048  1.00  0.00     0.309 C
ENDBRANCH  12  13
ENDBRANCH   7  12
ENDBRANCH   3   6
ENDBRANCH   1   2
BRANCH   1  16
HETATM   16  C12 UNL     1      15.253   9.382  13.184  1.00  0.00     0.039 C
BRANCH  16  17
HETATM   17  C13 UNL     1      15.680   7.958  13.224  1.00  0.00    -0.012 C
HETATM   18  C14 UNL     1      14.810   7.026  14.025  1.00  0.00     0.005 C
HETATM   19  C15 UNL     1      14.964   5.596  13.451  1.00  0.00     0.000 C
HETATM   20  C16 UNL     1      16.437   5.433  13.161  1.00  0.00     0.000 C
HETATM   21  C17 UNL     1      17.280   6.323  14.058  1.00  0.00     0.000 C
HETATM   22  C18 UNL     1      17.094   7.785  13.740  1.00  0.00     0.005 C
ENDBRANCH  16  17
ENDBRANCH   1  16
BRANCH   1  23
HETATM   23  N3  UNL     1      14.224  10.503  11.193  1.00  0.00    -0.365 N
ATOM     24  H3  UNL     1      13.833   9.857  10.507  1.00  0.00     0.161 HD
BRANCH  23  25
HETATM   25  C19 UNL     1      13.630  11.794  11.421  1.00  0.00     0.097 C
HETATM   26  N4  UNL     1      13.945  12.790  10.672  1.00  0.00    -0.388 N
ATOM     27  H42 UNL     1      14.621  12.647   9.922  1.00  0.00     0.157 HD
ATOM     28  H41 UNL     1      13.524  13.705  10.834  1.00  0.00     0.157 HD
BRANCH  25  29
HETATM   29  C20 UNL     1      12.651  12.001  12.505  1.00  0.00     0.304 C
BRANCH  29  30
HETATM   30  N5  UNL     1      11.397  12.520  11.953  1.00  0.00    -0.073 N
ATOM     31  H53 UNL     1      11.054  13.327  12.474  1.00  0.00     0.274 HD
ATOM     32  H52 UNL     1      11.535  12.974  11.050  1.00  0.00     0.274 HD
ATOM     33  H51 UNL     1      10.703  11.774  11.904  1.00  0.00     0.274 HD
ENDBRANCH  29  30
ENDBRANCH  25  29
ENDBRANCH  23  25
ENDBRANCH   1  23
TORSDOF 10
ENDMDL