MODEL 5
REMARK VINA RESULT: -7.338314990      2.251      6.198
REMARK  10 active torsions:
REMARK  status: ('A' for Active; 'I' for Inactive)
REMARK    1  A    between atoms: C2_2  and  C4_4
REMARK    2  A    between atoms: C4_4  and  C5_5
REMARK    3  A    between atoms: C5_5  and  N1_6
REMARK    4  A    between atoms: C5_5  and  C19_29
REMARK       I    between atoms: N1_6  and  C6_8
REMARK    5  A    between atoms: C6_8  and  C7_10
REMARK    6  A    between atoms: C7_10  and  N2_11
REMARK    7  A    between atoms: C7_10  and  C13_23
REMARK       I    between atoms: N2_11  and  C8_13
REMARK    8  A    between atoms: C8_13  and  C9_15
REMARK    9  A    between atoms: C9_15  and  N3_16
REMARK   10  A    between atoms: C9_15  and  C10_20
ROOT
HETATM    1  C7  UNL     1      17.107   9.311   9.166  1.00  0.00     0.180 C
ENDROOT
BRANCH   1   2
HETATM    2  C6  UNL     1      17.958   8.641  10.196  1.00  0.00     0.241 C
HETATM    3  N1  UNL     1      17.434   7.494  10.863  1.00  0.00    -0.346 N
ATOM      4  H1  UNL     1      16.500   7.158  10.627  1.00  0.00     0.163 HD
HETATM    5  O1  UNL     1      19.108   9.049  10.492  1.00  0.00    -0.271 OA
BRANCH   3   6
HETATM    6  C5  UNL     1      18.225   6.786  11.892  1.00  0.00     0.174 C
BRANCH   6   7
HETATM    7  C4  UNL     1      17.314   6.040  12.807  1.00  0.00     0.038 C
BRANCH   7   8
HETATM    8  C2  UNL     1      15.918   5.837  12.366  1.00  0.00    -0.020 C
HETATM    9  C1  UNL     1      15.013   6.007  13.607  1.00  0.00     0.009 C
HETATM   10  C3  UNL     1      15.742   4.408  11.871  1.00  0.00     0.009 C
ENDBRANCH   7   8
ENDBRANCH   6   7
BRANCH   6  11
HETATM   11  C19 UNL     1      19.193   5.972  11.149  1.00  0.00     0.254 C
HETATM   12  N4  UNL     1      18.780   5.101  10.124  1.00  0.00    -0.060 NA
HETATM   13  O3  UNL     1      20.422   6.022  11.403  1.00  0.00    -0.275 OA
ENDBRANCH   6  11
ENDBRANCH   3   6
ENDBRANCH   1   2
BRANCH   1  14
HETATM   14  N2  UNL     1      15.869   9.649   9.797  1.00  0.00    -0.346 N
HETATM   15  C8  UNL     1      15.757  10.758  10.673  1.00  0.00     0.249 C
HETATM   16  O2  UNL     1      16.754  11.492  10.928  1.00  0.00    -0.271 OA
ATOM     17  H2  UNL     1      15.045   9.078   9.612  1.00  0.00     0.163 HD
BRANCH  15  18
HETATM   18  C9  UNL     1      14.471  11.110  11.327  1.00  0.00     0.278 C
BRANCH  18  19
HETATM   19  N3  UNL     1      14.006  12.408  10.859  1.00  0.00    -0.066 N
ATOM     20  H33 UNL     1      14.736  13.118  10.917  1.00  0.00     0.275 HD
ATOM     21  H32 UNL     1      13.865  12.420   9.849  1.00  0.00     0.275 HD
ATOM     22  H31 UNL     1      13.165  12.685  11.365  1.00  0.00     0.275 HD
ENDBRANCH  18  19
BRANCH  18  23
HETATM   23  C10 UNL     1      14.688  11.097  12.817  1.00  0.00     0.017 C
HETATM   24  C11 UNL     1      13.410  11.512  13.546  1.00  0.00     0.012 C
HETATM   25  C12 UNL     1      14.928   9.656  13.226  1.00  0.00     0.012 C
ENDBRANCH  18  23
ENDBRANCH  15  18
ENDBRANCH   1  14
BRANCH   1  26
HETATM   26  C13 UNL     1      16.899   8.369   7.969  1.00  0.00     0.018 C
HETATM   27  C14 UNL     1      18.171   8.042   7.288  1.00  0.00     0.007 C
HETATM   28  C15 UNL     1      18.370   6.569   7.015  1.00  0.00     0.000 C
HETATM   29  C16 UNL     1      17.047   6.038   6.483  1.00  0.00     0.000 C
HETATM   30  C17 UNL     1      16.133   5.967   7.686  1.00  0.00     0.000 C
HETATM   31  C18 UNL     1      16.109   7.219   8.473  1.00  0.00     0.007 C
ENDBRANCH   1  26
TORSDOF 10
ENDMDL