MODEL 5
REMARK VINA RESULT: -7.126902250      3.615      8.595
REMARK  9 active torsions:
REMARK  status: ('A' for Active; 'I' for Inactive)
REMARK    1  A    between atoms: C2_2  and  C3_3
REMARK    2  A    between atoms: C3_3  and  C5_5
REMARK    3  A    between atoms: C5_5  and  N1_6
REMARK    4  A    between atoms: C5_5  and  C13_20
REMARK       I    between atoms: N1_6  and  C6_8
REMARK    5  A    between atoms: C6_8  and  C7_10
REMARK    6  A    between atoms: C7_10  and  C8_11
REMARK    7  A    between atoms: C7_10  and  N2_15
REMARK    8  A    between atoms: C8_11  and  C9_12
REMARK       I    between atoms: C13_20  and  N5_22
REMARK    9  A    between atoms: N5_22  and  C14_24
ROOT
HETATM    1  C5  UNL     1      18.681   6.273   7.408  1.00  0.00     0.180 C
ENDROOT
BRANCH   1   2
HETATM    2  C3  UNL     1      17.531   5.947   6.488  1.00  0.00     0.013 C
HETATM    3  C4  UNL     1      16.464   5.128   7.196  1.00  0.00     0.012 C
BRANCH   2   4
HETATM    4  C2  UNL     1      16.881   7.170   5.924  1.00  0.00     0.002 C
HETATM    5  C1  UNL     1      17.904   8.271   5.802  1.00  0.00     0.005 C
ENDBRANCH   2   4
ENDBRANCH   1   2
BRANCH   1   6
HETATM    6  N1  UNL     1      18.251   6.216   8.776  1.00  0.00    -0.346 N
HETATM    7  C6  UNL     1      18.484   7.207   9.759  1.00  0.00     0.241 C
HETATM    8  O1  UNL     1      19.124   8.231   9.410  1.00  0.00    -0.271 OA
ATOM      9  H1  UNL     1      17.732   5.387   9.065  1.00  0.00     0.163 HD
BRANCH   7  10
HETATM   10  C7  UNL     1      17.988   7.023  11.126  1.00  0.00     0.176 C
BRANCH  10  11
HETATM   11  C8  UNL     1      16.565   6.570  11.203  1.00  0.00     0.038 C
BRANCH  11  12
HETATM   12  C9  UNL     1      16.352   5.269  11.908  1.00  0.00    -0.020 C
HETATM   13  C10 UNL     1      15.980   4.228  10.859  1.00  0.00     0.009 C
HETATM   14  C11 UNL     1      15.193   5.305  12.893  1.00  0.00     0.009 C
ENDBRANCH  11  12
ENDBRANCH  10  11
BRANCH  10  15
HETATM   15  N2  UNL     1      18.863   6.212  11.940  1.00  0.00    -0.354 N
HETATM   16  C12 UNL     1      19.652   6.697  12.824  1.00  0.00     0.197 C
HETATM   17  N3  UNL     1      20.512   5.909  13.627  1.00  0.00    -0.067 NA
HETATM   18  N4  UNL     1      19.663   8.106  13.007  1.00  0.00    -0.067 NA
ATOM     19  H2  UNL     1      18.850   5.201  11.804  1.00  0.00     0.162 HD
ENDBRANCH  10  15
ENDBRANCH   7  10
ENDBRANCH   1   6
BRANCH   1  20
HETATM   20  C13 UNL     1      19.873   5.481   7.125  1.00  0.00     0.241 C
HETATM   21  O2  UNL     1      20.146   4.391   7.726  1.00  0.00    -0.271 OA
HETATM   22  N5  UNL     1      20.788   5.920   6.140  1.00  0.00    -0.355 N
ATOM     23  H5  UNL     1      20.600   6.789   5.639  1.00  0.00     0.162 HD
BRANCH  22  24
HETATM   24  C14 UNL     1      21.971   5.178   5.830  1.00  0.00     0.084 C
HETATM   25  C15 UNL     1      23.201   5.992   5.648  1.00  0.00     0.025 C
HETATM   26  C16 UNL     1      23.936   5.691   4.364  1.00  0.00     0.002 C
HETATM   27  C17 UNL     1      24.106   4.224   4.114  1.00  0.00     0.000 C
HETATM   28  C18 UNL     1      22.905   3.399   4.471  1.00  0.00     0.002 C
HETATM   29  C19 UNL     1      21.706   4.344   4.585  1.00  0.00     0.025 C
ENDBRANCH  22  24
ENDBRANCH   1  20
TORSDOF 9
ENDMDL