MODEL 5
REMARK VINA RESULT: -7.868623844      2.578      4.196
REMARK  10 active torsions:
REMARK  status: ('A' for Active; 'I' for Inactive)
REMARK       I    between atoms: C2_4  and  N2_5
REMARK       I    between atoms: C2_4  and  N4_25
REMARK    1  A    between atoms: N2_5  and  C3_7
REMARK    2  A    between atoms: C3_7  and  C4_8
REMARK    3  A    between atoms: C4_8  and  C5_9
REMARK    4  A    between atoms: C5_9  and  N3_10
REMARK       I    between atoms: N3_10  and  C6_12
REMARK    5  A    between atoms: C6_12  and  C7_14
REMARK    6  A    between atoms: C7_14  and  C8_15
REMARK    7  A    between atoms: C8_15  and  C9_16
REMARK    8  A    between atoms: C9_16  and  C10_17
REMARK    9  A    between atoms: C10_17  and  C11_18
REMARK   10  A    between atoms: N4_25  and  C17_27
ROOT
HETATM    1  C5  UNL     1      13.504  11.254  13.582  1.00  0.00     0.124 C
ENDROOT
BRANCH   1   2
HETATM    2  C4  UNL     1      12.999  12.601  13.936  1.00  0.00     0.040 C
BRANCH   2   3
HETATM    3  C3  UNL     1      13.466  13.163  15.244  1.00  0.00     0.139 C
BRANCH   3   4
HETATM    4  N2  UNL     1      12.517  13.099  16.289  1.00  0.00    -0.226 N
HETATM    5  C2  UNL     1      12.574  12.233  17.394  1.00  0.00     0.674 C
HETATM    6  N1  UNL     1      11.484  11.674  17.836  1.00  0.00    -0.231 N
HETATM    7  N4  UNL     1      13.812  11.990  18.035  1.00  0.00    -0.182 N
HETATM    8  C1  UNL     1      11.572  10.794  18.966  1.00  0.00     0.165 C
ATOM      9  H1  UNL     1      10.586  11.857  17.388  1.00  0.00     0.177 HD
ATOM     10  H4  UNL     1      14.229  11.060  17.988  1.00  0.00     0.185 HD
ATOM     11  H2  UNL     1      11.723  13.737  16.237  1.00  0.00     0.177 HD
BRANCH   7  12
HETATM   12  C17 UNL     1      14.475  13.017  18.738  1.00  0.00     0.087 C
HETATM   13  C18 UNL     1      15.785  13.518  18.249  1.00  0.00     0.089 C
HETATM   14  N5  UNL     1      13.950  13.518  19.800  1.00  0.00    -0.389 N
ATOM     15  H52 UNL     1      13.051  13.174  20.136  1.00  0.00     0.157 HD
ATOM     16  H51 UNL     1      14.430  14.261  20.309  1.00  0.00     0.157 HD
ENDBRANCH   7  12
ENDBRANCH   3   4
ENDBRANCH   2   3
ENDBRANCH   1   2
BRANCH   1  17
HETATM   17  N3  UNL     1      14.617  11.335  12.665  1.00  0.00    -0.361 N
HETATM   18  C6  UNL     1      14.462  11.047  11.294  1.00  0.00     0.217 C
HETATM   19  O1  UNL     1      13.375  10.706  10.820  1.00  0.00    -0.274 OA
ATOM     20  H3  UNL     1      15.536  11.607  13.017  1.00  0.00     0.162 HD
BRANCH  18  21
HETATM   21  C7  UNL     1      15.627  11.144  10.357  1.00  0.00     0.103 C
BRANCH  21  22
HETATM   22  C8  UNL     1      16.843  10.583  11.023  1.00  0.00     0.009 C
BRANCH  22  23
HETATM   23  C9  UNL     1      17.874  10.242  10.003  1.00  0.00     0.001 C
BRANCH  23  24
HETATM   24  C10 UNL     1      17.339  10.210   8.592  1.00  0.00     0.005 C
BRANCH  24  25
HETATM   25  C11 UNL     1      17.510   8.770   8.100  1.00  0.00    -0.006 C
HETATM   26  C12 UNL     1      18.697   8.216   8.810  1.00  0.00     0.014 C
HETATM   27  C13 UNL     1      18.733   6.720   8.616  1.00  0.00     0.054 C
HETATM   28  S1  UNL     1      16.985   6.323   8.745  1.00  0.00    -0.261 SA
HETATM   29  C14 UNL     1      16.583   5.681  10.349  1.00  0.00     0.068 C
HETATM   30  C15 UNL     1      16.439   5.269   7.411  1.00  0.00     0.068 C
HETATM   31  C16 UNL     1      16.300   8.002   8.572  1.00  0.00     0.058 C
ENDBRANCH  24  25
ENDBRANCH  23  24
ENDBRANCH  22  23
ENDBRANCH  21  22
ENDBRANCH  18  21
ENDBRANCH   1  17
TORSDOF 10
ENDMDL