MODEL 5
REMARK VINA RESULT: -8.177606223      2.368      4.699
REMARK  9 active torsions:
REMARK  status: ('A' for Active; 'I' for Inactive)
REMARK    1  A    between atoms: C2_2  and  C3_3
REMARK    2  A    between atoms: C9_10  and  C10_11
REMARK    3  A    between atoms: C10_11  and  N2_12
REMARK       I    between atoms: N2_12  and  C11_13
REMARK       I    between atoms: C11_13  and  N3_15
REMARK    4  A    between atoms: N3_15  and  C12_17
REMARK    5  A    between atoms: C12_17  and  C13_18
REMARK    6  A    between atoms: C13_18  and  C14_19
REMARK    7  A    between atoms: C14_19  and  N4_20
REMARK       I    between atoms: N4_20  and  C15_22
REMARK       I    between atoms: C15_22  and  N5_23
REMARK    8  A    between atoms: C16_27  and  C17_28
REMARK    9  A    between atoms: C17_28  and  C18_29
ROOT
HETATM    1  C10 UNL     1      17.050   7.732  12.636  1.00  0.00     0.196 C
ENDROOT
BRANCH   1   2
HETATM    2  C9  UNL     1      16.984   7.674  11.112  1.00  0.00     0.275 C
HETATM    3  N1  UNL     1      18.141   7.190  10.469  1.00  0.00     0.100 N
HETATM    4  C4  UNL     1      18.094   5.853   9.940  1.00  0.00     0.282 C
HETATM    5  C5  UNL     1      18.483   8.008   9.298  1.00  0.00     0.278 C
HETATM    6  C3  UNL     1      17.202   5.619   8.769  1.00  0.00     0.040 C
HETATM    7  C16 UNL     1      16.532   6.767   8.194  1.00  0.00     0.001 C
HETATM    8  C6  UNL     1      17.235   8.090   8.497  1.00  0.00     0.019 C
HETATM    9  C7  UNL     1      16.290   9.064   9.224  1.00  0.00     0.009 C
HETATM   10  C8  UNL     1      16.594   9.092  10.690  1.00  0.00     0.043 C
BRANCH   6  11
HETATM   11  C2  UNL     1      16.240   4.543   9.263  1.00  0.00    -0.030 C
HETATM   12  C1  UNL     1      16.132   4.137  10.493  1.00  0.00     0.007 C
ENDBRANCH   6  11
BRANCH   7  13
HETATM   13  C17 UNL     1      16.357   6.821   6.704  1.00  0.00     0.005 C
BRANCH  13  14
HETATM   14  C18 UNL     1      17.344   7.329   5.779  1.00  0.00    -0.004 C
HETATM   15  C19 UNL     1      18.536   6.473   5.507  1.00  0.00     0.005 C
ENDBRANCH  13  14
ENDBRANCH   7  13
ENDBRANCH   1   2
BRANCH   1  16
HETATM   16  N2  UNL     1      15.988   8.064  13.344  1.00  0.00    -0.367 NA
HETATM   17  C11 UNL     1      14.857   8.388  14.104  1.00  0.00     0.393 C
HETATM   18  O1  UNL     1      14.160   7.627  14.742  1.00  0.00    -0.230 OA
HETATM   19  N3  UNL     1      14.503   9.785  14.117  1.00  0.00    -0.331 N
ATOM     20  H3  UNL     1      15.063  10.455  13.591  1.00  0.00     0.165 HD
BRANCH  19  21
HETATM   21  C12 UNL     1      13.369  10.238  14.863  1.00  0.00     0.127 C
BRANCH  21  22
HETATM   22  C13 UNL     1      13.282  11.764  14.761  1.00  0.00     0.039 C
BRANCH  22  23
HETATM   23  C14 UNL     1      12.250  12.146  13.730  1.00  0.00     0.126 C
BRANCH  23  24
HETATM   24  N4  UNL     1      12.836  12.857  12.627  1.00  0.00    -0.343 N
HETATM   25  C15 UNL     1      13.257  12.192  11.459  1.00  0.00     0.313 C
HETATM   26  N5  UNL     1      13.843  12.862  10.447  1.00  0.00    -0.352 N
HETATM   27  O2  UNL     1      13.088  10.944  11.365  1.00  0.00    -0.248 OA
ATOM     28  H52 UNL     1      13.980  13.870  10.523  1.00  0.00     0.160 HD
ATOM     29  H51 UNL     1      14.149  12.381   9.601  1.00  0.00     0.160 HD
ATOM     30  H4  UNL     1      12.949  13.868  12.692  1.00  0.00     0.164 HD
ENDBRANCH  23  24
ENDBRANCH  22  23
ENDBRANCH  21  22
ENDBRANCH  19  21
ENDBRANCH   1  16
TORSDOF 9
ENDMDL