MODEL 3
REMARK VINA RESULT: -7.949856638      3.816      7.106
REMARK  10 active torsions:
REMARK  status: ('A' for Active; 'I' for Inactive)
REMARK    1  A    between atoms: C2_2  and  C4_4
REMARK    2  A    between atoms: C4_4  and  C5_5
REMARK    3  A    between atoms: C5_5  and  N1_6
REMARK    4  A    between atoms: C5_5  and  C19_29
REMARK       I    between atoms: N1_6  and  C6_8
REMARK    5  A    between atoms: C6_8  and  C7_10
REMARK    6  A    between atoms: C7_10  and  N2_11
REMARK    7  A    between atoms: C7_10  and  C8_15
REMARK    8  A    between atoms: C8_15  and  N3_17
REMARK       I    between atoms: N3_17  and  C10_19
REMARK    9  A    between atoms: C10_19  and  C11_21
REMARK   10  A    between atoms: C12_22  and  C13_23
ROOT
HETATM    1  C7  UNL     1      16.001   9.916   9.995  1.00  0.00     0.296 C
ENDROOT
BRANCH   1   2
HETATM    2  C6  UNL     1      16.815   9.577   8.834  1.00  0.00     0.251 C
HETATM    3  N1  UNL     1      16.926   8.237   8.408  1.00  0.00    -0.346 N
ATOM      4  H1  UNL     1      16.425   7.514   8.924  1.00  0.00     0.163 HD
HETATM    5  O1  UNL     1      17.456  10.437   8.149  1.00  0.00    -0.271 OA
BRANCH   3   6
HETATM    6  C5  UNL     1      17.750   7.844   7.227  1.00  0.00     0.174 C
BRANCH   6   7
HETATM    7  C4  UNL     1      16.913   6.870   6.507  1.00  0.00     0.038 C
BRANCH   7   8
HETATM    8  C2  UNL     1      17.087   5.420   6.662  1.00  0.00    -0.020 C
HETATM    9  C1  UNL     1      17.121   4.568   5.450  1.00  0.00     0.009 C
HETATM   10  C3  UNL     1      16.088   4.831   7.682  1.00  0.00     0.009 C
ENDBRANCH   7   8
ENDBRANCH   6   7
BRANCH   6  11
HETATM   11  C19 UNL     1      19.091   7.497   7.643  1.00  0.00     0.254 C
HETATM   12  N4  UNL     1      20.275   7.458   6.894  1.00  0.00    -0.060 NA
HETATM   13  O3  UNL     1      19.235   7.183   8.887  1.00  0.00    -0.275 OA
ENDBRANCH   6  11
ENDBRANCH   3   6
ENDBRANCH   1   2
BRANCH   1  14
HETATM   14  N2  UNL     1      16.358  11.284  10.426  1.00  0.00    -0.065 N
ATOM     15  H23 UNL     1      17.278  11.331  10.865  1.00  0.00     0.275 HD
ATOM     16  H22 UNL     1      16.549  11.907   9.640  1.00  0.00     0.275 HD
ATOM     17  H21 UNL     1      15.615  11.631  11.032  1.00  0.00     0.275 HD
ENDBRANCH   1  14
BRANCH   1  18
HETATM   18  C8  UNL     1      16.259   9.052  11.199  1.00  0.00     0.120 C
HETATM   19  C9  UNL     1      17.699   9.092  11.642  1.00  0.00     0.035 C
BRANCH  18  20
HETATM   20  N3  UNL     1      15.391   9.412  12.314  1.00  0.00    -0.351 N
HETATM   21  C10 UNL     1      15.204   8.564  13.431  1.00  0.00     0.241 C
HETATM   22  O2  UNL     1      15.781   7.446  13.532  1.00  0.00    -0.269 OA
ATOM     23  H3  UNL     1      14.902  10.307  12.287  1.00  0.00     0.163 HD
BRANCH  21  24
HETATM   24  C11 UNL     1      14.325   8.977  14.502  1.00  0.00     0.070 C
HETATM   25  C12 UNL     1      13.869  10.200  14.608  1.00  0.00    -0.017 C
BRANCH  25  26
HETATM   26  C13 UNL     1      12.960  10.533  15.757  1.00  0.00     0.008 C
HETATM   27  C14 UNL     1      13.583   9.996  17.042  1.00  0.00     0.008 C
HETATM   28  C15 UNL     1      13.430  11.004  18.135  1.00  0.00     0.001 C
HETATM   29  C16 UNL     1      12.057  11.628  18.058  1.00  0.00     0.000 C
HETATM   30  C17 UNL     1      11.855  12.426  16.793  1.00  0.00     0.001 C
HETATM   31  C18 UNL     1      12.955  12.046  15.836  1.00  0.00     0.008 C
ENDBRANCH  25  26
ENDBRANCH  21  24
ENDBRANCH  18  20
ENDBRANCH   1  18
TORSDOF 10
ENDMDL