MODEL 2
REMARK VINA RESULT: -8.403818083      1.526      1.618
REMARK  10 active torsions:
REMARK  status: ('A' for Active; 'I' for Inactive)
REMARK    1  A    between atoms: C2_2  and  C3_3
REMARK    2  A    between atoms: C3_3  and  C4_4
REMARK    3  A    between atoms: C4_4  and  C5_5
REMARK    4  A    between atoms: C5_5  and  C6_6
REMARK    5  A    between atoms: C6_6  and  N1_7
REMARK       I    between atoms: N1_7  and  C7_9
REMARK    6  A    between atoms: C7_9  and  C8_11
REMARK    7  A    between atoms: C17_22  and  N3_23
REMARK       I    between atoms: N3_23  and  C18_25
REMARK    8  A    between atoms: C18_25  and  C19_27
REMARK    9  A    between atoms: C19_27  and  C20_28
REMARK   10  A    between atoms: C20_28  and  N4_29
ROOT
HETATM    1  C8  UNL     1      16.857   8.909  11.739  1.00  0.00     0.087 C
HETATM    2  C9  UNL     1      18.274   9.108  11.335  1.00  0.00     0.021 C
HETATM    3  C10 UNL     1      18.571   9.039   9.886  1.00  0.00     0.012 C
HETATM    4  C11 UNL     1      17.737   9.942   9.025  1.00  0.00     0.013 C
HETATM    5  C12 UNL     1      16.695   8.961   8.515  1.00  0.00     0.012 C
HETATM    6  C13 UNL     1      15.671   8.619   9.510  1.00  0.00     0.017 C
HETATM    7  C14 UNL     1      16.066   8.040  10.801  1.00  0.00     0.037 C
HETATM    8  C15 UNL     1      16.743   6.696  10.757  1.00  0.00     0.061 C
HETATM    9  N2  UNL     1      17.990   6.643  10.147  1.00  0.00    -0.395 N
ATOM     10  H2  UNL     1      18.599   5.846  10.335  1.00  0.00     0.159 HD
HETATM   11  C16 UNL     1      18.437   7.646   9.284  1.00  0.00     0.108 C
HETATM   12  C17 UNL     1      17.595   7.861   8.052  1.00  0.00     0.111 C
ENDROOT
BRANCH   1  13
HETATM   13  C7  UNL     1      16.168  10.125  12.196  1.00  0.00     0.222 C
HETATM   14  N1  UNL     1      14.867  10.095  12.737  1.00  0.00    -0.361 N
ATOM     15  H1  UNL     1      14.401   9.191  12.806  1.00  0.00     0.162 HD
HETATM   16  O1  UNL     1      16.754  11.216  12.099  1.00  0.00    -0.273 OA
BRANCH  14  17
HETATM   17  C6  UNL     1      14.156  11.251  13.198  1.00  0.00     0.122 C
BRANCH  17  18
HETATM   18  C5  UNL     1      13.342  10.992  14.472  1.00  0.00     0.020 C
BRANCH  18  19
HETATM   19  C4  UNL     1      12.606  12.204  14.894  1.00  0.00     0.002 C
BRANCH  19  20
HETATM   20  C3  UNL     1      12.188  12.342  16.308  1.00  0.00    -0.000 C
BRANCH  20  21
HETATM   21  C2  UNL     1      12.499  11.272  17.272  1.00  0.00    -0.005 C
HETATM   22  C1  UNL     1      11.674  11.198  18.517  1.00  0.00     0.005 C
ENDBRANCH  20  21
ENDBRANCH  19  20
ENDBRANCH  18  19
ENDBRANCH  17  18
ENDBRANCH  14  17
ENDBRANCH   1  13
BRANCH  12  23
HETATM   23  N3  UNL     1      16.975   6.710   7.509  1.00  0.00    -0.354 N
HETATM   24  C18 UNL     1      17.517   6.078   6.375  1.00  0.00     0.219 C
HETATM   25  O2  UNL     1      18.547   6.533   5.846  1.00  0.00    -0.274 OA
ATOM     26  H3  UNL     1      16.131   6.337   7.944  1.00  0.00     0.162 HD
BRANCH  24  27
HETATM   27  C19 UNL     1      16.875   4.883   5.811  1.00  0.00     0.130 C
BRANCH  27  28
HETATM   28  C20 UNL     1      17.845   3.954   5.137  1.00  0.00     0.238 C
BRANCH  28  29
HETATM   29  N4  UNL     1      17.859   4.099   3.706  1.00  0.00    -0.079 N
ATOM     30  H43 UNL     1      16.973   4.475   3.368  1.00  0.00     0.274 HD
ATOM     31  H42 UNL     1      18.480   4.857   3.422  1.00  0.00     0.274 HD
ATOM     32  H41 UNL     1      18.096   3.234   3.220  1.00  0.00     0.274 HD
ENDBRANCH  28  29
ENDBRANCH  27  28
ENDBRANCH  24  27
ENDBRANCH  12  23
TORSDOF 10
ENDMDL