MODEL 3
REMARK VINA RESULT: -7.807231110      1.516      1.829
REMARK  9 active torsions:
REMARK  status: ('A' for Active; 'I' for Inactive)
REMARK    1  A    between atoms: O1_2  and  C2_3
REMARK    2  A    between atoms: C2_3  and  C3_4
REMARK    3  A    between atoms: C3_4  and  C4_5
REMARK    4  A    between atoms: C4_5  and  C5_6
REMARK    5  A    between atoms: C11_12  and  C12_13
REMARK    6  A    between atoms: C12_13  and  N1_14
REMARK    7  A    between atoms: C16_21  and  C17_22
REMARK    8  A    between atoms: C17_22  and  N4_23
REMARK    9  A    between atoms: N4_23  and  C18_25
ROOT
HETATM    1  C3  UNL     1      17.470   8.616  10.542  1.00  0.00    -0.013 C
HETATM    2  C10 UNL     1      18.318   8.483   9.277  1.00  0.00     0.018 C
HETATM    3  C11 UNL     1      17.543   9.029   8.147  1.00  0.00     0.004 C
HETATM    4  C14 UNL     1      17.626  10.542   8.176  1.00  0.00     0.007 C
HETATM    5  C15 UNL     1      17.716  10.951   9.606  1.00  0.00     0.007 C
HETATM    6  C16 UNL     1      16.856   9.980  10.417  1.00  0.00     0.014 C
ENDROOT
BRANCH   1   7
HETATM    7  C2  UNL     1      18.494   8.558  11.676  1.00  0.00     0.176 C
BRANCH   7   8
HETATM    8  O1  UNL     1      17.917   8.425  12.915  1.00  0.00    -0.395 OA
HETATM    9  C1  UNL     1      18.666   7.661  13.794  1.00  0.00     0.201 C
ENDBRANCH   7   8
ENDBRANCH   1   7
BRANCH   1  10
HETATM   10  C4  UNL     1      16.461   7.580  10.759  1.00  0.00     0.017 C
BRANCH  10  11
HETATM   11  C5  UNL     1      16.859   6.123  10.703  1.00  0.00    -0.014 C
HETATM   12  C6  UNL     1      16.004   5.502  11.850  1.00  0.00     0.005 C
HETATM   13  C7  UNL     1      15.836   4.071  11.499  1.00  0.00     0.000 C
HETATM   14  C8  UNL     1      16.015   3.922  10.035  1.00  0.00     0.000 C
HETATM   15  C9  UNL     1      16.379   5.336   9.548  1.00  0.00     0.005 C
ENDBRANCH  10  11
ENDBRANCH   1  10
BRANCH   6  16
HETATM   16  C17 UNL     1      16.406  10.703  11.610  1.00  0.00     0.127 C
BRANCH  16  17
HETATM   17  N4  UNL     1      15.461  11.757  11.480  1.00  0.00    -0.369 N
ATOM     18  H4  UNL     1      15.764  12.710  11.282  1.00  0.00     0.161 HD
BRANCH  17  19
HETATM   19  C18 UNL     1      14.075  11.446  11.633  1.00  0.00     0.180 C
HETATM   20  N5  UNL     1      13.441  10.592  10.697  1.00  0.00    -0.070 NA
HETATM   21  S1  UNL     1      13.253  12.074  12.877  1.00  0.00    -0.044 SA
ENDBRANCH  17  19
ENDBRANCH  16  17
ENDBRANCH   6  16
BRANCH   3  22
HETATM   22  C12 UNL     1      18.028   8.576   6.787  1.00  0.00     0.126 C
BRANCH  22  23
HETATM   23  N1  UNL     1      18.050   7.159   6.650  1.00  0.00    -0.367 N
HETATM   24  C13 UNL     1      17.144   6.486   6.055  1.00  0.00     0.196 C
HETATM   25  N2  UNL     1      16.044   7.172   5.489  1.00  0.00    -0.067 NA
HETATM   26  N3  UNL     1      17.273   5.079   5.985  1.00  0.00    -0.067 NA
ATOM     27  H1  UNL     1      18.838   6.652   7.052  1.00  0.00     0.161 HD
ENDBRANCH  22  23
ENDBRANCH   3  22
TORSDOF 9
ENDMDL