MODEL 5
REMARK VINA RESULT: -7.091711584      3.891      7.257
REMARK  10 active torsions:
REMARK  status: ('A' for Active; 'I' for Inactive)
REMARK    1  A    between atoms: N1_3  and  C3_5
REMARK    2  A    between atoms: C3_5  and  C4_6
REMARK    3  A    between atoms: C3_5  and  C11_22
REMARK    4  A    between atoms: C4_6  and  N2_7
REMARK    5  A    between atoms: C4_6  and  C5_11
REMARK       I    between atoms: C5_11  and  N3_13
REMARK    6  A    between atoms: N3_13  and  C6_15
REMARK    7  A    between atoms: C6_15  and  C7_16
REMARK    8  A    between atoms: C6_15  and  C8_19
REMARK    9  A    between atoms: C11_22  and  C12_23
REMARK   10  A    between atoms: C11_22  and  C15_26
ROOT
HETATM    1  C1  UNL     1      14.969   6.296  13.857  1.00  0.00     0.037 C
HETATM    2  C2  UNL     1      15.449   5.685  12.921  1.00  0.00    -0.001 C
HETATM    3  N1  UNL     1      15.952   4.981  11.866  1.00  0.00    -0.317 N
ATOM      4  H1  UNL     1      15.768   3.977  11.853  1.00  0.00     0.176 HD
ENDROOT
BRANCH   3   5
HETATM    5  C3  UNL     1      16.742   5.533  10.737  1.00  0.00     0.060 C
BRANCH   5   6
HETATM    6  C4  UNL     1      16.190   5.005   9.513  1.00  0.00     0.325 C
BRANCH   6   7
HETATM    7  N2  UNL     1      15.953   3.541   9.743  1.00  0.00    -0.061 N
ATOM      8  H23 UNL     1      15.194   3.354  10.399  1.00  0.00     0.275 HD
ATOM      9  H22 UNL     1      15.544   3.069   8.936  1.00  0.00     0.275 HD
ATOM     10  H21 UNL     1      16.844   3.141  10.035  1.00  0.00     0.275 HD
ENDBRANCH   6   7
BRANCH   6  11
HETATM   11  C5  UNL     1      17.165   4.853   8.323  1.00  0.00     0.258 C
HETATM   12  O1  UNL     1      18.103   4.027   8.491  1.00  0.00    -0.270 OA
HETATM   13  N3  UNL     1      16.962   5.608   7.205  1.00  0.00    -0.324 N
ATOM     14  H3  UNL     1      16.112   6.164   7.291  1.00  0.00     0.169 HD
BRANCH  13  15
HETATM   15  C6  UNL     1      17.598   5.844   5.947  1.00  0.00     0.081 C
BRANCH  15  16
HETATM   16  C7  UNL     1      18.075   4.609   5.310  1.00  0.00     0.277 C
HETATM   17  N4  UNL     1      19.360   4.113   5.104  1.00  0.00    -0.056 NA
HETATM   18  O2  UNL     1      17.136   3.842   4.853  1.00  0.00    -0.270 OA
ENDBRANCH  15  16
BRANCH  15  19
HETATM   19  C8  UNL     1      18.564   6.983   5.827  1.00  0.00     0.033 C
HETATM   20  C9  UNL     1      17.802   8.308   5.805  1.00  0.00     0.016 C
HETATM   21  C10 UNL     1      19.377   7.142   7.147  1.00  0.00     0.016 C
ENDBRANCH  15  19
ENDBRANCH  13  15
ENDBRANCH   6  11
ENDBRANCH   5   6
BRANCH   5  22
HETATM   22  C11 UNL     1      17.216   6.897  10.982  1.00  0.00    -0.047 C
BRANCH  22  23
HETATM   23  C12 UNL     1      18.651   7.054  11.434  1.00  0.00     0.009 C
HETATM   24  C13 UNL     1      18.756   7.464  12.878  1.00  0.00     0.014 C
HETATM   25  C14 UNL     1      19.481   5.806  11.253  1.00  0.00     0.014 C
ENDBRANCH  22  23
BRANCH  22  26
HETATM   26  C15 UNL     1      16.641   8.049  10.232  1.00  0.00     0.017 C
HETATM   27  C16 UNL     1      17.773   8.994   9.749  1.00  0.00     0.009 C
HETATM   28  C17 UNL     1      17.066  10.138   9.022  1.00  0.00     0.001 C
HETATM   29  C18 UNL     1      16.379  11.029  10.037  1.00  0.00     0.000 C
HETATM   30  C19 UNL     1      15.266  10.147  10.628  1.00  0.00     0.001 C
HETATM   31  C20 UNL     1      15.901   8.955  11.247  1.00  0.00     0.009 C
ENDBRANCH  22  26
ENDBRANCH   5  22
ENDBRANCH   3   5
TORSDOF 10
ENDMDL