MODEL 5
REMARK VINA RESULT: -7.830990445      1.604      2.058
REMARK  10 active torsions:
REMARK  status: ('A' for Active; 'I' for Inactive)
REMARK    1  A    between atoms: C2_2  and  C4_4
REMARK    2  A    between atoms: C4_4  and  N1_5
REMARK    3  A    between atoms: C4_4  and  C17_29
REMARK       I    between atoms: N1_5  and  C5_7
REMARK    4  A    between atoms: C5_7  and  C6_9
REMARK    5  A    between atoms: C6_9  and  N2_10
REMARK    6  A    between atoms: C6_9  and  C11_23
REMARK       I    between atoms: N2_10  and  C7_12
REMARK    7  A    between atoms: C7_12  and  C8_14
REMARK    8  A    between atoms: C8_14  and  N3_15
REMARK    9  A    between atoms: C8_14  and  C9_19
REMARK   10  A    between atoms: C9_19  and  C10_20
ROOT
HETATM    1  C6  UNL     1      17.471   8.101  11.808  1.00  0.00     0.180 C
ENDROOT
BRANCH   1   2
HETATM    2  C5  UNL     1      17.795   7.653  10.461  1.00  0.00     0.241 C
HETATM    3  N1  UNL     1      16.932   7.049   9.511  1.00  0.00    -0.354 N
ATOM      4  H1  UNL     1      15.956   6.890   9.762  1.00  0.00     0.162 HD
HETATM    5  O1  UNL     1      19.034   7.837  10.117  1.00  0.00    -0.271 OA
BRANCH   3   6
HETATM    6  C4  UNL     1      17.396   6.648   8.183  1.00  0.00     0.091 C
BRANCH   6   7
HETATM    7  C2  UNL     1      17.075   5.194   7.923  1.00  0.00     0.001 C
HETATM    8  C1  UNL     1      18.235   4.268   7.942  1.00  0.00     0.011 C
HETATM    9  C3  UNL     1      16.083   4.745   8.975  1.00  0.00     0.011 C
ENDBRANCH   6   7
BRANCH   6  10
HETATM   10  C17 UNL     1      16.982   7.558   7.086  1.00  0.00     0.001 C
HETATM   11  C18 UNL     1      17.977   8.574   6.642  1.00  0.00     0.011 C
HETATM   12  C19 UNL     1      16.515   6.729   5.912  1.00  0.00     0.011 C
ENDBRANCH   6  10
ENDBRANCH   3   6
ENDBRANCH   1   2
BRANCH   1  13
HETATM   13  N2  UNL     1      16.297   8.943  11.823  1.00  0.00    -0.346 N
HETATM   14  C7  UNL     1      16.117  10.309  11.704  1.00  0.00     0.249 C
HETATM   15  O2  UNL     1      17.025  11.131  11.565  1.00  0.00    -0.271 OA
ATOM     16  H2  UNL     1      15.426   8.427  11.945  1.00  0.00     0.163 HD
BRANCH  14  17
HETATM   17  C8  UNL     1      14.715  10.880  11.745  1.00  0.00     0.283 C
BRANCH  17  18
HETATM   18  N3  UNL     1      14.650  12.163  11.128  1.00  0.00    -0.066 N
ATOM     19  H33 UNL     1      13.759  12.622  11.315  1.00  0.00     0.275 HD
ATOM     20  H32 UNL     1      15.272  12.829  11.588  1.00  0.00     0.275 HD
ATOM     21  H31 UNL     1      14.837  12.110  10.127  1.00  0.00     0.275 HD
ENDBRANCH  17  18
BRANCH  17  22
HETATM   22  C9  UNL     1      14.236  10.994  13.166  1.00  0.00     0.142 C
BRANCH  22  23
HETATM   23  C10 UNL     1      13.139  11.964  13.287  1.00  0.00     0.233 C
HETATM   24  N4  UNL     1      11.913  11.813  12.574  1.00  0.00    -0.062 NA
HETATM   25  O3  UNL     1      13.306  12.958  14.052  1.00  0.00    -0.277 OA
ENDBRANCH  22  23
ENDBRANCH  17  22
ENDBRANCH  14  17
ENDBRANCH   1  13
BRANCH   1  26
HETATM   26  C11 UNL     1      17.235   6.925  12.743  1.00  0.00     0.018 C
HETATM   27  C12 UNL     1      15.752   6.633  12.859  1.00  0.00     0.007 C
HETATM   28  C13 UNL     1      15.137   7.226  14.119  1.00  0.00     0.000 C
HETATM   29  C14 UNL     1      15.700   6.558  15.359  1.00  0.00     0.000 C
HETATM   30  C15 UNL     1      17.089   6.059  15.018  1.00  0.00     0.000 C
HETATM   31  C16 UNL     1      17.713   7.178  14.159  1.00  0.00     0.007 C
ENDBRANCH   1  26
TORSDOF 10
ENDMDL