MODEL 4
REMARK VINA RESULT: -10.086367237      1.791      2.264
REMARK  4 active torsions:
REMARK  status: ('A' for Active; 'I' for Inactive)
REMARK    1  A    between atoms: N1_1  and  S1_4
REMARK    2  A    between atoms: S1_4  and  C1_7
REMARK    3  A    between atoms: C4_10  and  N2_11
REMARK    4  A    between atoms: N2_11  and  C5_13
ROOT
HETATM    1  C5  UNL     1      31.873  45.032  13.192  1.00  0.00     0.119 A
HETATM    2  N3  UNL     1      30.942  45.645  12.432  1.00  0.00    -0.338 N
ATOM      3  H3  UNL     1      30.445  45.092  11.734  1.00  0.00     0.168 HD
HETATM    4  C6  UNL     1      30.636  46.950  12.551  1.00  0.00     0.182 A
HETATM    5  N4  UNL     1      31.315  47.655  13.486  1.00  0.00    -0.352 N
ATOM      6  H4  UNL     1      31.106  48.647  13.598  1.00  0.00     0.166 HD
HETATM    7  C7  UNL     1      32.255  47.102  14.275  1.00  0.00     0.048 A
HETATM    8  C8  UNL     1      32.950  47.817  15.230  1.00  0.00     0.042 A
HETATM    9  C9  UNL     1      33.916  47.243  16.038  1.00  0.00    -0.024 A
HETATM   10  C10 UNL     1      34.608  47.964  16.993  1.00  0.00     0.012 A
HETATM   11  C11 UNL     1      35.570  47.372  17.792  1.00  0.00     0.001 A
HETATM   12  C12 UNL     1      35.877  46.032  17.663  1.00  0.00     0.001 A
HETATM   13  C13 UNL     1      35.180  45.316  16.705  1.00  0.00     0.012 A
HETATM   14  C14 UNL     1      34.214  45.908  15.903  1.00  0.00    -0.025 A
HETATM   15  C15 UNL     1      33.522  45.179  14.945  1.00  0.00     0.029 A
HETATM   16  C16 UNL     1      32.558  45.761  14.142  1.00  0.00     0.036 A
ENDROOT
BRANCH   1  17
HETATM   17  N2  UNL     1      32.145  43.795  13.063  1.00  0.00    -0.342 N
ATOM     18  H2  UNL     1      31.459  43.133  13.426  1.00  0.00     0.167 HD
BRANCH  17  19
HETATM   19  C4  UNL     1      33.294  43.252  12.470  1.00  0.00     0.033 A
HETATM   20  C3  UNL     1      33.406  43.196  11.101  1.00  0.00     0.031 A
HETATM   21  C2  UNL     1      34.572  42.646  10.582  1.00  0.00     0.027 A
HETATM   22  C1  UNL     1      35.589  42.168  11.381  1.00  0.00     0.079 A
HETATM   23  C18 UNL     1      35.467  42.227  12.760  1.00  0.00     0.027 A
HETATM   24  C17 UNL     1      34.316  42.772  13.279  1.00  0.00     0.031 A
BRANCH  22  25
HETATM   25  S1  UNL     1      37.059  41.472  10.717  1.00  0.00     0.256 S
HETATM   26  O1  UNL     1      38.060  42.599  10.604  1.00  0.00    -0.201 OA
HETATM   27  O2  UNL     1      37.601  40.406  11.622  1.00  0.00    -0.201 OA
BRANCH  25  28
HETATM   28  N1  UNL     1      36.729  40.827   9.130  1.00  0.00    -0.324 N
ATOM     29  H12 UNL     1      37.343  40.935   8.324  1.00  0.00     0.169 HD
ATOM     30  H11 UNL     1      35.836  40.333   9.144  1.00  0.00     0.169 HD
ENDBRANCH  25  28
ENDBRANCH  22  25
ENDBRANCH  17  19
ENDBRANCH   1  17
TORSDOF 4
ENDMDL