MODEL 2
REMARK VINA RESULT: -10.340455598      0.929      1.029
REMARK  2 active torsions:
REMARK  status: ('A' for Active; 'I' for Inactive)
REMARK    1  A    between atoms: C7_10  and  C8_11
REMARK       I    between atoms: C8_11  and  N3_13
REMARK    2  A    between atoms: N3_13  and  C9_15
ROOT
HETATM    1  N1  UNL     1      39.082  39.684  10.965  1.00  0.00    -0.188 NA
HETATM    2  C1  UNL     1      38.108  40.288  10.800  1.00  0.00     0.137 C
HETATM    3  C2  UNL     1      36.881  41.029  10.580  1.00  0.00     0.188 A
HETATM    4  N2  UNL     1      36.228  40.820   9.416  1.00  0.00    -0.343 N
ATOM      5  H2  UNL     1      36.603  40.162   8.734  1.00  0.00     0.167 HD
HETATM    6  C3  UNL     1      35.085  41.477   9.154  1.00  0.00     0.104 A
HETATM    7  C4  UNL     1      34.582  42.373  10.091  1.00  0.00     0.006 A
HETATM    8  C5  UNL     1      33.415  43.064   9.859  1.00  0.00     0.016 A
HETATM    9  C6  UNL     1      32.924  43.950  10.793  1.00  0.00     0.018 A
HETATM   10  C7  UNL     1      33.636  44.127  11.975  1.00  0.00     0.034 A
HETATM   11  C18 UNL     1      34.804  43.432  12.202  1.00  0.00     0.047 A
HETATM   12  C19 UNL     1      35.277  42.558  11.264  1.00  0.00     0.046 A
HETATM   13  N5  UNL     1      36.412  41.887  11.493  1.00  0.00    -0.333 N
ATOM     14  H5  UNL     1      36.921  42.030  12.365  1.00  0.00     0.168 HD
ENDROOT
BRANCH  10  15
HETATM   15  C8  UNL     1      33.118  45.063  12.962  1.00  0.00     0.257 C
HETATM   16  O1  UNL     1      32.252  44.692  13.795  1.00  0.00    -0.267 OA
HETATM   17  N3  UNL     1      33.558  46.411  13.026  1.00  0.00    -0.309 N
ATOM     18  H3  UNL     1      33.359  47.014  12.228  1.00  0.00     0.170 HD
BRANCH  17  19
HETATM   19  C9  UNL     1      34.185  46.922  14.015  1.00  0.00     0.108 A
HETATM   20  C10 UNL     1      34.415  48.294  14.128  1.00  0.00     0.049 A
HETATM   21  C11 UNL     1      35.091  48.820  15.200  1.00  0.00     0.017 A
HETATM   22  C12 UNL     1      35.551  47.948  16.186  1.00  0.00    -0.009 A
HETATM   23  C13 UNL     1      36.244  48.449  17.291  1.00  0.00     0.013 A
HETATM   24  C17 UNL     1      35.299  46.604  16.027  1.00  0.00     0.043 A
HETATM   25  C14 UNL     1      36.705  47.602  18.275  1.00  0.00     0.001 A
HETATM   26  C15 UNL     1      36.454  46.255  18.118  1.00  0.00     0.002 A
HETATM   27  C16 UNL     1      35.772  45.754  17.033  1.00  0.00     0.030 A
HETATM   28  N4  UNL     1      34.636  46.106  14.974  1.00  0.00    -0.342 N
ATOM     29  H4  UNL     1      34.474  45.102  14.904  1.00  0.00     0.167 HD
ENDBRANCH  17  19
ENDBRANCH  10  15
TORSDOF 2
ENDMDL