MODEL 1
REMARK VINA RESULT: -10.256816303      0.000      0.000
REMARK  1 active torsions:
REMARK  status: ('A' for Active; 'I' for Inactive)
REMARK    1  A    between atoms: C7_8  and  C8_9
ROOT
HETATM    1  N1  UNL     1      36.519  48.385  19.013  1.00  0.00    -0.191 NA
HETATM    2  C1  UNL     1      36.110  48.102  17.954  1.00  0.00     0.102 C
HETATM    3  C2  UNL     1      35.611  47.767  16.647  1.00  0.00     0.072 A
HETATM    4  C3  UNL     1      35.635  48.690  15.631  1.00  0.00     0.025 A
HETATM    5  C4  UNL     1      35.156  48.374  14.377  1.00  0.00     0.003 A
HETATM    6  C5  UNL     1      34.659  47.102  14.195  1.00  0.00     0.015 A
HETATM    7  C6  UNL     1      34.628  46.166  15.202  1.00  0.00     0.006 A
HETATM    8  C7  UNL     1      34.187  44.865  15.317  1.00  0.00     0.017 A
HETATM    9  C16 UNL     1      34.404  44.426  16.648  1.00  0.00     0.102 A
HETATM   10  N4  UNL     1      34.963  45.444  17.295  1.00  0.00    -0.363 N
ATOM     11  H4  UNL     1      35.238  45.428  18.277  1.00  0.00     0.165 HD
HETATM   12  C17 UNL     1      35.116  46.498  16.474  1.00  0.00     0.064 A
ENDROOT
BRANCH   8  13
HETATM   13  C8  UNL     1      33.677  43.981  14.295  1.00  0.00     0.050 C
HETATM   14  N2  UNL     1      32.673  44.467  13.571  1.00  0.00    -0.282 N
HETATM   15  S1  UNL     1      31.843  43.669  12.270  1.00  0.00     0.265 S
ATOM     16  H2  UNL     1      32.357  45.409  13.803  1.00  0.00     0.178 HD
HETATM   17  O1  UNL     1      31.083  44.685  11.474  1.00  0.00    -0.200 OA
HETATM   18  O2  UNL     1      30.976  42.548  12.747  1.00  0.00    -0.200 OA
HETATM   19  C9  UNL     1      33.114  43.034  11.202  1.00  0.00     0.106 A
HETATM   20  C10 UNL     1      32.742  43.029   9.875  1.00  0.00     0.027 A
HETATM   21  C14 UNL     1      34.372  42.576  11.545  1.00  0.00     0.051 A
HETATM   22  C11 UNL     1      33.636  42.569   8.928  1.00  0.00     0.002 A
HETATM   23  C12 UNL     1      34.896  42.108   9.247  1.00  0.00     0.002 A
HETATM   24  C13 UNL     1      35.266  42.113  10.574  1.00  0.00     0.031 A
HETATM   25  N3  UNL     1      34.924  42.506  12.883  1.00  0.00    -0.383 N
HETATM   26  C15 UNL     1      34.152  42.620  14.113  1.00  0.00     0.178 C
ATOM     27  H3  UNL     1      35.930  42.366  12.970  1.00  0.00     0.160 HD
ENDBRANCH   8  13
TORSDOF 1
ENDMDL