MODEL 3
REMARK VINA RESULT: -10.163790721      1.502      2.408
REMARK  2 active torsions:
REMARK  status: ('A' for Active; 'I' for Inactive)
REMARK    1  A    between atoms: C2_3  and  N2_4
REMARK    2  A    between atoms: N2_4  and  C3_6
ROOT
HETATM    1  C3  UNL     1      32.101  44.247  13.437  1.00  0.00     0.694 A
HETATM    2  N3  UNL     1      31.145  44.682  12.719  1.00  0.00    -0.112 N
ATOM      3  H3  UNL     1      30.366  45.175  13.154  1.00  0.00     0.197 HD
HETATM    4  S1  UNL     1      31.164  44.441  11.023  1.00  0.00     0.278 S
HETATM    5  O1  UNL     1      29.933  43.724  10.543  1.00  0.00    -0.200 OA
HETATM    6  O2  UNL     1      31.245  45.774  10.311  1.00  0.00    -0.200 OA
HETATM    7  C4  UNL     1      32.616  43.575  10.614  1.00  0.00     0.107 A
HETATM    8  C5  UNL     1      32.872  43.257   9.329  1.00  0.00     0.028 A
HETATM    9  C6  UNL     1      34.008  42.574   8.968  1.00  0.00     0.002 A
HETATM   10  C7  UNL     1      34.921  42.198   9.945  1.00  0.00     0.002 A
HETATM   11  C8  UNL     1      34.636  42.533  11.236  1.00  0.00     0.031 A
HETATM   12  C9  UNL     1      33.483  43.228  11.621  1.00  0.00     0.072 A
HETATM   13  N4  UNL     1      33.234  43.552  12.967  1.00  0.00    -0.190 N
ATOM     14  H4  UNL     1      33.927  43.260  13.657  1.00  0.00     0.184 HD
ENDROOT
BRANCH   1  15
HETATM   15  N2  UNL     1      32.003  44.496  14.859  1.00  0.00    -0.176 N
ATOM     16  H2  UNL     1      31.111  44.341  15.330  1.00  0.00     0.186 HD
BRANCH  15  17
HETATM   17  C2  UNL     1      33.098  44.941  15.605  1.00  0.00     0.123 A
HETATM   18  N1  UNL     1      33.542  46.193  15.528  1.00  0.00    -0.336 N
HETATM   19  C1  UNL     1      32.979  47.192  14.687  1.00  0.00     0.158 C
HETATM   20  C17 UNL     1      34.621  46.602  16.285  1.00  0.00     0.045 A
HETATM   21  C12 UNL     1      35.269  45.744  17.137  1.00  0.00    -0.009 A
HETATM   22  C16 UNL     1      35.097  47.892  16.225  1.00  0.00     0.030 A
HETATM   23  C11 UNL     1      34.828  44.456  17.230  1.00  0.00     0.017 A
HETATM   24  C13 UNL     1      36.355  46.140  17.909  1.00  0.00     0.014 A
HETATM   25  C10 UNL     1      33.746  44.069  16.461  1.00  0.00     0.050 A
HETATM   26  C14 UNL     1      36.811  47.418  17.834  1.00  0.00     0.001 A
HETATM   27  C15 UNL     1      36.189  48.297  16.998  1.00  0.00     0.002 A
ENDBRANCH  15  17
ENDBRANCH   1  15
TORSDOF 2
ENDMDL