MODEL 1
REMARK VINA RESULT: -10.392720330      0.000      0.000
REMARK  1 active torsions:
REMARK  status: ('A' for Active; 'I' for Inactive)
REMARK    1  A    between atoms: C5_8  and  N2_9
ROOT
HETATM    1  O1  UNL     1      33.265  41.647   8.628  1.00  0.00    -0.266 OA
HETATM    2  C1  UNL     1      33.776  42.243   9.608  1.00  0.00     0.273 A
HETATM    3  N1  UNL     1      33.048  43.145  10.275  1.00  0.00    -0.321 N
ATOM      4  H1  UNL     1      32.091  43.330   9.975  1.00  0.00     0.169 HD
HETATM    5  C2  UNL     1      33.551  43.822  11.345  1.00  0.00     0.046 A
HETATM    6  C3  UNL     1      32.738  44.743  11.989  1.00  0.00     0.033 A
HETATM    7  C4  UNL     1      33.207  45.444  13.068  1.00  0.00     0.034 A
HETATM    8  C5  UNL     1      34.487  45.230  13.512  1.00  0.00     0.061 A
HETATM    9  C13 UNL     1      35.339  44.315  12.897  1.00  0.00     0.046 A
HETATM   10  C14 UNL     1      34.841  43.625  11.815  1.00  0.00     0.006 A
HETATM   11  C15 UNL     1      35.614  42.692  11.135  1.00  0.00     0.009 A
HETATM   12  C16 UNL     1      36.891  42.441  11.532  1.00  0.00     0.016 A
HETATM   13  C17 UNL     1      37.622  41.497  10.818  1.00  0.00     0.018 A
HETATM   14  C18 UNL     1      37.055  40.841   9.738  1.00  0.00     0.088 A
HETATM   15  N4  UNL     1      35.798  41.109   9.371  1.00  0.00    -0.361 N
ATOM     16  H4  UNL     1      35.392  40.619   8.573  1.00  0.00     0.165 HD
HETATM   17  C19 UNL     1      35.054  42.021  10.041  1.00  0.00     0.112 A
ENDROOT
BRANCH   8  18
HETATM   18  N2  UNL     1      34.997  45.949  14.635  1.00  0.00    -0.220 N
HETATM   19  N3  UNL     1      35.869  46.938  14.637  1.00  0.00    -0.290 N
HETATM   20  C6  UNL     1      36.122  47.378  15.872  1.00  0.00     0.064 A
ATOM     21  H3  UNL     1      36.299  47.322  13.795  1.00  0.00     0.187 HD
HETATM   22  C7  UNL     1      36.928  48.359  16.426  1.00  0.00     0.032 A
HETATM   23  C11 UNL     1      35.358  46.619  16.735  1.00  0.00     0.062 A
HETATM   24  C8  UNL     1      36.974  48.581  17.785  1.00  0.00     0.002 A
HETATM   25  C9  UNL     1      36.211  47.823  18.653  1.00  0.00     0.001 A
HETATM   26  C10 UNL     1      35.410  46.846  18.099  1.00  0.00     0.019 A
HETATM   27  C12 UNL     1      34.670  45.737  15.923  1.00  0.00     0.279 A
HETATM   28  O2  UNL     1      33.866  44.884  16.394  1.00  0.00    -0.265 OA
ENDBRANCH   8  18
TORSDOF 1
ENDMDL