MODEL 4
REMARK VINA RESULT: -5.096222042      5.750      8.305
REMARK  3 active torsions:
REMARK  status: ('A' for Active; 'I' for Inactive)
REMARK    1  A    between atoms: C5_8  and  C6_9
REMARK    2  A    between atoms: C7_10  and  C8_11
REMARK    3  A    between atoms: C10_13  and  C11_14
ROOT
HETATM    1  C6  UNL     1      36.898  48.150  16.934  1.00  0.00    -0.042 C
HETATM    2  C7  UNL     1      37.817  48.717  17.473  1.00  0.00    -0.042 C
ENDROOT
BRANCH   2   3
HETATM    3  C8  UNL     1      38.898  49.414  18.112  1.00  0.00     0.090 A
HETATM    4  C9  UNL     1      39.406  48.915  19.312  1.00  0.00     0.069 A
HETATM    5  C10 UNL     1      40.435  49.537  19.968  1.00  0.00     0.046 A
HETATM    6  N2  UNL     1      40.937  50.650  19.405  1.00  0.00    -0.352 N
HETATM    7  C17 UNL     1      40.482  51.164  18.258  1.00  0.00     0.181 A
ATOM      8  H2  UNL     1      41.704  51.127  19.878  1.00  0.00     0.166 HD
HETATM    9  N3  UNL     1      39.468  50.530  17.635  1.00  0.00    -0.345 N
ATOM     10  H3  UNL     1      39.118  50.918  16.759  1.00  0.00     0.167 HD
BRANCH   5  11
HETATM   11  C11 UNL     1      40.984  49.038  21.222  1.00  0.00    -0.009 A
HETATM   12  C12 UNL     1      41.498  47.770  21.367  1.00  0.00     0.013 A
HETATM   13  C13 UNL     1      42.008  47.344  22.577  1.00  0.00     0.001 A
HETATM   14  C14 UNL     1      42.010  48.175  23.652  1.00  0.00     0.000 A
HETATM   15  C15 UNL     1      41.504  49.451  23.543  1.00  0.00     0.001 A
HETATM   16  C16 UNL     1      40.995  49.884  22.343  1.00  0.00     0.013 A
ENDBRANCH   5  11
ENDBRANCH   2   3
BRANCH   1  17
HETATM   17  C5  UNL     1      35.781  47.489  16.279  1.00  0.00     0.087 A
HETATM   18  N1  UNL     1      35.434  46.230  16.584  1.00  0.00    -0.347 N
HETATM   19  C4  UNL     1      34.396  45.589  15.987  1.00  0.00     0.060 A
ATOM     20  H1  UNL     1      35.971  45.734  17.295  1.00  0.00     0.167 HD
HETATM   21  C3  UNL     1      34.093  44.299  16.347  1.00  0.00     0.037 A
HETATM   22  C20 UNL     1      33.640  46.209  15.028  1.00  0.00     0.062 A
HETATM   23  C2  UNL     1      33.037  43.661  15.734  1.00  0.00     0.077 A
HETATM   24  C1  UNL     1      32.279  44.288  14.769  1.00  0.00     0.245 A
HETATM   25  O1  UNL     1      31.304  43.695  14.205  1.00  0.00    -0.268 OA
HETATM   26  N4  UNL     1      32.621  45.547  14.459  1.00  0.00    -0.322 N
ATOM     27  H4  UNL     1      32.074  46.031  13.748  1.00  0.00     0.169 HD
HETATM   28  C19 UNL     1      33.967  47.511  14.684  1.00  0.00     0.035 A
HETATM   29  C18 UNL     1      35.029  48.129  15.313  1.00  0.00     0.041 A
ENDBRANCH   1  17
TORSDOF 3
ENDMDL