MODEL 5
REMARK VINA RESULT: -9.492469701      3.083      5.642
REMARK  0 active torsions:
REMARK  status: ('A' for Active; 'I' for Inactive)
ROOT
HETATM    1  N1  UNL     1      36.760  45.522  16.244  1.00  0.00    -0.062 NA
HETATM    2  C1  UNL     1      35.844  45.906  15.237  1.00  0.00     0.202 C
HETATM    3  N2  UNL     1      35.425  47.129  15.359  1.00  0.00    -0.252 N
ATOM      4  H2  UNL     1      35.809  47.644  16.152  1.00  0.00     0.181 HD
HETATM    5  S1  UNL     1      34.301  48.021  14.364  1.00  0.00     0.281 S
HETATM    6  O1  UNL     1      34.945  48.409  13.078  1.00  0.00    -0.199 OA
HETATM    7  O2  UNL     1      33.895  49.221  15.148  1.00  0.00    -0.199 OA
HETATM    8  C2  UNL     1      32.959  46.910  14.077  1.00  0.00     0.163 A
HETATM    9  N3  UNL     1      31.666  47.128  14.171  1.00  0.00    -0.344 N
ATOM     10  H3  UNL     1      31.249  48.041  14.352  1.00  0.00     0.167 HD
HETATM   11  C3  UNL     1      30.955  45.977  13.996  1.00  0.00     0.044 A
HETATM   12  C4  UNL     1      29.609  45.681  14.029  1.00  0.00     0.030 A
HETATM   13  C5  UNL     1      29.216  44.375  13.845  1.00  0.00     0.002 A
HETATM   14  C6  UNL     1      30.158  43.371  13.632  1.00  0.00     0.001 A
HETATM   15  C7  UNL     1      31.501  43.652  13.595  1.00  0.00     0.014 A
HETATM   16  C8  UNL     1      31.891  44.952  13.772  1.00  0.00     0.006 A
HETATM   17  C9  UNL     1      33.111  45.539  13.817  1.00  0.00     0.044 A
HETATM   18  C10 UNL     1      34.336  44.837  13.563  1.00  0.00     0.059 C
HETATM   19  C11 UNL     1      34.411  43.858  12.553  1.00  0.00    -0.008 A
HETATM   20  C12 UNL     1      35.345  42.853  12.615  1.00  0.00     0.014 A
HETATM   21  C13 UNL     1      35.584  41.975  11.587  1.00  0.00     0.001 A
HETATM   22  C14 UNL     1      34.859  42.089  10.416  1.00  0.00     0.000 A
HETATM   23  C15 UNL     1      33.908  43.080  10.300  1.00  0.00     0.001 A
HETATM   24  C16 UNL     1      33.701  43.953  11.378  1.00  0.00     0.014 A
HETATM   25  N4  UNL     1      35.474  45.031  14.202  1.00  0.00    -0.328 N
ATOM     26  H4  UNL     1      36.232  44.429  13.883  1.00  0.00     0.168 HD
ENDROOT
TORSDOF 0
ENDMDL