MODEL 5
REMARK VINA RESULT: -1.463538477      3.978     10.980
REMARK  5 active torsions:
REMARK  status: ('A' for Active; 'I' for Inactive)
REMARK    1  A    between atoms: O1_2  and  C2_3
REMARK    2  A    between atoms: C5_6  and  C6_7
REMARK    3  A    between atoms: C7_8  and  C8_9
REMARK    4  A    between atoms: C9_10  and  C10_11
REMARK    5  A    between atoms: C13_14  and  N1_15
ROOT
HETATM    1  C2  UNL     1      34.452  43.515  11.885  1.00  0.00     0.069 A
HETATM    2  C3  UNL     1      35.787  43.351  12.252  1.00  0.00     0.038 A
HETATM    3  C4  UNL     1      36.333  44.222  13.169  1.00  0.00     0.025 A
HETATM    4  C5  UNL     1      35.599  45.236  13.724  1.00  0.00     0.039 A
HETATM    5  C19 UNL     1      34.290  45.419  13.383  1.00  0.00     0.066 A
HETATM    6  C20 UNL     1      33.534  46.477  13.964  1.00  0.00     0.101 C
HETATM    7  N4  UNL     1      32.928  47.328  14.446  1.00  0.00    -0.191 NA
HETATM    8  C21 UNL     1      33.731  44.542  12.455  1.00  0.00     0.061 A
ENDROOT
BRANCH   4   9
HETATM    9  C6  UNL     1      36.189  46.146  14.690  1.00  0.00    -0.051 C
HETATM   10  C7  UNL     1      36.696  46.892  15.490  1.00  0.00    -0.009 C
BRANCH  10  11
HETATM   11  C8  UNL     1      37.318  47.760  16.433  1.00  0.00    -0.008 C
HETATM   12  C9  UNL     1      37.861  48.499  17.221  1.00  0.00    -0.035 C
BRANCH  12  13
HETATM   13  C10 UNL     1      38.506  49.395  18.140  1.00  0.00     0.088 A
HETATM   14  C11 UNL     1      39.526  48.912  18.954  1.00  0.00     0.055 A
HETATM   15  C12 UNL     1      40.196  49.702  19.862  1.00  0.00     0.021 A
HETATM   16  C13 UNL     1      41.204  49.215  20.662  1.00  0.00     0.040 A
HETATM   17  C17 UNL     1      39.799  51.039  19.933  1.00  0.00     0.060 A
HETATM   18  C14 UNL     1      41.815  50.114  21.550  1.00  0.00     0.054 A
HETATM   19  C15 UNL     1      41.387  51.405  21.576  1.00  0.00     0.007 A
HETATM   20  C16 UNL     1      42.009  52.398  22.506  1.00  0.00     0.068 C
HETATM   21  N2  UNL     1      40.403  51.860  20.787  1.00  0.00    -0.358 N
ATOM     22  H2  UNL     1      40.116  52.838  20.842  1.00  0.00     0.166 HD
HETATM   23  C18 UNL     1      38.789  51.519  19.128  1.00  0.00     0.119 A
HETATM   24  N3  UNL     1      38.175  50.693  18.261  1.00  0.00    -0.357 N
ATOM     25  H3  UNL     1      37.429  51.065  17.674  1.00  0.00     0.166 HD
BRANCH  16  26
HETATM   26  N1  UNL     1      41.596  47.997  20.626  1.00  0.00    -0.398 N
ATOM     27  H12 UNL     1      40.995  47.286  20.209  1.00  0.00     0.156 HD
ATOM     28  H11 UNL     1      42.495  47.691  20.999  1.00  0.00     0.156 HD
ENDBRANCH  16  26
ENDBRANCH  12  13
ENDBRANCH  10  11
ENDBRANCH   4   9
BRANCH   1  29
HETATM   29  O1  UNL     1      33.950  42.625  10.968  1.00  0.00    -0.356 OA
HETATM   30  C1  UNL     1      34.588  42.232   9.783  1.00  0.00     0.210 C
ENDBRANCH   1  29
TORSDOF 5
ENDMDL