MODEL 5
REMARK VINA RESULT: -9.339905092      1.605      5.810
REMARK  1 active torsions:
REMARK  status: ('A' for Active; 'I' for Inactive)
REMARK    1  A    between atoms: C13_23  and  C14_24
ROOT
HETATM    1  N1  UNL     1      29.989  43.556  10.674  1.00  0.00    -0.191 NA
HETATM    2  C1  UNL     1      31.026  43.749  11.149  1.00  0.00     0.102 C
HETATM    3  C2  UNL     1      32.330  43.978  11.720  1.00  0.00     0.085 C
HETATM    4  C3  UNL     1      33.343  43.255  11.091  1.00  0.00     0.070 A
HETATM    5  N2  UNL     1      33.000  42.541   9.999  1.00  0.00    -0.321 N
ATOM      6  H2  UNL     1      32.059  42.496   9.609  1.00  0.00     0.169 HD
HETATM    7  C4  UNL     1      34.061  41.901   9.500  1.00  0.00     0.257 A
HETATM    8  O1  UNL     1      34.009  41.166   8.484  1.00  0.00    -0.267 OA
HETATM    9  C5  UNL     1      35.201  42.162  10.255  1.00  0.00     0.047 A
HETATM   10  C6  UNL     1      36.493  41.731  10.120  1.00  0.00     0.018 A
HETATM   11  C7  UNL     1      37.405  42.191  11.063  1.00  0.00     0.003 A
HETATM   12  C8  UNL     1      37.029  43.039  12.083  1.00  0.00     0.030 A
HETATM   13  C9  UNL     1      35.709  43.453  12.186  1.00  0.00     0.047 A
HETATM   14  N3  UNL     1      35.658  44.266  13.274  1.00  0.00    -0.340 N
ATOM     15  H3  UNL     1      36.566  44.381  13.724  1.00  0.00     0.167 HD
HETATM   16  C10 UNL     1      34.677  44.954  13.894  1.00  0.00     0.135 A
HETATM   17  N4  UNL     1      35.045  45.598  15.019  1.00  0.00    -0.337 N
ATOM     18  H4  UNL     1      35.983  45.600  15.420  1.00  0.00     0.168 HD
HETATM   19  C11 UNL     1      33.976  46.236  15.526  1.00  0.00     0.182 A
HETATM   20  N5  UNL     1      32.918  46.005  14.731  1.00  0.00    -0.349 N
ATOM     21  H5  UNL     1      31.972  46.362  14.868  1.00  0.00     0.167 HD
HETATM   22  C12 UNL     1      33.331  45.218  13.723  1.00  0.00     0.090 A
HETATM   23  C13 UNL     1      32.379  44.857  12.774  1.00  0.00     0.028 C
HETATM   24  C20 UNL     1      34.773  43.012  11.260  1.00  0.00     0.035 A
ENDROOT
BRANCH  23  25
HETATM   25  C14 UNL     1      31.113  45.567  12.900  1.00  0.00    -0.022 A
HETATM   26  C15 UNL     1      30.867  46.742  12.214  1.00  0.00     0.012 A
HETATM   27  C16 UNL     1      29.657  47.431  12.334  1.00  0.00     0.001 A
HETATM   28  C17 UNL     1      28.686  46.912  13.167  1.00  0.00     0.000 A
HETATM   29  C18 UNL     1      28.909  45.743  13.858  1.00  0.00     0.001 A
HETATM   30  C19 UNL     1      30.107  45.081  13.726  1.00  0.00     0.012 A
ENDBRANCH  23  25
TORSDOF 1
ENDMDL