MODEL 5
REMARK VINA RESULT: -6.047897956      2.074      3.466
REMARK  2 active torsions:
REMARK  status: ('A' for Active; 'I' for Inactive)
REMARK    1  A    between atoms: N1_2  and  C2_4
REMARK    2  A    between atoms: C14_23  and  C15_24
ROOT
HETATM    1  C2  UNL     1      32.621  43.570  14.434  1.00  0.00     0.114 A
HETATM    2  N2  UNL     1      33.054  42.408  13.927  1.00  0.00    -0.327 N
ATOM      3  H2  UNL     1      32.576  41.513  14.036  1.00  0.00     0.169 HD
HETATM    4  C3  UNL     1      34.217  42.583  13.248  1.00  0.00     0.124 A
HETATM    5  N3  UNL     1      34.923  41.633  12.620  1.00  0.00    -0.340 N
ATOM      6  H3  UNL     1      34.543  40.687  12.657  1.00  0.00     0.167 HD
HETATM    7  C4  UNL     1      36.084  41.789  11.942  1.00  0.00     0.061 A
HETATM    8  C5  UNL     1      36.467  40.568  11.386  1.00  0.00     0.038 A
HETATM    9  C6  UNL     1      37.617  40.464  10.644  1.00  0.00    -0.059 A
HETATM   10  C7  UNL     1      38.036  39.174  10.043  1.00  0.00     0.048 C
HETATM   11  C8  UNL     1      38.391  41.588  10.455  1.00  0.00     0.015 A
HETATM   12  C9  UNL     1      38.028  42.806  10.998  1.00  0.00    -0.032 A
HETATM   13  C10 UNL     1      38.863  44.011  10.794  1.00  0.00     0.050 C
HETATM   14  C11 UNL     1      36.862  42.909  11.750  1.00  0.00     0.068 A
HETATM   15  N4  UNL     1      36.681  44.179  12.202  1.00  0.00    -0.320 N
ATOM     16  H4  UNL     1      37.454  44.828  12.055  1.00  0.00     0.169 HD
HETATM   17  C12 UNL     1      35.591  44.675  12.825  1.00  0.00     0.261 C
HETATM   18  O1  UNL     1      35.571  45.953  12.925  1.00  0.00    -0.267 OA
HETATM   19  C13 UNL     1      34.509  44.019  13.365  1.00  0.00     0.091 A
HETATM   20  C14 UNL     1      33.516  44.585  14.093  1.00  0.00     0.037 A
ENDROOT
BRANCH  20  21
HETATM   21  C15 UNL     1      33.376  45.970  14.471  1.00  0.00    -0.018 A
HETATM   22  C16 UNL     1      33.992  46.423  15.631  1.00  0.00     0.029 A
HETATM   23  C17 UNL     1      33.842  47.774  15.958  1.00  0.00     0.088 A
HETATM   24  N5  UNL     1      33.121  48.614  15.173  1.00  0.00    -0.375 N
HETATM   25  C18 UNL     1      32.528  48.165  14.053  1.00  0.00     0.088 A
ATOM     26  H5  UNL     1      33.027  49.594  15.436  1.00  0.00     0.164 HD
HETATM   27  C19 UNL     1      32.654  46.820  13.691  1.00  0.00     0.029 A
ENDBRANCH  20  21
BRANCH   1  28
HETATM   28  N1  UNL     1      31.552  43.742  15.123  1.00  0.00    -0.380 N
HETATM   29  C1  UNL     1      30.250  43.994  14.555  1.00  0.00     0.147 C
ATOM     30  H1  UNL     1      31.627  43.697  16.140  1.00  0.00     0.160 HD
ENDBRANCH   1  28
TORSDOF 2
ENDMDL