MODEL 3
REMARK VINA RESULT: -6.767737869      2.787      6.822
REMARK  1 active torsions:
REMARK  status: ('A' for Active; 'I' for Inactive)
REMARK    1  A    between atoms: C8_8  and  C9_9
ROOT
HETATM    1  C1  UNL     1      39.323  40.350  31.666  1.00  0.00     0.015 C
HETATM    2  C2  UNL     1      39.379  38.838  31.807  1.00  0.00    -0.043 C
HETATM    3  C3  UNL     1      40.316  38.468  32.951  1.00  0.00     0.015 C
HETATM    4  C4  UNL     1      37.989  38.340  32.061  1.00  0.00     0.013 C
HETATM    5  C5  UNL     1      37.982  36.824  32.180  1.00  0.00     0.040 C
HETATM    6  C6  UNL     1      38.256  36.359  30.748  1.00  0.00    -0.044 A
HETATM    7  C7  UNL     1      37.682  35.313  30.133  1.00  0.00     0.025 A
HETATM    8  C8  UNL     1      38.057  35.055  28.843  1.00  0.00     0.019 A
HETATM    9  S1  UNL     1      39.196  36.279  28.528  1.00  0.00    -0.096 SA
HETATM   10  C13 UNL     1      39.168  37.083  30.038  1.00  0.00    -0.010 A
HETATM   11  C14 UNL     1      39.911  38.277  30.546  1.00  0.00     0.055 C
ENDROOT
BRANCH   8  12
HETATM   12  C9  UNL     1      37.606  33.981  27.906  1.00  0.00     0.300 A
HETATM   13  C10 UNL     1      38.123  34.161  26.500  1.00  0.00     0.289 A
HETATM   14  C11 UNL     1      37.307  33.526  25.407  1.00  0.00     0.272 C
HETATM   15  N2  UNL     1      38.604  33.099  27.342  1.00  0.00     0.134 N
HETATM   16  N1  UNL     1      37.615  32.114  25.492  1.00  0.00    -0.046 N
HETATM   17  C12 UNL     1      38.082  31.859  26.823  1.00  0.00     0.504 C
ATOM     18  H12 UNL     1      36.832  31.518  25.223  1.00  0.00     0.279 HD
ATOM     19  H11 UNL     1      38.270  31.805  24.773  1.00  0.00     0.279 HD
ENDBRANCH   8  12
TORSDOF 1
ENDMDL