MODEL 5
REMARK VINA RESULT: -5.734378242      5.460      7.747
REMARK  3 active torsions:
REMARK  status: ('A' for Active; 'I' for Inactive)
REMARK    1  A    between atoms: C7_15  and  N5_16
REMARK    2  A    between atoms: N5_16  and  C8_18
REMARK    3  A    between atoms: C8_18  and  C11_21
ROOT
HETATM    1  C1  UNL     1      36.874  35.782  32.750  1.00  0.00     0.072 C
HETATM    2  C2  UNL     1      37.247  36.524  33.976  1.00  0.00     0.050 C
HETATM    3  N1  UNL     1      36.809  36.083  35.128  1.00  0.00    -0.341 N
ATOM      4  H1  UNL     1      36.232  35.242  35.079  1.00  0.00     0.167 HD
HETATM    5  C3  UNL     1      37.016  36.596  36.436  1.00  0.00     0.131 A
HETATM    6  N2  UNL     1      36.298  36.373  37.541  1.00  0.00    -0.337 N
ATOM      7  H2  UNL     1      35.472  35.776  37.586  1.00  0.00     0.168 HD
HETATM    8  C4  UNL     1      36.814  37.044  38.587  1.00  0.00     0.182 A
HETATM    9  N3  UNL     1      37.896  37.717  38.135  1.00  0.00    -0.351 N
ATOM     10  H3  UNL     1      38.503  38.319  38.690  1.00  0.00     0.166 HD
HETATM   11  C5  UNL     1      38.034  37.449  36.802  1.00  0.00     0.072 A
HETATM   12  C6  UNL     1      39.127  38.035  36.005  1.00  0.00     0.182 C
HETATM   13  N4  UNL     1      38.827  38.254  34.630  1.00  0.00    -0.369 N
ATOM     14  H4  UNL     1      39.330  39.059  34.258  1.00  0.00     0.161 HD
HETATM   15  C7  UNL     1      38.090  37.702  33.742  1.00  0.00     0.120 C
ENDROOT
BRANCH  15  16
HETATM   16  N5  UNL     1      38.092  38.265  32.430  1.00  0.00    -0.366 N
ATOM     17  H5  UNL     1      37.209  38.233  31.920  1.00  0.00     0.162 HD
BRANCH  16  18
HETATM   18  C8  UNL     1      39.188  38.863  31.759  1.00  0.00     0.031 C
HETATM   19  C9  UNL     1      40.425  38.722  32.663  1.00  0.00     0.039 C
HETATM   20  C10 UNL     1      38.967  40.355  31.618  1.00  0.00     0.039 C
BRANCH  18  21
HETATM   21  C11 UNL     1      39.545  38.239  30.433  1.00  0.00    -0.027 C
HETATM   22  C12 UNL     1      39.198  39.209  29.291  1.00  0.00     0.017 C
HETATM   23  C13 UNL     1      38.809  36.974  30.119  1.00  0.00     0.017 C
HETATM   24  C14 UNL     1      41.021  37.967  30.313  1.00  0.00     0.017 C
ENDBRANCH  18  21
ENDBRANCH  16  18
ENDBRANCH  15  16
TORSDOF 3
ENDMDL