MODEL 2
REMARK VINA RESULT: -5.595898980      4.126      6.372
REMARK  2 active torsions:
REMARK  status: ('A' for Active; 'I' for Inactive)
REMARK    1  A    between atoms: C6_6  and  C7_7
REMARK    2  A    between atoms: C8_10  and  N2_11
ROOT
HETATM    1  C1  UNL     1      38.400  37.771  32.917  1.00  0.00     0.045 C
HETATM    2  C2  UNL     1      39.214  38.362  31.756  1.00  0.00     0.055 C
HETATM    3  C3  UNL     1      40.463  38.959  32.421  1.00  0.00     0.045 C
HETATM    4  C4  UNL     1      38.430  39.497  31.203  1.00  0.00     0.038 C
HETATM    5  C5  UNL     1      39.234  39.997  29.995  1.00  0.00     0.017 C
HETATM    6  C6  UNL     1      39.160  38.810  29.026  1.00  0.00     0.079 C
HETATM    7  C9  UNL     1      39.662  37.552  29.608  1.00  0.00     0.064 C
HETATM    8  C10 UNL     1      38.869  36.393  28.971  1.00  0.00     0.046 C
HETATM    9  C11 UNL     1      41.117  37.248  29.228  1.00  0.00     0.046 C
HETATM   10  O1  UNL     1      39.580  37.384  30.940  1.00  0.00    -0.370 OA
ENDROOT
BRANCH   6  11
HETATM   11  C7  UNL     1      39.832  39.227  27.774  1.00  0.00     0.091 A
HETATM   12  N1  UNL     1      39.670  38.872  26.517  1.00  0.00    -0.187 N
HETATM   13  C8  UNL     1      40.416  39.410  25.586  1.00  0.00     0.682 A
ATOM     14  H1  UNL     1      38.965  38.178  26.269  1.00  0.00     0.184 HD
HETATM   15  N3  UNL     1      41.325  40.317  25.973  1.00  0.00    -0.159 N
HETATM   16  S1  UNL     1      41.085  40.368  27.640  1.00  0.00     0.016 SA
ATOM     17  H3  UNL     1      41.990  40.840  25.405  1.00  0.00     0.193 HD
BRANCH  13  18
HETATM   18  N2  UNL     1      40.268  39.062  24.306  1.00  0.00    -0.234 N
ATOM     19  H22 UNL     1      39.687  39.602  23.664  1.00  0.00     0.174 HD
ATOM     20  H21 UNL     1      40.738  38.238  23.931  1.00  0.00     0.174 HD
ENDBRANCH  13  18
ENDBRANCH   6  11
TORSDOF 2
ENDMDL