MODEL 5
REMARK VINA RESULT: -5.540159727      2.689      5.024
REMARK  4 active torsions:
REMARK  status: ('A' for Active; 'I' for Inactive)
REMARK    1  A    between atoms: C2_2  and  O1_5
REMARK    2  A    between atoms: O1_5  and  C5_6
REMARK    3  A    between atoms: N1_7  and  N2_9
REMARK    4  A    between atoms: C6_10  and  C7_11
ROOT
HETATM    1  N2  UNL     1      38.624  35.176  27.612  1.00  0.00    -0.213 N
HETATM    2  C6  UNL     1      38.034  33.983  27.318  1.00  0.00     0.128 A
HETATM    3  N3  UNL     1      37.414  33.502  28.440  1.00  0.00    -0.284 N
ATOM      4  H3  UNL     1      36.893  32.628  28.504  1.00  0.00     0.188 HD
HETATM    5  N4  UNL     1      37.599  34.333  29.397  1.00  0.00    -0.273 N
ATOM      6  H4  UNL     1      37.253  34.238  30.351  1.00  0.00     0.189 HD
HETATM    7  C11 UNL     1      38.340  35.367  28.912  1.00  0.00     0.213 A
HETATM    8  S1  UNL     1      38.788  36.628  29.861  1.00  0.00    -0.037 SA
ENDROOT
BRANCH   1   9
HETATM    9  N1  UNL     1      39.288  36.018  26.839  1.00  0.00    -0.280 N
HETATM   10  C5  UNL     1      40.253  36.718  26.628  1.00  0.00     0.243 C
ATOM     11  H1  UNL     1      38.698  36.134  26.016  1.00  0.00     0.189 HD
BRANCH  10  12
HETATM   12  O1  UNL     1      40.271  37.409  25.409  1.00  0.00    -0.335 OA
BRANCH  12  13
HETATM   13  C2  UNL     1      40.691  38.607  25.015  1.00  0.00     0.057 C
HETATM   14  C1  UNL     1      42.222  38.606  25.397  1.00  0.00     0.045 C
HETATM   15  C3  UNL     1      40.691  38.967  23.555  1.00  0.00     0.045 C
HETATM   16  C4  UNL     1      40.198  39.731  25.900  1.00  0.00     0.045 C
ENDBRANCH  12  13
ENDBRANCH  10  12
ENDBRANCH   1   9
BRANCH   2  17
HETATM   17  C7  UNL     1      38.077  33.314  25.997  1.00  0.00     0.011 C
HETATM   18  C8  UNL     1      37.809  31.834  26.096  1.00  0.00     0.023 C
HETATM   19  C9  UNL     1      39.276  33.677  25.157  1.00  0.00     0.023 C
HETATM   20  C10 UNL     1      36.876  33.874  25.217  1.00  0.00     0.023 C
ENDBRANCH   2  17
TORSDOF 4
ENDMDL