MODEL 5
REMARK VINA RESULT: -6.344555026      3.101      4.624
REMARK  2 active torsions:
REMARK  status: ('A' for Active; 'I' for Inactive)
REMARK    1  A    between atoms: C8_12  and  N3_13
REMARK    2  A    between atoms: N3_13  and  C9_15
ROOT
HETATM    1  N1  UNL     1      38.350  41.049  30.969  1.00  0.00    -0.101 NA
HETATM    2  C1  UNL     1      38.776  39.803  30.356  1.00  0.00     0.060 A
HETATM    3  C2  UNL     1      38.905  38.692  31.142  1.00  0.00     0.077 A
HETATM    4  S1  UNL     1      39.412  37.500  30.032  1.00  0.00    -0.096 SA
HETATM    5  C3  UNL     1      39.445  38.451  28.600  1.00  0.00     0.056 A
HETATM    6  C4  UNL     1      39.052  39.684  29.051  1.00  0.00    -0.013 A
HETATM    7  C5  UNL     1      38.930  40.866  28.100  1.00  0.00     0.043 C
HETATM    8  C6  UNL     1      40.189  40.880  27.280  1.00  0.00     0.024 C
HETATM    9  C7  UNL     1      40.012  40.112  25.974  1.00  0.00     0.121 C
HETATM   10  N2  UNL     1      40.047  38.675  26.187  1.00  0.00    -0.375 N
ATOM     11  H2  UNL     1      40.291  38.127  25.362  1.00  0.00     0.161 HD
HETATM   12  C8  UNL     1      39.819  37.979  27.249  1.00  0.00     0.115 C
ENDROOT
BRANCH  12  13
HETATM   13  N3  UNL     1      39.923  36.555  27.192  1.00  0.00    -0.371 N
ATOM     14  H3  UNL     1      40.822  36.133  27.424  1.00  0.00     0.161 HD
BRANCH  13  15
HETATM   15  C9  UNL     1      38.855  35.687  26.833  1.00  0.00     0.083 C
HETATM   16  C10 UNL     1      38.775  34.465  27.762  1.00  0.00     0.025 C
HETATM   17  C11 UNL     1      37.551  33.687  27.294  1.00  0.00     0.002 C
HETATM   18  C12 UNL     1      37.869  33.019  25.965  1.00  0.00     0.000 C
HETATM   19  C13 UNL     1      39.031  33.731  25.276  1.00  0.00     0.002 C
HETATM   20  C14 UNL     1      38.864  35.244  25.398  1.00  0.00     0.025 C
ENDBRANCH  13  15
ENDBRANCH  12  13
TORSDOF 2
ENDMDL