MODEL 3
REMARK VINA RESULT: -5.396739452      1.341      1.510
REMARK  3 active torsions:
REMARK  status: ('A' for Active; 'I' for Inactive)
REMARK    1  A    between atoms: C3_5  and  O1_6
REMARK    2  A    between atoms: O1_6  and  O2_7
REMARK    3  A    between atoms: C4_9  and  C5_10
ROOT
HETATM    1  C1  UNL     1      43.208  37.887  29.878  1.00  0.00     0.062 C
HETATM    2  C2  UNL     1      41.745  38.142  30.162  1.00  0.00    -0.019 C
HETATM    3  N1  UNL     1      40.937  38.167  29.185  1.00  0.00    -0.362 N
ATOM      4  H1  UNL     1      41.254  38.021  28.226  1.00  0.00     0.162 HD
HETATM    5  C3  UNL     1      39.516  38.416  29.502  1.00  0.00     0.181 C
HETATM    6  C4  UNL     1      39.085  37.104  30.123  1.00  0.00     0.075 C
HETATM    7  C8  UNL     1      38.308  37.271  31.389  1.00  0.00     0.012 C
HETATM    8  C9  UNL     1      39.036  38.158  32.362  1.00  0.00     0.006 C
HETATM    9  C10 UNL     1      40.080  39.036  31.773  1.00  0.00     0.003 C
HETATM   10  C11 UNL     1      41.413  38.362  31.591  1.00  0.00     0.057 C
HETATM   11  C12 UNL     1      39.569  39.577  30.430  1.00  0.00     0.010 C
HETATM   12  C13 UNL     1      40.605  40.571  29.943  1.00  0.00     0.020 C
HETATM   13  C14 UNL     1      38.332  40.362  30.676  1.00  0.00     0.020 C
ENDROOT
BRANCH   6  14
HETATM   14  C5  UNL     1      38.485  36.204  29.111  1.00  0.00     0.196 C
HETATM   15  C6  UNL     1      37.898  34.909  29.617  1.00  0.00     0.061 C
HETATM   16  C7  UNL     1      38.503  34.294  28.368  1.00  0.00     0.235 C
HETATM   17  N2  UNL     1      39.478  35.365  28.403  1.00  0.00    -0.070 N
ATOM     18  H22 UNL     1      39.916  35.695  27.542  1.00  0.00     0.277 HD
ATOM     19  H21 UNL     1      40.404  35.211  28.801  1.00  0.00     0.277 HD
ENDBRANCH   6  14
BRANCH   5  20
HETATM   20  O1  UNL     1      38.979  38.678  28.277  1.00  0.00    -0.209 OA
BRANCH  20  21
HETATM   21  O2  UNL     1      39.623  38.428  27.217  1.00  0.00    -0.248 OA
ATOM     22  H2  UNL     1      39.174  38.316  26.387  1.00  0.00     0.253 HD
ENDBRANCH  20  21
ENDBRANCH   5  20
TORSDOF 3
ENDMDL