MODEL 4
REMARK VINA RESULT: -6.260623793      2.393      3.583
REMARK  2 active torsions:
REMARK  status: ('A' for Active; 'I' for Inactive)
REMARK    1  A    between atoms: C4_11  and  N4_12
REMARK    2  A    between atoms: N4_12  and  C5_14
ROOT
HETATM    1  C1  UNL     1      40.443  37.957  25.893  1.00  0.00     0.178 C
HETATM    2  N1  UNL     1      40.005  37.835  27.286  1.00  0.00    -0.162 N
HETATM    3  C2  UNL     1      40.454  38.696  28.214  1.00  0.00     0.194 A
HETATM    4  S1  UNL     1      41.492  39.883  27.786  1.00  0.00    -0.040 SA
HETATM    5  N2  UNL     1      40.060  38.595  29.505  1.00  0.00    -0.309 N
ATOM      6  H2  UNL     1      40.407  39.253  30.202  1.00  0.00     0.170 HD
HETATM    7  C3  UNL     1      39.206  37.619  29.860  1.00  0.00     0.192 A
HETATM    8  S2  UNL     1      38.720  37.491  31.435  1.00  0.00    -0.040 SA
HETATM    9  N3  UNL     1      38.762  36.762  28.928  1.00  0.00    -0.166 N
ATOM     10  H3  UNL     1      38.116  36.021  29.197  1.00  0.00     0.186 HD
HETATM   11  C4  UNL     1      39.151  36.861  27.658  1.00  0.00     0.684 A
ENDROOT
BRANCH  11  12
HETATM   12  N4  UNL     1      38.760  36.071  26.720  1.00  0.00    -0.221 N
ATOM     13  H4  UNL     1      38.355  36.502  25.889  1.00  0.00     0.178 HD
BRANCH  12  14
HETATM   14  C5  UNL     1      38.844  34.644  26.740  1.00  0.00     0.099 C
HETATM   15  C6  UNL     1      37.637  33.986  27.392  1.00  0.00     0.026 C
HETATM   16  C7  UNL     1      38.007  32.512  27.484  1.00  0.00     0.002 C
HETATM   17  C8  UNL     1      37.995  31.981  26.087  1.00  0.00     0.000 C
HETATM   18  C9  UNL     1      38.807  32.718  25.108  1.00  0.00     0.002 C
HETATM   19  C10 UNL     1      39.087  34.138  25.354  1.00  0.00     0.026 C
ENDBRANCH  12  14
ENDBRANCH  11  12
TORSDOF 2
ENDMDL