MODEL 3
REMARK VINA RESULT: -5.702169321      1.426      1.714
REMARK  1 active torsions:
REMARK  status: ('A' for Active; 'I' for Inactive)
REMARK    1  A    between atoms: C3_7  and  N3_8
ROOT
HETATM    1  N3  UNL     1      40.022  38.760  30.575  1.00  0.00    -0.302 N
HETATM    2  C4  UNL     1      41.434  38.657  30.725  1.00  0.00     0.142 C
HETATM    3  N4  UNL     1      42.198  37.689  30.405  1.00  0.00    -0.380 N
ATOM      4  H41 UNL     1      43.209  37.616  30.512  1.00  0.00     0.158 HD
ATOM      5  H42 UNL     1      41.915  36.809  29.976  1.00  0.00     0.158 HD
HETATM    6  S1  UNL     1      41.940  40.228  31.489  1.00  0.00    -0.092 SA
HETATM    7  C5  UNL     1      40.235  40.936  31.553  1.00  0.00     0.114 C
HETATM    8  C6  UNL     1      39.677  40.132  30.366  1.00  0.00     0.050 C
HETATM    9  C7  UNL     1      40.365  40.727  29.139  1.00  0.00     0.032 C
HETATM   10  C8  UNL     1      39.507  41.917  28.850  1.00  0.00     0.002 C
HETATM   11  C9  UNL     1      38.107  41.419  29.133  1.00  0.00     0.002 C
HETATM   12  C10 UNL     1      38.232  40.407  30.248  1.00  0.00     0.032 C
ENDROOT
BRANCH   1  13
HETATM   13  C3  UNL     1      39.126  37.628  30.630  1.00  0.00     0.133 A
HETATM   14  N2  UNL     1      38.791  36.753  29.673  1.00  0.00    -0.285 N
HETATM   15  N1  UNL     1      37.935  35.860  30.132  1.00  0.00    -0.303 N
ATOM     16  H2  UNL     1      39.151  36.774  28.719  1.00  0.00     0.188 HD
HETATM   17  C2  UNL     1      37.695  36.148  31.421  1.00  0.00     0.031 A
ATOM     18  H1  UNL     1      37.528  35.089  29.601  1.00  0.00     0.186 HD
HETATM   19  C1  UNL     1      36.778  35.374  32.300  1.00  0.00     0.070 C
HETATM   20  C11 UNL     1      38.435  37.261  31.757  1.00  0.00     0.007 A
HETATM   21  C12 UNL     1      38.495  37.947  33.069  1.00  0.00     0.054 C
ENDBRANCH   1  13
TORSDOF 1
ENDMDL