MODEL 4
REMARK VINA RESULT: -5.937156217      2.495      4.868
REMARK  4 active torsions:
REMARK  status: ('A' for Active; 'I' for Inactive)
REMARK    1  A    between atoms: N1_4  and  N2_6
REMARK    2  A    between atoms: C13_19  and  N4_20
REMARK    3  A    between atoms: N4_20  and  N5_22
REMARK    4  A    between atoms: N5_22  and  N6_23
ROOT
HETATM    1  C1  UNL     1      40.064  35.577  28.822  1.00  0.00     0.021 C
HETATM    2  C2  UNL     1      40.028  36.877  28.893  1.00  0.00    -0.037 C
HETATM    3  C3  UNL     1      39.535  37.905  27.987  1.00  0.00     0.042 C
HETATM    4  N1  UNL     1      39.141  37.709  26.805  1.00  0.00    -0.310 N
ATOM      5  H1  UNL     1      38.832  38.556  26.327  1.00  0.00     0.186 HD
HETATM    6  C4  UNL     1      39.619  39.181  28.780  1.00  0.00     0.033 C
HETATM    7  C5  UNL     1      40.997  38.889  29.415  1.00  0.00     0.029 C
HETATM    8  C6  UNL     1      40.570  37.610  30.105  1.00  0.00     0.039 C
HETATM    9  C7  UNL     1      39.364  38.017  30.889  1.00  0.00     0.106 C
HETATM   10  C8  UNL     1      38.470  36.859  30.962  1.00  0.00     0.065 C
HETATM   11  N3  UNL     1      37.741  35.938  31.036  1.00  0.00    -0.197 NA
HETATM   12  C9  UNL     1      38.752  39.103  29.992  1.00  0.00     0.020 C
HETATM   13  C10 UNL     1      38.789  40.370  30.766  1.00  0.00     0.007 C
HETATM   14  C11 UNL     1      38.322  41.496  29.887  1.00  0.00     0.002 C
HETATM   15  C12 UNL     1      39.111  41.652  28.627  1.00  0.00     0.029 C
HETATM   16  C13 UNL     1      39.581  40.400  27.985  1.00  0.00     0.129 C
ENDROOT
BRANCH  16  17
HETATM   17  N4  UNL     1      38.804  40.262  26.738  1.00  0.00    -0.247 N
ATOM     18  H4  UNL     1      37.897  39.794  26.734  1.00  0.00     0.197 HD
BRANCH  17  19
HETATM   19  N5  UNL     1      39.281  40.725  25.705  1.00  0.00    -0.248 NA
BRANCH  19  20
HETATM   20  N6  UNL     1      39.707  41.136  24.629  1.00  0.00    -0.261 N
ATOM     21  H62 UNL     1      39.509  40.151  24.457  1.00  0.00     0.193 HD
ATOM     22  H61 UNL     1      40.068  41.541  23.765  1.00  0.00     0.193 HD
ENDBRANCH  19  20
ENDBRANCH  17  19
ENDBRANCH  16  17
BRANCH   4  23
HETATM   23  N2  UNL     1      39.050  36.587  26.047  1.00  0.00    -0.345 N
ATOM     24  H22 UNL     1      38.211  36.045  26.249  1.00  0.00     0.176 HD
ATOM     25  H21 UNL     1      39.656  36.195  25.326  1.00  0.00     0.176 HD
ENDBRANCH   4  23
TORSDOF 4
ENDMDL