MODEL 1
REMARK VINA RESULT: -6.005225450      0.000      0.000
REMARK  6 active torsions:
REMARK  status: ('A' for Active; 'I' for Inactive)
REMARK    1  A    between atoms: O1_2  and  C2_3
REMARK    2  A    between atoms: C9_11  and  O2_12
REMARK    3  A    between atoms: C11_15  and  C12_16
REMARK    4  A    between atoms: C12_16  and  O3_17
REMARK    5  A    between atoms: C15_21  and  O4_23
REMARK    6  A    between atoms: C18_26  and  O5_27
ROOT
HETATM    1  C2  UNL     1      39.686  37.430  29.458  1.00  0.00     0.133 C
HETATM    2  C3  UNL     1      38.617  36.327  29.791  1.00  0.00     0.070 C
HETATM    3  C4  UNL     1      38.878  35.166  28.904  1.00  0.00     0.177 C
HETATM    4  F1  UNL     1      37.603  34.653  28.565  1.00  0.00    -0.249 F
HETATM    5  C5  UNL     1      39.377  35.977  27.771  1.00  0.00     0.031 C
HETATM    6  C6  UNL     1      39.700  35.329  26.509  1.00  0.00     0.009 C
HETATM    7  C7  UNL     1      39.815  36.537  25.577  1.00  0.00     0.009 C
HETATM    8  C8  UNL     1      40.000  37.855  26.287  1.00  0.00     0.031 C
HETATM    9  C9  UNL     1      40.175  38.873  25.228  1.00  0.00     0.073 A
HETATM   10  C10 UNL     1      40.364  38.461  23.810  1.00  0.00     0.054 A
HETATM   11  C11 UNL     1      41.476  39.035  24.627  1.00  0.00     0.016 A
HETATM   12  C13 UNL     1      42.501  38.326  25.353  1.00  0.00     0.023 C
HETATM   13  C14 UNL     1      42.256  37.410  26.514  1.00  0.00     0.030 C
HETATM   14  C15 UNL     1      43.656  37.356  27.144  1.00  0.00     0.061 C
HETATM   15  C16 UNL     1      44.743  37.464  26.052  1.00  0.00     0.046 C
HETATM   16  C17 UNL     1      43.867  38.408  28.141  1.00  0.00     0.069 C
HETATM   17  C18 UNL     1      42.799  39.415  28.339  1.00  0.00     0.121 C
HETATM   18  C19 UNL     1      41.432  39.138  27.884  1.00  0.00     0.043 C
HETATM   19  C20 UNL     1      41.119  37.750  27.367  1.00  0.00    -0.015 C
HETATM   20  C21 UNL     1      40.503  36.848  28.336  1.00  0.00    -0.003 C
HETATM   21  C22 UNL     1      41.374  35.881  29.100  1.00  0.00     0.019 C
ENDROOT
BRANCH  11  22
HETATM   22  C12 UNL     1      41.897  40.422  24.075  1.00  0.00     0.176 C
BRANCH  22  23
HETATM   23  O3  UNL     1      42.068  41.340  25.058  1.00  0.00    -0.400 OA
ATOM     24  H3  UNL     1      42.106  40.944  25.921  1.00  0.00     0.209 HD
ENDBRANCH  22  23
ENDBRANCH  11  22
BRANCH   9  25
HETATM   25  O2  UNL     1      39.435  40.088  25.314  1.00  0.00    -0.389 OA
ATOM     26  H2  UNL     1      39.028  40.433  24.528  1.00  0.00     0.210 HD
ENDBRANCH   9  25
BRANCH  14  27
HETATM   27  O4  UNL     1      43.998  36.041  27.550  1.00  0.00    -0.390 OA
ATOM     28  H4  UNL     1      44.577  35.620  26.926  1.00  0.00     0.210 HD
ENDBRANCH  14  27
BRANCH  17  29
HETATM   29  O5  UNL     1      42.878  39.870  29.674  1.00  0.00    -0.395 OA
ATOM     30  H5  UNL     1      42.876  39.108  30.240  1.00  0.00     0.210 HD
ENDBRANCH  17  29
BRANCH   1  31
HETATM   31  O1  UNL     1      40.368  37.396  30.710  1.00  0.00    -0.390 OA
HETATM   32  C1  UNL     1      40.051  38.511  31.424  1.00  0.00     0.202 C
ENDBRANCH   1  31
TORSDOF 6
ENDMDL