MODEL 2
REMARK VINA RESULT: -6.369897568      1.834      2.322
REMARK  4 active torsions:
REMARK  status: ('A' for Active; 'I' for Inactive)
REMARK       I    between atoms: N1_2  and  C2_4
REMARK       I    between atoms: C2_4  and  N3_8
REMARK    1  A    between atoms: C3_9  and  C4_10
REMARK    2  A    between atoms: N4_23  and  N5_25
REMARK    3  A    between atoms: N5_25  and  C16_27
REMARK    4  A    between atoms: C16_27  and  N6_29
ROOT
HETATM    1  C1  UNL     1      39.663  40.814  36.287  1.00  0.00     0.165 C
HETATM    2  N1  UNL     1      39.043  39.864  35.449  1.00  0.00    -0.230 N
ATOM      3  H1  UNL     1      38.196  40.150  34.956  1.00  0.00     0.177 HD
HETATM    4  C2  UNL     1      39.516  38.518  35.237  1.00  0.00     0.680 C
HETATM    5  N2  UNL     1      40.611  38.167  35.678  1.00  0.00    -0.234 N
ATOM      6  H21 UNL     1      40.947  37.215  35.529  1.00  0.00     0.174 HD
ATOM      7  H22 UNL     1      41.265  38.794  36.148  1.00  0.00     0.174 HD
HETATM    8  N3  UNL     1      38.572  37.612  34.558  1.00  0.00    -0.128 N
HETATM    9  C3  UNL     1      38.449  37.487  33.255  1.00  0.00     0.052 A
HETATM   10  C14 UNL     1      37.388  36.664  32.841  1.00  0.00     0.080 A
HETATM   11  S1  UNL     1      36.682  36.141  34.281  1.00  0.00    -0.061 SA
HETATM   12  C15 UNL     1      37.733  36.976  35.400  1.00  0.00     0.186 A
HETATM   13  N4  UNL     1      37.619  36.876  36.654  1.00  0.00    -0.277 N
ATOM     14  H4  UNL     1      36.827  36.281  36.894  1.00  0.00     0.189 HD
ENDROOT
BRANCH   9  15
HETATM   15  C4  UNL     1      39.270  38.081  32.124  1.00  0.00     0.005 C
HETATM   16  C5  UNL     1      38.728  39.427  31.718  1.00  0.00     0.020 C
HETATM   17  C6  UNL     1      39.450  39.882  30.490  1.00  0.00    -0.013 C
HETATM   18  C7  UNL     1      39.243  38.990  29.286  1.00  0.00     0.009 C
HETATM   19  C11 UNL     1      40.955  39.946  30.699  1.00  0.00     0.009 C
HETATM   20  C8  UNL     1      39.756  37.615  29.667  1.00  0.00    -0.013 C
HETATM   21  C9  UNL     1      41.218  37.597  29.945  1.00  0.00     0.009 C
HETATM   22  C13 UNL     1      39.014  37.184  30.894  1.00  0.00     0.020 C
HETATM   23  C10 UNL     1      41.456  38.571  31.052  1.00  0.00    -0.013 C
HETATM   24  C12 UNL     1      40.723  38.138  32.337  1.00  0.00     0.020 C
ENDBRANCH   9  15
BRANCH  13  25
HETATM   25  N5  UNL     1      38.224  37.315  37.758  1.00  0.00    -0.274 N
ATOM     26  H5  UNL     1      39.227  37.500  37.748  1.00  0.00     0.189 HD
BRANCH  25  27
HETATM   27  C16 UNL     1      37.458  37.533  38.978  1.00  0.00     0.186 C
HETATM   28  S2  UNL     1      35.891  37.107  39.043  1.00  0.00    -0.040 SA
BRANCH  27  29
HETATM   29  N6  UNL     1      38.068  38.118  40.098  1.00  0.00    -0.370 N
HETATM   30  C17 UNL     1      39.123  39.112  39.995  1.00  0.00     0.148 C
ATOM     31  H6  UNL     1      37.757  37.833  41.027  1.00  0.00     0.161 HD
ENDBRANCH  27  29
ENDBRANCH  25  27
ENDBRANCH  13  25
TORSDOF 4
ENDMDL