MODEL 2
REMARK VINA RESULT: -5.540528384      7.747      8.925
REMARK  7 active torsions:
REMARK  status: ('A' for Active; 'I' for Inactive)
REMARK    1  A    between atoms: C2_2  and  O1_4
REMARK    2  A    between atoms: O1_4  and  C4_5
REMARK    3  A    between atoms: C8_9  and  O2_10
REMARK    4  A    between atoms: C15_18  and  O3_19
REMARK    5  A    between atoms: C16_21  and  O4_22
REMARK    6  A    between atoms: C17_24  and  O5_25
REMARK    7  A    between atoms: C17_24  and  C18_27
ROOT
HETATM    1  C4  UNL     1      45.784  35.855  34.502  1.00  0.00     0.069 C
HETATM    2  C5  UNL     1      46.025  37.368  34.402  1.00  0.00     0.047 C
HETATM    3  C6  UNL     1      44.608  35.417  33.698  1.00  0.00     0.042 C
HETATM    4  C7  UNL     1      44.760  34.259  32.781  1.00  0.00     0.045 C
HETATM    5  C8  UNL     1      45.861  33.311  33.052  1.00  0.00     0.103 C
HETATM    6  C9  UNL     1      46.620  33.597  34.321  1.00  0.00     0.026 C
HETATM    7  C10 UNL     1      46.084  33.081  35.560  1.00  0.00     0.022 C
HETATM    8  C11 UNL     1      47.028  35.077  34.315  1.00  0.00     0.045 C
HETATM    9  C12 UNL     1      47.946  35.208  33.216  1.00  0.00    -0.004 C
HETATM   10  C13 UNL     1      47.733  36.182  32.110  1.00  0.00     0.018 C
HETATM   11  C14 UNL     1      49.369  35.586  33.697  1.00  0.00     0.018 C
HETATM   12  C15 UNL     1      48.140  33.767  32.698  1.00  0.00     0.126 C
HETATM   13  C16 UNL     1      48.018  33.028  34.034  1.00  0.00     0.168 C
HETATM   14  C17 UNL     1      46.929  33.214  32.019  1.00  0.00     0.132 C
ENDROOT
BRANCH   1  15
HETATM   15  O1  UNL     1      45.436  35.658  35.865  1.00  0.00    -0.346 OA
BRANCH  15  16
HETATM   16  C2  UNL     1      44.410  36.120  36.594  1.00  0.00     0.034 C
HETATM   17  C1  UNL     1      43.131  35.956  36.446  1.00  0.00     0.045 C
HETATM   18  C3  UNL     1      44.825  36.968  37.778  1.00  0.00     0.075 C
ENDBRANCH  15  16
ENDBRANCH   1  15
BRANCH   5  19
HETATM   19  O2  UNL     1      45.351  32.005  33.247  1.00  0.00    -0.386 OA
ATOM     20  H2  UNL     1      44.691  32.005  33.930  1.00  0.00     0.210 HD
ENDBRANCH   5  19
BRANCH  13  21
HETATM   21  O4  UNL     1      48.070  31.686  33.987  1.00  0.00    -0.392 OA
ATOM     22  H4  UNL     1      48.794  31.340  33.480  1.00  0.00     0.210 HD
ENDBRANCH  13  21
BRANCH  12  23
HETATM   23  O3  UNL     1      49.322  33.578  32.071  1.00  0.00    -0.383 OA
ATOM     24  H3  UNL     1      49.325  33.889  31.173  1.00  0.00     0.210 HD
ENDBRANCH  12  23
BRANCH  14  25
HETATM   25  O5  UNL     1      47.272  31.841  31.788  1.00  0.00    -0.383 OA
ATOM     26  H5  UNL     1      48.196  31.763  31.586  1.00  0.00     0.210 HD
ENDBRANCH  14  25
BRANCH  14  27
HETATM   27  C18 UNL     1      46.609  33.647  30.659  1.00  0.00     0.129 C
HETATM   28 BR1  UNL     1      47.175  32.221  29.441  1.00  0.00    -0.093 Br
ENDBRANCH  14  27
TORSDOF 7
ENDMDL