MODEL 1
REMARK VINA RESULT: -8.005573430      0.000      0.000
REMARK  4 active torsions:
REMARK  status: ('A' for Active; 'I' for Inactive)
REMARK    1  A    between atoms: C7_7  and  O1_8
REMARK    2  A    between atoms: C16_18  and  C17_19
REMARK       I    between atoms: C17_19  and  N1_21
REMARK    3  A    between atoms: N1_21  and  C18_23
REMARK    4  A    between atoms: C19_30  and  O3_32
ROOT
HETATM    1  C1  UNL     1      46.509  37.207  37.647  1.00  0.00     0.015 C
HETATM    2  C2  UNL     1      46.630  35.678  37.613  1.00  0.00    -0.041 C
HETATM    3  C3  UNL     1      45.712  35.177  38.713  1.00  0.00     0.015 C
HETATM    4  C4  UNL     1      48.003  35.254  37.897  1.00  0.00     0.009 C
HETATM    5  C5  UNL     1      48.270  33.848  37.504  1.00  0.00     0.004 C
HETATM    6  C6  UNL     1      47.161  33.080  36.916  1.00  0.00     0.038 C
HETATM    7  C7  UNL     1      46.188  33.783  36.021  1.00  0.00     0.067 C
HETATM    8  C8  UNL     1      46.107  35.263  36.237  1.00  0.00     0.028 C
HETATM    9  C9  UNL     1      46.788  36.106  35.229  1.00  0.00     0.009 C
HETATM   10  C10 UNL     1      46.865  35.610  33.840  1.00  0.00     0.013 C
HETATM   11  C11 UNL     1      45.900  34.515  33.606  1.00  0.00    -0.006 C
HETATM   12  C12 UNL     1      44.524  35.085  33.844  1.00  0.00     0.019 C
HETATM   13  C13 UNL     1      46.266  33.387  34.559  1.00  0.00     0.031 C
HETATM   14  C14 UNL     1      47.558  32.759  34.186  1.00  0.00     0.009 C
HETATM   15  C15 UNL     1      48.056  32.860  32.802  1.00  0.00     0.017 C
HETATM   16  C16 UNL     1      47.103  33.260  31.744  1.00  0.00     0.113 C
HETATM   17  C19 UNL     1      45.864  33.944  32.220  1.00  0.00     0.074 C
HETATM   18  C20 UNL     1      44.645  33.013  32.135  1.00  0.00     0.047 C
ENDROOT
BRANCH  16  19
HETATM   19  C17 UNL     1      46.825  32.084  30.877  1.00  0.00     0.243 C
HETATM   20  O2  UNL     1      46.662  30.958  31.408  1.00  0.00    -0.272 OA
HETATM   21  N1  UNL     1      46.729  32.128  29.478  1.00  0.00    -0.157 N
ATOM     22  H1  UNL     1      45.832  32.424  29.092  1.00  0.00     0.187 HD
BRANCH  21  23
HETATM   23  C18 UNL     1      47.637  31.838  28.640  1.00  0.00     0.710 A
HETATM   24  N2  UNL     1      48.230  32.578  27.686  1.00  0.00    -0.117 N
HETATM   25  N3  UNL     1      49.124  31.819  27.069  1.00  0.00     0.006 NA
ATOM     26  H2  UNL     1      48.027  33.555  27.474  1.00  0.00     0.202 HD
HETATM   27  N4  UNL     1      49.122  30.610  27.599  1.00  0.00     0.006 NA
HETATM   28  N5  UNL     1      48.214  30.624  28.559  1.00  0.00    -0.117 N
ATOM     29  H5  UNL     1      47.983  29.828  29.153  1.00  0.00     0.202 HD
ENDBRANCH  21  23
ENDBRANCH  16  19
BRANCH  17  30
HETATM   30  O3  UNL     1      45.592  35.020  31.372  1.00  0.00    -0.389 OA
ATOM     31  H3  UNL     1      44.923  35.532  31.810  1.00  0.00     0.210 HD
ENDBRANCH  17  30
BRANCH   7  32
HETATM   32  O1  UNL     1      44.903  33.305  36.432  1.00  0.00    -0.389 OA
ATOM     33  H1  UNL     1      44.518  34.028  36.913  1.00  0.00     0.210 HD
ENDBRANCH   7  32
TORSDOF 4
ENDMDL