MODEL 2
REMARK VINA RESULT: -7.821209531      0.751      1.369
REMARK  6 active torsions:
REMARK  status: ('A' for Active; 'I' for Inactive)
REMARK    1  A    between atoms: C2_2  and  N1_3
REMARK       I    between atoms: N1_3  and  C3_5
REMARK       I    between atoms: C3_5  and  N2_7
REMARK    2  A    between atoms: N2_7  and  C4_9
REMARK    3  A    between atoms: C7_14  and  C8_15
REMARK    4  A    between atoms: C9_16  and  C10_17
REMARK       I    between atoms: C10_17  and  N4_19
REMARK    5  A    between atoms: N4_19  and  C11_21
REMARK    6  A    between atoms: C16_27  and  N5_28
ROOT
HETATM    1  N5  UNL     1      41.030  40.198  30.928  1.00  0.00    -0.289 N
ATOM      2  H5  UNL     1      40.634  41.123  30.762  1.00  0.00     0.178 HD
HETATM    3  C17 UNL     1      42.413  39.966  30.855  1.00  0.00     0.182 C
HETATM    4  N6  UNL     1      43.563  39.753  30.791  1.00  0.00    -0.172 NA
ENDROOT
BRANCH   1   5
HETATM    5  C16 UNL     1      40.210  39.084  31.242  1.00  0.00     0.101 A
HETATM    6  C15 UNL     1      39.825  38.145  30.321  1.00  0.00     0.163 A
HETATM    7  C7  UNL     1      39.031  37.123  30.771  1.00  0.00     0.061 A
HETATM    8  F1  UNL     1      40.204  38.225  29.050  1.00  0.00    -0.202 F
HETATM    9  C6  UNL     1      38.622  37.005  32.064  1.00  0.00     0.054 A
HETATM   10  C5  UNL     1      39.008  37.960  33.027  1.00  0.00     0.055 A
HETATM   11  N3  UNL     1      38.675  37.951  34.303  1.00  0.00    -0.335 N
HETATM   12  C18 UNL     1      39.799  38.981  32.586  1.00  0.00     0.065 A
HETATM   13  C4  UNL     1      39.126  38.933  35.079  1.00  0.00     0.153 A
ATOM     14  H3  UNL     1      38.086  37.211  34.685  1.00  0.00     0.168 HD
HETATM   15  S1  UNL     1      40.039  39.893  34.007  1.00  0.00    -0.049 SA
BRANCH   7  16
HETATM   16  C8  UNL     1      38.610  36.113  29.803  1.00  0.00    -0.053 C
HETATM   17  C9  UNL     1      38.277  35.286  28.992  1.00  0.00     0.000 C
BRANCH  17  18
HETATM   18  C10 UNL     1      37.892  34.286  28.043  1.00  0.00     0.297 C
HETATM   19  O2  UNL     1      36.954  33.512  28.392  1.00  0.00    -0.258 OA
HETATM   20  N4  UNL     1      38.509  34.147  26.776  1.00  0.00    -0.342 N
ATOM     21  H4  UNL     1      39.261  34.790  26.530  1.00  0.00     0.164 HD
BRANCH  20  22
HETATM   22  C11 UNL     1      38.126  33.142  25.814  1.00  0.00     0.023 C
HETATM   23  C12 UNL     1      39.287  32.994  24.843  1.00  0.00     0.037 C
HETATM   24  C13 UNL     1      37.939  31.816  26.522  1.00  0.00     0.037 C
HETATM   25  C14 UNL     1      36.866  33.496  25.086  1.00  0.00     0.037 C
ENDBRANCH  20  22
ENDBRANCH  17  18
ENDBRANCH   7  16
BRANCH  13  26
HETATM   26  N2  UNL     1      38.907  39.100  36.371  1.00  0.00    -0.289 N
HETATM   27  C3  UNL     1      38.540  38.033  37.189  1.00  0.00     0.322 C
HETATM   28  N1  UNL     1      37.363  38.098  37.973  1.00  0.00    -0.343 N
HETATM   29  O1  UNL     1      39.250  37.003  37.239  1.00  0.00    -0.247 OA
ATOM     30  H1  UNL     1      36.785  38.937  37.931  1.00  0.00     0.164 HD
ATOM     31  H2  UNL     1      39.007  40.030  36.778  1.00  0.00     0.172 HD
BRANCH  28  32
HETATM   32  C2  UNL     1      36.957  37.004  38.833  1.00  0.00     0.120 C
HETATM   33  C1  UNL     1      35.603  36.512  38.421  1.00  0.00     0.026 C
ENDBRANCH  28  32
ENDBRANCH  13  26
ENDBRANCH   1   5
TORSDOF 6
ENDMDL