MODEL 4
REMARK VINA RESULT: -6.209328313      4.324      8.687
REMARK  3 active torsions:
REMARK  status: ('A' for Active; 'I' for Inactive)
REMARK    1  A    between atoms: C2_2  and  C4_5
REMARK    2  A    between atoms: C4_5  and  N1_6
REMARK       I    between atoms: N1_6  and  C5_8
REMARK       I    between atoms: C5_8  and  N2_10
REMARK    3  A    between atoms: C17_27  and  N5_28
ROOT
HETATM    1  C4  UNL     1      40.506  40.075  25.921  1.00  0.00     0.180 C
HETATM    2  C14 UNL     1      41.820  40.070  26.715  1.00  0.00     0.071 C
HETATM    3  C15 UNL     1      42.761  41.152  26.319  1.00  0.00     0.065 C
HETATM    4  C16 UNL     1      43.137  40.914  24.862  1.00  0.00     0.052 A
HETATM    5  N4  UNL     1      44.304  40.901  24.305  1.00  0.00    -0.338 N
ATOM      6  H4  UNL     1      45.143  41.068  24.861  1.00  0.00     0.168 HD
HETATM    7  C17 UNL     1      44.400  40.667  22.991  1.00  0.00     0.145 A
HETATM    8  S1  UNL     1      42.756  40.459  22.542  1.00  0.00    -0.028 SA
HETATM    9  C18 UNL     1      42.035  40.685  24.078  1.00  0.00     0.139 A
HETATM   10  O2  UNL     1      40.740  40.690  24.634  1.00  0.00    -0.307 OA
ENDROOT
BRANCH   1  11
HETATM   11  C2  UNL     1      39.501  40.929  26.599  1.00  0.00     0.146 C
HETATM   12  C1  UNL     1      39.216  42.288  26.114  1.00  0.00     0.057 C
HETATM   13  C3  UNL     1      39.954  41.099  28.080  1.00  0.00     0.057 C
HETATM   14  F1  UNL     1      38.263  40.274  26.705  1.00  0.00    -0.238 F
ENDBRANCH   1  11
BRANCH   1  15
HETATM   15  N1  UNL     1      40.099  38.733  25.675  1.00  0.00    -0.308 N
HETATM   16  C5  UNL     1      40.073  37.615  26.529  1.00  0.00     0.320 C
HETATM   17  O1  UNL     1      40.494  37.770  27.723  1.00  0.00    -0.247 OA
HETATM   18  N2  UNL     1      39.604  36.335  26.117  1.00  0.00    -0.333 N
HETATM   19  C6  UNL     1      39.098  35.984  24.830  1.00  0.00     0.128 C
HETATM   20  C13 UNL     1      39.551  35.144  26.919  1.00  0.00     0.137 C
HETATM   21  C7  UNL     1      37.867  35.152  25.229  1.00  0.00     0.031 C
HETATM   22  C8  UNL     1      38.485  34.263  26.300  1.00  0.00    -0.019 C
HETATM   23  C9  UNL     1      39.094  33.048  25.625  1.00  0.00     0.039 C
HETATM   24  C12 UNL     1      37.481  33.786  27.301  1.00  0.00     0.039 C
HETATM   25  C10 UNL     1      38.134  31.881  25.747  1.00  0.00     0.233 C
HETATM   26  N3  UNL     1      37.982  31.445  27.120  1.00  0.00    -0.075 N
HETATM   27  C11 UNL     1      38.074  32.581  28.012  1.00  0.00     0.233 C
ATOM     28  H32 UNL     1      37.120  30.917  27.261  1.00  0.00     0.277 HD
ATOM     29  H31 UNL     1      38.647  30.711  27.364  1.00  0.00     0.277 HD
ATOM     30  H1  UNL     1      39.773  38.552  24.725  1.00  0.00     0.167 HD
ENDBRANCH   1  15
BRANCH   7  31
HETATM   31  N5  UNL     1      45.475  40.613  22.240  1.00  0.00    -0.380 N
ATOM     32  H52 UNL     1      46.442  40.823  22.488  1.00  0.00     0.158 HD
ATOM     33  H51 UNL     1      45.558  40.348  21.258  1.00  0.00     0.158 HD
ENDBRANCH   7  31
TORSDOF 3
ENDMDL