MODEL 1
REMARK VINA RESULT: -5.787393614      0.000      0.000
REMARK  7 active torsions:
REMARK  status: ('A' for Active; 'I' for Inactive)
REMARK    1  A    between atoms: C2_2  and  C4_4
REMARK    2  A    between atoms: C5_5  and  O1_7
REMARK    3  A    between atoms: C10_13  and  O2_14
REMARK    4  A    between atoms: C10_13  and  C11_16
REMARK    5  A    between atoms: C11_16  and  C12_18
REMARK    6  A    between atoms: C12_18  and  O4_19
REMARK    7  A    between atoms: C13_21  and  O5_22
ROOT
HETATM    1  C4  UNL     1      39.435  38.387  30.398  1.00  0.00     0.033 C
HETATM    2  C5  UNL     1      39.275  39.896  30.518  1.00  0.00     0.072 C
HETATM    3  C6  UNL     1      38.309  40.454  29.500  1.00  0.00     0.047 C
HETATM    4  C7  UNL     1      40.528  40.689  30.461  1.00  0.00     0.092 C
HETATM    5 BR1  UNL     1      40.040  42.563  30.287  1.00  0.00    -0.088 Br
HETATM    6  C8  UNL     1      41.268  40.317  29.244  1.00  0.00     0.028 C
HETATM    7  C9  UNL     1      41.477  38.841  29.106  1.00  0.00     0.040 C
HETATM    8  C10 UNL     1      41.622  38.565  27.671  1.00  0.00     0.150 C
HETATM    9  C13 UNL     1      42.187  37.187  27.400  1.00  0.00     0.161 C
HETATM   10  C14 UNL     1      42.282  36.469  28.693  1.00  0.00     0.040 C
HETATM   11  C15 UNL     1      41.036  36.564  29.577  1.00  0.00    -0.007 C
HETATM   12  C16 UNL     1      39.998  35.739  28.940  1.00  0.00     0.011 C
HETATM   13  C17 UNL     1      40.775  37.936  30.058  1.00  0.00    -0.027 C
HETATM   14  C18 UNL     1      41.567  38.036  31.394  1.00  0.00     0.016 C
ENDROOT
BRANCH   8  15
HETATM   15  O2  UNL     1      42.709  39.438  27.286  1.00  0.00    -0.379 OA
ATOM     16  H2  UNL     1      42.841  39.219  26.371  1.00  0.00     0.211 HD
ENDBRANCH   8  15
BRANCH   8  17
HETATM   17  C11 UNL     1      40.569  38.950  26.720  1.00  0.00     0.187 C
HETATM   18  O3  UNL     1      39.412  38.566  26.757  1.00  0.00    -0.292 OA
BRANCH  17  19
HETATM   19  C12 UNL     1      40.764  39.874  25.555  1.00  0.00     0.245 C
BRANCH  19  20
HETATM   20  O4  UNL     1      39.787  39.778  24.590  1.00  0.00    -0.393 OA
ATOM     21  H4  UNL     1      40.001  40.217  23.775  1.00  0.00     0.209 HD
ENDBRANCH  19  20
ENDBRANCH  17  19
ENDBRANCH   8  17
BRANCH   9  22
HETATM   22  O5  UNL     1      41.527  36.531  26.385  1.00  0.00    -0.392 OA
ATOM     23  H5  UNL     1      42.119  36.147  25.750  1.00  0.00     0.210 HD
ENDBRANCH   9  22
BRANCH   1  24
HETATM   24  C2  UNL     1      38.667  37.838  31.541  1.00  0.00    -0.015 C
HETATM   25  C1  UNL     1      37.989  36.500  31.270  1.00  0.00     0.010 C
HETATM   26  C3  UNL     1      39.157  37.884  32.925  1.00  0.00     0.010 C
ENDBRANCH   1  24
BRANCH   2  27
HETATM   27  O1  UNL     1      38.719  40.277  31.772  1.00  0.00    -0.389 OA
ATOM     28  H1  UNL     1      38.373  41.161  31.755  1.00  0.00     0.210 HD
ENDBRANCH   2  27
TORSDOF 7
ENDMDL