MODEL 5
REMARK VINA RESULT: -5.947779547      2.848      5.437
REMARK  6 active torsions:
REMARK  status: ('A' for Active; 'I' for Inactive)
REMARK    1  A    between atoms: O1_2  and  C2_3
REMARK    2  A    between atoms: C7_9  and  O2_10
REMARK    3  A    between atoms: C10_14  and  C12_16
REMARK    4  A    between atoms: C12_16  and  O3_19
REMARK    5  A    between atoms: C16_22  and  O4_23
REMARK    6  A    between atoms: C17_25  and  O5_26
ROOT
HETATM    1  C2  UNL     1      40.924  41.393  29.360  1.00  0.00     0.160 C
HETATM    2  C3  UNL     1      41.462  39.997  29.156  1.00  0.00     0.205 C
HETATM    3  F1  UNL     1      42.527  39.965  28.249  1.00  0.00    -0.246 F
HETATM    4  C4  UNL     1      40.478  38.895  28.984  1.00  0.00     0.044 C
HETATM    5  C5  UNL     1      40.309  38.504  27.562  1.00  0.00     0.001 C
HETATM    6  C6  UNL     1      39.187  37.589  27.221  1.00  0.00     0.050 C
HETATM    7  C7  UNL     1      40.179  36.443  27.160  1.00  0.00     0.059 C
HETATM    8  C8  UNL     1      40.006  35.798  28.519  1.00  0.00     0.038 C
HETATM    9  C9  UNL     1      40.803  36.427  29.548  1.00  0.00     0.016 C
HETATM   10  C10 UNL     1      40.556  37.812  30.023  1.00  0.00    -0.006 C
HETATM   11  C11 UNL     1      41.859  37.960  30.858  1.00  0.00     0.019 C
HETATM   12  C15 UNL     1      41.273  37.441  27.072  1.00  0.00     0.050 C
HETATM   13  C16 UNL     1      40.265  39.597  26.544  1.00  0.00     0.156 C
HETATM   14  C17 UNL     1      39.225  40.647  26.692  1.00  0.00     0.152 C
HETATM   15  C18 UNL     1      39.899  41.866  27.242  1.00  0.00     0.032 A
HETATM   16  C19 UNL     1      39.676  41.768  28.719  1.00  0.00     0.033 A
HETATM   17  C20 UNL     1      39.316  42.967  27.965  1.00  0.00    -0.035 A
HETATM   18  C21 UNL     1      37.849  43.252  27.677  1.00  0.00     0.016 C
HETATM   19  C22 UNL     1      40.111  44.244  28.100  1.00  0.00     0.016 C
ENDROOT
BRANCH  10  20
HETATM   20  C12 UNL     1      39.488  37.818  31.070  1.00  0.00     0.058 C
HETATM   21  C13 UNL     1      38.517  36.658  31.054  1.00  0.00     0.046 C
HETATM   22  C14 UNL     1      38.568  39.039  31.030  1.00  0.00     0.046 C
BRANCH  20  23
HETATM   23  O3  UNL     1      39.943  37.896  32.387  1.00  0.00    -0.390 OA
ATOM     24  H3  UNL     1      39.552  37.274  32.989  1.00  0.00     0.210 HD
ENDBRANCH  20  23
ENDBRANCH  10  20
BRANCH   1  25
HETATM   25  O1  UNL     1      41.986  42.275  29.140  1.00  0.00    -0.387 OA
HETATM   26  C1  UNL     1      42.647  42.624  30.331  1.00  0.00     0.202 C
ENDBRANCH   1  25
BRANCH  13  27
HETATM   27  O4  UNL     1      40.004  38.992  25.275  1.00  0.00    -0.392 OA
ATOM     28  H4  UNL     1      39.343  38.322  25.410  1.00  0.00     0.210 HD
ENDBRANCH  13  27
BRANCH   7  29
HETATM   29  O2  UNL     1      40.077  35.577  26.106  1.00  0.00    -0.390 OA
ATOM     30  H2  UNL     1      40.807  34.990  25.949  1.00  0.00     0.210 HD
ENDBRANCH   7  29
BRANCH  14  31
HETATM   31  O5  UNL     1      38.637  41.041  25.491  1.00  0.00    -0.393 OA
ATOM     32  H5  UNL     1      39.156  41.658  24.988  1.00  0.00     0.210 HD
ENDBRANCH  14  31
TORSDOF 6
ENDMDL