MODEL 3
REMARK VINA RESULT: -6.090288194      3.866      6.696
REMARK  6 active torsions:
REMARK  status: ('A' for Active; 'I' for Inactive)
REMARK    1  A    between atoms: C2_2  and  O1_3
REMARK    2  A    between atoms: C3_5  and  O2_6
REMARK    3  A    between atoms: C6_10  and  O3_11
REMARK    4  A    between atoms: C12_18  and  O4_19
REMARK    5  A    between atoms: N1_28  and  C19_29
REMARK    6  A    between atoms: C19_29  and  C20_30
ROOT
HETATM    1  C1  UNL     1      41.570  43.751  27.258  1.00  0.00     0.049 C
HETATM    2  C2  UNL     1      41.115  42.408  26.672  1.00  0.00     0.086 C
HETATM    3  C3  UNL     1      39.783  42.498  26.020  1.00  0.00     0.152 C
HETATM    4  C4  UNL     1      38.934  41.273  26.184  1.00  0.00     0.038 C
HETATM    5  C5  UNL     1      39.647  40.012  26.424  1.00  0.00     0.041 C
HETATM    6  C6  UNL     1      40.860  40.065  27.321  1.00  0.00     0.067 C
HETATM    7  C7  UNL     1      40.828  39.001  28.364  1.00  0.00     0.072 C
HETATM    8  C8  UNL     1      40.330  39.372  29.738  1.00  0.00     0.060 C
HETATM    9  C9  UNL     1      39.625  40.730  29.678  1.00  0.00     0.034 C
HETATM   10  C10 UNL     1      40.352  41.809  28.973  1.00  0.00     0.013 C
HETATM   11  C11 UNL     1      41.188  41.423  27.818  1.00  0.00     0.057 C
HETATM   12  C12 UNL     1      41.401  39.462  30.735  1.00  0.00     0.147 C
HETATM   13  C13 UNL     1      41.565  38.501  31.821  1.00  0.00     0.042 C
HETATM   14  C14 UNL     1      40.503  38.295  32.827  1.00  0.00     0.035 A
HETATM   15  C15 UNL     1      39.712  39.358  33.441  1.00  0.00     0.185 A
HETATM   16  F1  UNL     1      39.446  39.321  34.777  1.00  0.00    -0.248 F
HETATM   17  C16 UNL     1      39.111  38.259  32.511  1.00  0.00     0.010 A
HETATM   18  C17 UNL     1      38.184  37.345  33.337  1.00  0.00     0.020 C
HETATM   19  C18 UNL     1      38.558  38.669  31.215  1.00  0.00     0.135 C
HETATM   20  N1  UNL     1      39.333  38.400  30.038  1.00  0.00    -0.380 N
ENDROOT
BRANCH  12  21
HETATM   21  O4  UNL     1      41.520  40.755  31.303  1.00  0.00    -0.393 OA
ATOM     22  H4  UNL     1      42.358  40.897  31.728  1.00  0.00     0.210 HD
ENDBRANCH  12  21
BRANCH  20  23
HETATM   23  C19 UNL     1      39.638  37.041  29.863  1.00  0.00     0.064 C
BRANCH  23  24
HETATM   24  C20 UNL     1      38.559  36.222  29.117  1.00  0.00     0.024 A
HETATM   25  C21 UNL     1      37.846  35.164  29.992  1.00  0.00     0.010 A
HETATM   26  C22 UNL     1      38.808  34.756  28.972  1.00  0.00     0.010 A
ENDBRANCH  23  24
ENDBRANCH  20  23
BRANCH   6  27
HETATM   27  O3  UNL     1      41.954  39.707  26.476  1.00  0.00    -0.389 OA
ATOM     28  H3  UNL     1      42.624  39.390  27.069  1.00  0.00     0.210 HD
ENDBRANCH   6  27
BRANCH   2  29
HETATM   29  O1  UNL     1      42.102  42.049  25.754  1.00  0.00    -0.387 OA
ATOM     30  H1  UNL     1      42.723  41.521  26.241  1.00  0.00     0.210 HD
ENDBRANCH   2  29
BRANCH   3  31
HETATM   31  O2  UNL     1      39.005  43.583  26.414  1.00  0.00    -0.393 OA
ATOM     32  H2  UNL     1      39.446  44.424  26.387  1.00  0.00     0.210 HD
ENDBRANCH   3  31
TORSDOF 6
ENDMDL