MODEL 5
REMARK VINA RESULT: -6.364512314      1.382      2.615
REMARK  2 active torsions:
REMARK  status: ('A' for Active; 'I' for Inactive)
REMARK    1  A    between atoms: S1_2  and  O4_5
REMARK    2  A    between atoms: O4_5  and  C1_6
ROOT
HETATM    1  C1  UNL     1      -2.082  -9.731  19.507  1.00  0.00     0.285 C
HETATM    2  O5  UNL     1      -0.784 -10.204  19.307  1.00  0.00    -0.359 OA
HETATM    3  C2  UNL     1      -0.992 -11.569  19.152  1.00  0.00     0.176 C
HETATM    4  C3  UNL     1      -1.825 -11.883  20.403  1.00  0.00     0.018 C
HETATM    5  C4  UNL     1      -0.937 -12.379  21.467  1.00  0.00     0.007 C
HETATM    6  C5  UNL     1      -1.494 -12.040  22.836  1.00  0.00     0.000 C
HETATM    7  C6  UNL     1      -1.472 -10.528  22.895  1.00  0.00     0.001 C
HETATM    8  C7  UNL     1      -2.523 -10.016  21.963  1.00  0.00     0.010 C
HETATM    9  C8  UNL     1      -2.573 -10.652  20.635  1.00  0.00     0.048 C
ENDROOT
BRANCH   1  10
HETATM   10  O4  UNL     1      -2.133  -8.441  19.966  1.00  0.00    -0.224 OA
BRANCH  10  11
HETATM   11  S1  UNL     1      -3.192  -7.469  19.107  1.00  0.00     0.254 S
HETATM   12  O1  UNL     1      -3.937  -6.521  19.989  1.00  0.00    -0.572 OA
HETATM   13  O2  UNL     1      -2.372  -6.661  18.141  1.00  0.00    -0.572 OA
HETATM   14  O3  UNL     1      -4.208  -8.460  18.230  1.00  0.00    -0.572 OA
ENDBRANCH  10  11
ENDBRANCH   1  10
TORSDOF 2
ENDMDL