MODEL 2
REMARK VINA RESULT: -6.439116285      2.668      3.839
REMARK  4 active torsions:
REMARK  status: ('A' for Active; 'I' for Inactive)
REMARK    1  A    between atoms: C2_2  and  O1_3
REMARK    2  A    between atoms: O1_3  and  C3_4
REMARK    3  A    between atoms: C3_4  and  C4_6
REMARK    4  A    between atoms: C8_10  and  O3_11
ROOT
HETATM    1  C4  UNL     1      -1.605 -12.329  21.710  1.00  0.00     0.119 C
HETATM    2  C5  UNL     1      -1.436 -11.214  20.705  1.00  0.00     0.086 C
HETATM    3  C6  UNL     1      -1.980 -10.016  21.475  1.00  0.00     0.167 C
HETATM    4  C7  UNL     1      -1.876 -10.381  22.941  1.00  0.00     0.101 C
HETATM    5  C8  UNL     1      -1.083 -11.671  22.967  1.00  0.00     0.137 C
HETATM    6  O4  UNL     1      -3.316  -9.878  21.079  1.00  0.00    -0.353 OA
HETATM    7  C9  UNL     1      -3.329  -8.853  20.126  1.00  0.00     0.197 C
HETATM    8  C10 UNL     1      -2.234  -7.945  20.670  1.00  0.00     0.197 C
HETATM    9  O5  UNL     1      -1.329  -8.851  21.162  1.00  0.00    -0.353 OA
ENDROOT
BRANCH   1  10
HETATM   10  C3  UNL     1      -0.873 -13.546  21.359  1.00  0.00     0.265 C
HETATM   11  O2  UNL     1      -0.309 -13.587  20.235  1.00  0.00    -0.265 OA
BRANCH  10  12
HETATM   12  O1  UNL     1      -0.750 -14.656  22.167  1.00  0.00    -0.321 OA
BRANCH  12  13
HETATM   13  C2  UNL     1      -1.155 -15.953  21.815  1.00  0.00     0.174 C
HETATM   14  C1  UNL     1      -2.584 -16.253  22.129  1.00  0.00     0.034 C
ENDBRANCH  12  13
ENDBRANCH  10  12
ENDBRANCH   1  10
BRANCH   5  15
HETATM   15  O3  UNL     1      -1.394 -12.457  24.065  1.00  0.00    -0.395 OA
ATOM     16  H3  UNL     1      -1.561 -13.348  23.782  1.00  0.00     0.210 HD
ENDBRANCH   5  15
TORSDOF 4
ENDMDL