MODEL 3
REMARK VINA RESULT: -6.390364304      3.957      6.286
REMARK  3 active torsions:
REMARK  status: ('A' for Active; 'I' for Inactive)
REMARK    1  A    between atoms: C2_2  and  N1_3
REMARK    2  A    between atoms: C6_9  and  C7_10
REMARK    3  A    between atoms: C7_10  and  O3_11
ROOT
HETATM    1  N1  UNL     1      -5.219  -9.704  13.610  1.00  0.00    -0.343 N
HETATM    2  C3  UNL     1      -5.825  -8.790  12.746  1.00  0.00     0.270 C
HETATM    3  O1  UNL     1      -5.637  -7.458  13.094  1.00  0.00    -0.192 OA
HETATM    4  O2  UNL     1      -5.824  -7.181  14.345  1.00  0.00    -0.227 OA
HETATM    5  C4  UNL     1      -4.605  -7.179  14.989  1.00  0.00     0.194 C
HETATM    6  C5  UNL     1      -4.659  -6.501  16.359  1.00  0.00     0.072 C
HETATM    7  C6  UNL     1      -3.541  -7.290  17.056  1.00  0.00     0.148 C
HETATM    8  O4  UNL     1      -3.919  -8.590  16.733  1.00  0.00    -0.374 OA
HETATM    9  C8  UNL     1      -4.135  -8.559  15.376  1.00  0.00     0.177 C
HETATM   10  C9  UNL     1      -5.274  -9.514  14.998  1.00  0.00     0.117 C
HETATM   11  C10 UNL     1      -5.138 -10.769  15.819  1.00  0.00     0.035 C
ENDROOT
BRANCH   7  12
HETATM   12  C7  UNL     1      -3.599  -7.137  18.545  1.00  0.00     0.196 C
BRANCH  12  13
HETATM   13  O3  UNL     1      -4.604  -6.209  18.825  1.00  0.00    -0.398 OA
ATOM     14  H3  UNL     1      -5.371  -6.700  19.097  1.00  0.00     0.209 HD
ENDBRANCH  12  13
ENDBRANCH   7  12
BRANCH   1  15
HETATM   15  C2  UNL     1      -4.332 -10.658  13.089  1.00  0.00     0.061 C
HETATM   16  C1  UNL     1      -4.003 -10.514  11.638  1.00  0.00     0.055 C
ENDBRANCH   1  15
TORSDOF 3
ENDMDL