MODEL 4
REMARK VINA RESULT: -6.171935177      2.137      2.630
REMARK  5 active torsions:
REMARK  status: ('A' for Active; 'I' for Inactive)
REMARK    1  A    between atoms: N1_1  and  N2_4
REMARK    2  A    between atoms: N2_4  and  N3_5
REMARK    3  A    between atoms: N3_5  and  C1_7
REMARK    4  A    between atoms: C8_17  and  C9_18
REMARK    5  A    between atoms: C9_18  and  O4_19
ROOT
HETATM    1  C1  UNL     1      -3.478  -8.869  16.669  1.00  0.00     0.148 C
HETATM    2  C2  UNL     1      -3.724 -10.002  15.662  1.00  0.00     0.078 C
HETATM    3  C3  UNL     1      -3.956  -9.217  14.391  1.00  0.00     0.145 C
HETATM    4  C4  UNL     1      -3.006  -9.665  13.303  1.00  0.00     0.213 C
HETATM    5  O1  UNL     1      -3.619 -10.574  12.446  1.00  0.00    -0.387 OA
HETATM    6  C5  UNL     1      -4.584 -10.011  11.641  1.00  0.00     0.175 C
HETATM    7  C6  UNL     1      -5.544  -9.125  12.413  1.00  0.00     0.108 C
HETATM    8  C7  UNL     1      -5.343  -9.437  13.858  1.00  0.00     0.165 C
HETATM    9  O2  UNL     1      -6.235  -9.844  14.582  1.00  0.00    -0.294 OA
HETATM   10  O3  UNL     1      -3.846  -7.882  14.697  1.00  0.00    -0.360 OA
HETATM   11  C8  UNL     1      -4.293  -7.780  16.024  1.00  0.00     0.172 C
ENDROOT
BRANCH   1  12
HETATM   12  N3  UNL     1      -3.961  -9.243  17.963  1.00  0.00    -0.245 N
ATOM     13  H3  UNL     1      -4.820  -8.843  18.340  1.00  0.00     0.197 HD
BRANCH  12  14
HETATM   14  N2  UNL     1      -3.307 -10.062  18.607  1.00  0.00    -0.248 NA
BRANCH  14  15
HETATM   15  N1  UNL     1      -2.566 -10.803  19.276  1.00  0.00    -0.261 N
ATOM     16  H12 UNL     1      -3.251 -10.573  19.997  1.00  0.00     0.193 HD
ATOM     17  H11 UNL     1      -1.904 -11.421  19.744  1.00  0.00     0.193 HD
ENDBRANCH  14  15
ENDBRANCH  12  14
ENDBRANCH   1  12
BRANCH  11  18
HETATM   18  C9  UNL     1      -4.017  -6.418  16.601  1.00  0.00     0.198 C
BRANCH  18  19
HETATM   19  O4  UNL     1      -5.197  -5.709  16.677  1.00  0.00    -0.398 OA
ATOM     20  H4  UNL     1      -5.099  -5.006  17.309  1.00  0.00     0.209 HD
ENDBRANCH  18  19
ENDBRANCH  11  18
TORSDOF 5
ENDMDL