MODEL 4
REMARK VINA RESULT: -5.764932134      5.222      6.589
REMARK  4 active torsions:
REMARK  status: ('A' for Active; 'I' for Inactive)
REMARK    1  A    between atoms: N2_5  and  N3_7
REMARK    2  A    between atoms: N3_7  and  C4_9
REMARK    3  A    between atoms: C4_9  and  C5_11
REMARK    4  A    between atoms: N4_15  and  O1_16
ROOT
HETATM    1  C1  UNL     1      -1.808  -8.527  17.863  1.00  0.00     0.082 C
HETATM    2  C2  UNL     1      -2.983  -8.556  18.770  1.00  0.00     0.101 C
HETATM    3  C3  UNL     1      -3.824  -7.416  18.855  1.00  0.00     0.114 C
HETATM    4  N1  UNL     1      -4.503  -6.467  18.935  1.00  0.00    -0.190 NA
HETATM    5  N2  UNL     1      -3.264  -9.588  19.487  1.00  0.00    -0.294 N
ATOM      6  H2  UNL     1      -4.076  -9.587  20.103  1.00  0.00     0.187 HD
ENDROOT
BRANCH   5   7
HETATM    7  N3  UNL     1      -2.443 -10.697  19.403  1.00  0.00    -0.287 N
ATOM      8  H3  UNL     1      -2.288 -11.150  18.502  1.00  0.00     0.188 HD
BRANCH   7   9
HETATM    9  C4  UNL     1      -1.822 -11.200  20.558  1.00  0.00     0.151 C
HETATM   10  S1  UNL     1      -1.777 -10.378  21.973  1.00  0.00    -0.056 SA
BRANCH   9  11
HETATM   11  C5  UNL     1      -1.176 -12.532  20.504  1.00  0.00     0.141 A
HETATM   12  S2  UNL     1      -0.947 -13.649  21.770  1.00  0.00    -0.077 SA
HETATM   13  C6  UNL     1      -0.157 -14.871  20.884  1.00  0.00     0.071 A
HETATM   14  C7  UNL     1      -0.114 -14.332  19.621  1.00  0.00     0.131 A
HETATM   15  N4  UNL     1      -0.637 -13.145  19.452  1.00  0.00    -0.226 N
BRANCH  15  16
HETATM   16  O1  UNL     1      -0.655 -12.481  18.201  1.00  0.00    -0.282 OA
ATOM     17  H1  UNL     1       0.117 -11.997  17.934  1.00  0.00     0.245 HD
ENDBRANCH  15  16
ENDBRANCH   9  11
ENDBRANCH   7   9
ENDBRANCH   5   7
TORSDOF 4
ENDMDL