MODEL 3
REMARK VINA RESULT: -5.542545210      2.316      5.289
REMARK  2 active torsions:
REMARK  status: ('A' for Active; 'I' for Inactive)
REMARK    1  A    between atoms: N1_3  and  C3_4
REMARK    2  A    between atoms: C3_4  and  C4_5
ROOT
HETATM    1  C4  UNL     1      -1.897 -10.025  22.002  1.00  0.00     0.159 C
HETATM    2  C5  UNL     1      -1.282 -11.425  21.887  1.00  0.00     0.045 C
HETATM    3  C6  UNL     1      -1.150 -12.067  23.255  1.00  0.00     0.036 C
HETATM    4  C7  UNL     1      -1.523 -10.980  24.266  1.00  0.00     0.147 C
HETATM    5  C8  UNL     1      -2.962 -10.577  24.020  1.00  0.00     0.265 C
HETATM    6  N2  UNL     1      -3.185 -10.133  22.667  1.00  0.00    -0.061 N
ATOM      7  H21 UNL     1      -3.839 -10.731  22.160  1.00  0.00     0.278 HD
ATOM      8  H22 UNL     1      -3.723  -9.269  22.621  1.00  0.00     0.278 HD
HETATM    9  O1  UNL     1      -0.654  -9.906  24.015  1.00  0.00    -0.382 OA
HETATM   10  C9  UNL     1      -1.005  -9.205  22.878  1.00  0.00     0.208 C
ENDROOT
BRANCH   1  11
HETATM   11  C3  UNL     1      -2.023  -9.494  20.605  1.00  0.00     0.146 C
BRANCH  11  12
HETATM   12  N1  UNL     1      -3.245  -8.783  20.365  1.00  0.00    -0.230 NA
HETATM   13  C2  UNL     1      -2.891  -7.394  20.088  1.00  0.00     0.132 C
HETATM   14  C1  UNL     1      -3.935  -6.868  19.138  1.00  0.00     0.202 C
HETATM   15  O2  UNL     1      -3.927  -7.686  18.016  1.00  0.00    -0.305 OA
HETATM   16  S1  UNL     1      -3.880  -9.255  18.762  1.00  0.00     0.083 SA
ENDBRANCH  11  12
ENDBRANCH   1  11
TORSDOF 2
ENDMDL