MODEL 2
REMARK VINA RESULT: -5.797631172      1.758      1.997
REMARK  3 active torsions:
REMARK  status: ('A' for Active; 'I' for Inactive)
REMARK    1  A    between atoms: O1_2  and  C2_3
REMARK    2  A    between atoms: C6_9  and  O4_10
REMARK    3  A    between atoms: C8_12  and  N1_13
ROOT
HETATM    1  C2  UNL     1      -4.745 -10.022  12.635  1.00  0.00     0.147 C
HETATM    2  C3  UNL     1      -3.561 -10.837  13.176  1.00  0.00     0.200 C
HETATM    3  O2  UNL     1      -3.524 -10.425  14.484  1.00  0.00    -0.375 OA
HETATM    4  C4  UNL     1      -3.794  -9.073  14.532  1.00  0.00     0.087 C
HETATM    5  C5  UNL     1      -4.877  -8.831  15.581  1.00  0.00     0.209 C
HETATM    6  O3  UNL     1      -5.265  -7.508  15.440  1.00  0.00    -0.356 OA
HETATM    7  C6  UNL     1      -4.307  -6.602  15.830  1.00  0.00     0.289 C
HETATM    8  C8  UNL     1      -2.913  -7.134  15.867  1.00  0.00     0.241 C
HETATM    9  C9  UNL     1      -2.620  -8.238  14.928  1.00  0.00     0.078 C
HETATM   10  C10 UNL     1      -4.362  -8.669  13.194  1.00  0.00     0.074 C
ENDROOT
BRANCH   8  11
HETATM   11  N1  UNL     1      -2.022  -6.011  15.527  1.00  0.00    -0.070 N
ATOM     12  H13 UNL     1      -1.126  -6.311  15.143  1.00  0.00     0.274 HD
ATOM     13  H12 UNL     1      -2.337  -5.478  14.717  1.00  0.00     0.274 HD
ATOM     14  H11 UNL     1      -1.928  -5.445  16.370  1.00  0.00     0.274 HD
ENDBRANCH   8  11
BRANCH   1  15
HETATM   15  O1  UNL     1      -4.775 -10.043  11.251  1.00  0.00    -0.388 OA
HETATM   16  C1  UNL     1      -3.554 -10.567  10.826  1.00  0.00     0.202 C
ENDBRANCH   1  15
BRANCH   7  17
HETATM   17  O4  UNL     1      -4.634  -6.164  17.112  1.00  0.00    -0.364 OA
HETATM   18  C7  UNL     1      -3.824  -6.739  18.082  1.00  0.00     0.204 C
ENDBRANCH   7  17
TORSDOF 3
ENDMDL