MODEL 5
REMARK VINA RESULT: -6.060899211      3.694      6.039
REMARK  3 active torsions:
REMARK  status: ('A' for Active; 'I' for Inactive)
REMARK    1  A    between atoms: O1_1  and  C1_3
REMARK    2  A    between atoms: C3_6  and  C4_7
REMARK    3  A    between atoms: C4_7  and  N1_8
ROOT
HETATM    1  C1  UNL     1      -3.707  -6.765  18.078  1.00  0.00     0.165 C
HETATM    2  C2  UNL     1      -3.724  -8.215  18.496  1.00  0.00     0.205 C
HETATM    3  O2  UNL     1      -3.337  -9.097  17.543  1.00  0.00    -0.357 OA
HETATM    4  C3  UNL     1      -3.757  -8.840  16.239  1.00  0.00     0.287 C
HETATM    5  O3  UNL     1      -3.528  -7.567  15.800  1.00  0.00    -0.357 OA
HETATM    6  C11 UNL     1      -4.073  -6.610  16.616  1.00  0.00     0.205 C
ENDROOT
BRANCH   4   7
HETATM    7  C4  UNL     1      -2.884  -9.795  15.394  1.00  0.00     0.332 C
BRANCH   7   8
HETATM    8  N1  UNL     1      -3.802 -10.739  14.810  1.00  0.00     0.093 N
HETATM    9  C5  UNL     1      -3.541 -11.037  13.440  1.00  0.00     0.272 C
HETATM   10  C6  UNL     1      -3.541  -9.895  12.485  1.00  0.00     0.030 C
HETATM   11  C7  UNL     1      -4.918  -9.889  11.805  1.00  0.00     0.002 C
HETATM   12  C8  UNL     1      -5.867  -9.393  12.867  1.00  0.00     0.002 C
HETATM   13  C9  UNL     1      -6.090 -10.487  13.889  1.00  0.00     0.030 C
HETATM   14  C10 UNL     1      -5.179 -10.394  15.070  1.00  0.00     0.272 C
ENDBRANCH   7   8
ENDBRANCH   4   7
BRANCH   1  15
HETATM   15  O1  UNL     1      -4.665  -6.085  18.827  1.00  0.00    -0.391 OA
ATOM     16  H1  UNL     1      -5.295  -5.704  18.227  1.00  0.00     0.210 HD
ENDBRANCH   1  15
TORSDOF 3
ENDMDL