MODEL 1
REMARK VINA RESULT: -7.048393363      0.000      0.000
REMARK  4 active torsions:
REMARK  status: ('A' for Active; 'I' for Inactive)
REMARK    1  A    between atoms: C2_2  and  O2_4
REMARK    2  A    between atoms: O2_4  and  C3_5
REMARK    3  A    between atoms: C9_13  and  C10_14
REMARK    4  A    between atoms: C10_14  and  O4_15
ROOT
HETATM    1  C3  UNL     1      -2.074 -10.536  20.074  1.00  0.00     0.140 C
HETATM    2  C4  UNL     1      -1.236 -11.681  20.616  1.00  0.00     0.037 C
HETATM    3  C5  UNL     1      -1.612 -11.893  22.037  1.00  0.00     0.059 C
HETATM    4  C6  UNL     1      -1.671 -10.618  22.796  1.00  0.00     0.175 A
HETATM    5  C7  UNL     1      -1.240 -10.752  24.210  1.00  0.00     0.100 C
HETATM    6  N1  UNL     1      -0.893 -10.859  25.307  1.00  0.00    -0.194 NA
HETATM    7  O3  UNL     1      -2.815  -9.826  22.664  1.00  0.00    -0.353 OA
HETATM    8  C8  UNL     1      -1.480  -9.392  22.168  1.00  0.00     0.181 A
HETATM    9  C9  UNL     1      -1.535  -9.270  20.688  1.00  0.00     0.072 C
ENDROOT
BRANCH   9  10
HETATM   10  C10 UNL     1      -2.556  -8.170  20.368  1.00  0.00     0.174 C
BRANCH  10  11
HETATM   11  O4  UNL     1      -2.388  -7.179  21.327  1.00  0.00    -0.400 OA
ATOM     12  H4  UNL     1      -3.247  -7.005  21.692  1.00  0.00     0.209 HD
ENDBRANCH  10  11
ENDBRANCH   9  10
BRANCH   1  13
HETATM   13  O2  UNL     1      -2.115 -10.502  18.680  1.00  0.00    -0.316 OA
BRANCH  13  14
HETATM   14  C2  UNL     1      -1.029 -10.638  17.847  1.00  0.00     0.255 C
HETATM   15  C1  UNL     1       0.036  -9.608  17.706  1.00  0.00     0.126 C
HETATM   16  O1  UNL     1      -0.938 -11.693  17.172  1.00  0.00    -0.266 OA
ENDBRANCH  13  14
ENDBRANCH   1  13
TORSDOF 4
ENDMDL