MODEL 1
REMARK VINA RESULT: -6.425696256      0.000      0.000
REMARK  3 active torsions:
REMARK  status: ('A' for Active; 'I' for Inactive)
REMARK    1  A    between atoms: C2_2  and  C3_3
REMARK    2  A    between atoms: C7_8  and  O2_9
REMARK    3  A    between atoms: C9_14  and  O5_15
ROOT
HETATM    1  C3  UNL     1      -1.931 -10.888  21.245  1.00  0.00     0.176 C
HETATM    2  O1  UNL     1      -0.938 -10.356  20.405  1.00  0.00    -0.376 OA
HETATM    3  C4  UNL     1      -1.585  -9.568  19.472  1.00  0.00     0.237 C
HETATM    4  C5  UNL     1      -2.598  -8.688  20.147  1.00  0.00     0.191 C
HETATM    5  C6  UNL     1      -2.428  -7.284  19.577  1.00  0.00     0.104 C
HETATM    6  C7  UNL     1      -3.865  -6.943  19.226  1.00  0.00     0.147 C
HETATM    7  C8  UNL     1      -4.318  -8.334  18.762  1.00  0.00     0.203 C
HETATM    8  O3  UNL     1      -3.851  -9.117  19.807  1.00  0.00    -0.350 OA
HETATM    9  O4  UNL     1      -2.401  -8.574  21.517  1.00  0.00    -0.320 OA
HETATM   10  C9  UNL     1      -2.356  -9.787  22.172  1.00  0.00     0.291 C
ENDROOT
BRANCH   6  11
HETATM   11  O2  UNL     1      -3.939  -6.013  18.221  1.00  0.00    -0.393 OA
ATOM     12  H2  UNL     1      -3.931  -6.419  17.361  1.00  0.00     0.210 HD
ENDBRANCH   6  11
BRANCH  10  13
HETATM   13  O5  UNL     1      -1.382  -9.676  23.174  1.00  0.00    -0.363 OA
HETATM   14  C10 UNL     1      -0.663  -8.484  23.048  1.00  0.00     0.204 C
ENDBRANCH  10  13
BRANCH   1  15
HETATM   15  C2  UNL     1      -1.361 -12.088  21.993  1.00  0.00     0.032 C
HETATM   16  C1  UNL     1      -0.958 -13.101  20.927  1.00  0.00     0.007 C
ENDBRANCH   1  15
TORSDOF 3
ENDMDL