MODEL 1
REMARK VINA RESULT: -8.618245735      0.000      0.000
REMARK  0 active torsions:
REMARK  status: ('A' for Active; 'I' for Inactive)
ROOT
HETATM    1  N1  UNL     1     -52.403  -9.581  -5.847  1.00  0.00    -0.379 N
ATOM      2  H11 UNL     1     -51.442  -9.364  -5.583  1.00  0.00     0.158 HD
ATOM      3  H12 UNL     1     -53.335  -9.438  -5.457  1.00  0.00     0.158 HD
HETATM    4  C1  UNL     1     -52.472 -10.203  -6.975  1.00  0.00     0.149 C
HETATM    5  N2  UNL     1     -53.823 -10.508  -7.346  1.00  0.00    -0.282 N
ATOM      6  H2  UNL     1     -54.515  -9.834  -7.018  1.00  0.00     0.184 HD
HETATM    7  N3  UNL     1     -54.355 -11.574  -8.081  1.00  0.00    -0.107 NA
HETATM    8  C2  UNL     1     -54.088 -11.369  -9.484  1.00  0.00     0.235 C
HETATM    9  C3  UNL     1     -55.303 -11.817 -10.309  1.00  0.00     0.055 C
HETATM   10  C4  UNL     1     -55.582 -13.273 -10.099  1.00  0.00     0.030 C
HETATM   11  C5  UNL     1     -56.151 -13.987 -11.237  1.00  0.00    -0.030 C
HETATM   12  C6  UNL     1     -55.534 -14.443 -12.311  1.00  0.00    -0.031 C
HETATM   13  C7  UNL     1     -54.080 -14.318 -12.593  1.00  0.00     0.027 C
HETATM   14  C8  UNL     1     -53.280 -15.323 -11.796  1.00  0.00     0.004 C
HETATM   15  C9  UNL     1     -51.827 -15.005 -11.714  1.00  0.00     0.000 C
HETATM   16  C10 UNL     1     -51.463 -13.736 -11.033  1.00  0.00     0.002 C
HETATM   17  C11 UNL     1     -51.508 -13.774  -9.536  1.00  0.00     0.033 C
HETATM   18  C12 UNL     1     -52.046 -12.432  -9.076  1.00  0.00     0.133 C
HETATM   19  C13 UNL     1     -50.890 -11.455  -9.144  1.00  0.00     0.114 C
HETATM   20  S1  UNL     1     -50.847 -10.453  -7.655  1.00  0.00    -0.091 SA
HETATM   21  O1  UNL     1     -53.000 -12.030  -9.958  1.00  0.00    -0.362 OA
ENDROOT
TORSDOF 0
ENDMDL