MODEL 3
REMARK VINA RESULT: -6.814734466      2.420      2.820
REMARK  3 active torsions:
REMARK  status: ('A' for Active; 'I' for Inactive)
REMARK    1  A    between atoms: C2_2  and  O1_4
REMARK    2  A    between atoms: C2_2  and  C4_6
REMARK    3  A    between atoms: C5_7  and  C6_8
ROOT
HETATM    1  C6  UNL     1     -53.209 -12.381 -10.317  1.00  0.00     0.142 C
HETATM    2  C7  UNL     1     -52.174 -11.682 -11.163  1.00  0.00     0.063 C
HETATM    3  C8  UNL     1     -54.398 -11.542 -10.042  1.00  0.00     0.171 C
HETATM    4  N1  UNL     1     -54.391 -10.906  -8.749  1.00  0.00    -0.382 N
ATOM      5  H1  UNL     1     -55.236 -10.427  -8.440  1.00  0.00     0.160 HD
HETATM    6  C9  UNL     1     -53.241 -10.912  -7.864  1.00  0.00     0.095 A
HETATM    7  C10 UNL     1     -53.037 -10.012  -6.854  1.00  0.00     0.117 A
HETATM    8  N2  UNL     1     -53.833  -8.913  -6.432  1.00  0.00    -0.092 NA
HETATM    9  S1  UNL     1     -51.535 -10.542  -6.191  1.00  0.00    -0.059 SA
HETATM   10  C11 UNL     1     -51.237 -11.869  -7.213  1.00  0.00     0.122 A
HETATM   11  C12 UNL     1     -50.092 -12.748  -7.155  1.00  0.00     0.110 C
HETATM   12  N3  UNL     1     -49.180 -13.465  -7.126  1.00  0.00    -0.191 NA
HETATM   13  C13 UNL     1     -52.324 -11.864  -8.052  1.00  0.00     0.127 A
HETATM   14  O2  UNL     1     -52.580 -12.776  -9.113  1.00  0.00    -0.322 OA
ENDROOT
BRANCH   1  15
HETATM   15  C5  UNL     1     -53.555 -13.633 -11.030  1.00  0.00    -0.063 C
HETATM   16  C4  UNL     1     -53.819 -14.661 -11.603  1.00  0.00    -0.066 C
BRANCH  16  17
HETATM   17  C2  UNL     1     -54.118 -15.918 -12.312  1.00  0.00     0.114 C
HETATM   18  C1  UNL     1     -53.475 -15.938 -13.672  1.00  0.00     0.060 C
HETATM   19  C3  UNL     1     -55.620 -15.988 -12.451  1.00  0.00     0.060 C
BRANCH  17  20
HETATM   20  O1  UNL     1     -53.666 -17.027 -11.605  1.00  0.00    -0.378 OA
ATOM     21  H1  UNL     1     -52.761 -16.870 -11.359  1.00  0.00     0.211 HD
ENDBRANCH  17  20
ENDBRANCH  16  17
ENDBRANCH   1  15
TORSDOF 3
ENDMDL