MODEL 5
REMARK VINA RESULT: -6.287570555      1.587      2.465
REMARK  6 active torsions:
REMARK  status: ('A' for Active; 'I' for Inactive)
REMARK    1  A    between atoms: C2_2  and  S1_5
REMARK    2  A    between atoms: S1_5  and  C5_6
REMARK    3  A    between atoms: C5_6  and  N2_10
REMARK    4  A    between atoms: C6_12  and  O1_13
REMARK    5  A    between atoms: C6_12  and  N4_17
REMARK    6  A    between atoms: O1_13  and  N3_14
ROOT
HETATM    1  N2  UNL     1     -53.166 -12.097 -10.530  1.00  0.00    -0.301 N
ATOM      2  H2  UNL     1     -53.118 -12.490 -11.471  1.00  0.00     0.171 HD
HETATM    3  C6  UNL     1     -52.092 -12.050  -9.918  1.00  0.00     0.254 C
ENDROOT
BRANCH   3   4
HETATM    4  O1  UNL     1     -50.977 -12.566 -10.662  1.00  0.00    -0.207 OA
BRANCH   4   5
HETATM    5  N3  UNL     1     -51.119 -13.713 -11.397  1.00  0.00    -0.302 N
ATOM      6  H32 UNL     1     -51.314 -14.590 -10.914  1.00  0.00     0.184 HD
ATOM      7  H31 UNL     1     -51.029 -13.681 -12.412  1.00  0.00     0.184 HD
ENDBRANCH   4   5
ENDBRANCH   3   4
BRANCH   3   8
HETATM    8  N4  UNL     1     -51.752 -11.591  -8.640  1.00  0.00    -0.272 N
HETATM    9  C7  UNL     1     -51.351 -12.170  -7.434  1.00  0.00     0.230 C
HETATM   10  O2  UNL     1     -51.635 -13.185  -6.805  1.00  0.00    -0.273 OA
HETATM   11  C8  UNL     1     -50.427 -10.976  -7.289  1.00  0.00     0.134 C
HETATM   12  C9  UNL     1     -51.625 -10.302  -7.932  1.00  0.00     0.044 C
HETATM   13  C10 UNL     1     -51.297  -9.204  -8.891  1.00  0.00     0.039 C
HETATM   14  C11 UNL     1     -52.740 -10.002  -6.989  1.00  0.00     0.039 C
ENDBRANCH   3   8
BRANCH   1  15
HETATM   15  C5  UNL     1     -54.424 -11.691 -10.116  1.00  0.00     0.141 C
HETATM   16  N1  UNL     1     -54.717 -10.424  -9.937  1.00  0.00    -0.380 N
ATOM     17  H12 UNL     1     -55.643 -10.124  -9.631  1.00  0.00     0.158 HD
ATOM     18  H11 UNL     1     -54.007  -9.708 -10.090  1.00  0.00     0.158 HD
BRANCH  15  19
HETATM   19  S1  UNL     1     -55.676 -12.950  -9.846  1.00  0.00    -0.085 SA
BRANCH  19  20
HETATM   20  C2  UNL     1     -56.409 -13.423 -11.415  1.00  0.00     0.005 C
HETATM   21  C1  UNL     1     -56.571 -12.237 -12.317  1.00  0.00     0.026 C
HETATM   22  C3  UNL     1     -57.788 -13.989 -11.120  1.00  0.00     0.026 C
HETATM   23  C4  UNL     1     -55.544 -14.500 -12.023  1.00  0.00     0.026 C
ENDBRANCH  19  20
ENDBRANCH  15  19
ENDBRANCH   1  15
TORSDOF 6
ENDMDL