MODEL 2
REMARK VINA RESULT: -7.488219010      0.967      1.009
REMARK  2 active torsions:
REMARK  status: ('A' for Active; 'I' for Inactive)
REMARK    1  A    between atoms: O1_1  and  C1_3
REMARK    2  A    between atoms: C1_3  and  O2_4
ROOT
HETATM    1  C1  UNL     1     -53.979 -11.335 -11.394  1.00  0.00     0.184 C
HETATM    2  C2  UNL     1     -54.718 -12.054 -12.477  1.00  0.00     0.097 C
HETATM    3  C3  UNL     1     -56.178 -11.754 -12.487  1.00  0.00    -0.025 C
HETATM    4  C4  UNL     1     -57.086 -12.542 -11.920  1.00  0.00    -0.020 C
HETATM    5  C5  UNL     1     -56.743 -13.808 -11.212  1.00  0.00     0.100 C
HETATM    6  S1  UNL     1     -56.775 -15.233 -12.351  1.00  0.00    -0.165 SA
HETATM    7  C6  UNL     1     -55.399 -16.329 -11.829  1.00  0.00     0.075 C
HETATM    8  C7  UNL     1     -55.154 -17.421 -12.819  1.00  0.00     0.029 C
HETATM    9  C8  UNL     1     -53.687 -17.434 -13.219  1.00  0.00     0.114 C
HETATM   10  N1  UNL     1     -52.855 -18.163 -12.343  1.00  0.00    -0.421 N
ATOM     11  H1  UNL     1     -52.706 -19.166 -12.452  1.00  0.00     0.153 HD
HETATM   12  C9  UNL     1     -52.233 -17.416 -11.293  1.00  0.00     0.113 C
HETATM   13  C10 UNL     1     -51.334 -16.325 -11.745  1.00  0.00     0.021 C
HETATM   14  C11 UNL     1     -51.375 -15.192 -10.717  1.00  0.00     0.028 C
HETATM   15  C12 UNL     1     -51.390 -13.842 -11.379  1.00  0.00     0.168 C
HETATM   16  O3  UNL     1     -52.687 -13.368 -11.534  1.00  0.00    -0.386 OA
HETATM   17  C13 UNL     1     -52.942 -12.252 -10.756  1.00  0.00     0.235 C
ENDROOT
BRANCH   1  18
HETATM   18  O1  UNL     1     -53.333 -10.205 -11.933  1.00  0.00    -0.363 OA
ATOM     19  H1  UNL     1     -53.968  -9.772 -12.492  1.00  0.00     0.213 HD
ENDBRANCH   1  18
BRANCH   1  20
HETATM   20  O2  UNL     1     -54.861 -10.861 -10.416  1.00  0.00    -0.363 OA
ATOM     21  H2  UNL     1     -55.727 -11.163 -10.664  1.00  0.00     0.213 HD
ENDBRANCH   1  20
TORSDOF 2
ENDMDL