MODEL 3
REMARK VINA RESULT: -9.220291755      1.460      1.907
REMARK  2 active torsions:
REMARK  status: ('A' for Active; 'I' for Inactive)
REMARK    1  A    between atoms: O1_1  and  N1_3
REMARK    2  A    between atoms: C2_5  and  N2_6
ROOT
HETATM    1  N1  UNL     1     -50.807 -11.092  -7.450  1.00  0.00    -0.242 N
HETATM    2  C1  UNL     1     -51.638 -11.739  -8.476  1.00  0.00     0.184 C
HETATM    3  C2  UNL     1     -52.575 -10.605  -8.795  1.00  0.00     0.145 C
HETATM    4  C10 UNL     1     -52.761  -9.942  -7.516  1.00  0.00     0.010 A
HETATM    5  C11 UNL     1     -53.722  -9.111  -6.933  1.00  0.00     0.014 A
HETATM    6  C12 UNL     1     -53.570  -8.641  -5.647  1.00  0.00     0.018 A
HETATM    7  C13 UNL     1     -52.460  -8.969  -4.875  1.00  0.00     0.090 A
HETATM    8  N4  UNL     1     -51.552  -9.769  -5.459  1.00  0.00    -0.350 N
ATOM      9  H4  UNL     1     -50.723 -10.033  -4.926  1.00  0.00     0.166 HD
HETATM   10  C14 UNL     1     -51.683 -10.239  -6.715  1.00  0.00     0.135 A
ENDROOT
BRANCH   3  11
HETATM   11  N2  UNL     1     -53.761 -11.139  -9.397  1.00  0.00    -0.161 NA
HETATM   12  C3  UNL     1     -53.475 -11.424 -10.787  1.00  0.00     0.126 C
HETATM   13  C4  UNL     1     -53.809 -12.857 -11.105  1.00  0.00     0.050 C
HETATM   14  C5  UNL     1     -55.214 -13.118 -10.592  1.00  0.00     0.054 C
HETATM   15  C6  UNL     1     -55.597 -14.529 -10.987  1.00  0.00     0.033 C
HETATM   16  C9  UNL     1     -56.270 -12.314 -11.284  1.00  0.00     0.033 C
HETATM   17  N3  UNL     1     -55.179 -12.895  -9.184  1.00  0.00    -0.273 N
HETATM   18  C7  UNL     1     -55.901 -14.370 -12.460  1.00  0.00     0.002 C
HETATM   19  C8  UNL     1     -56.713 -13.116 -12.503  1.00  0.00     0.002 C
HETATM   20  O2  UNL     1     -54.144 -12.230  -8.706  1.00  0.00    -0.186 OA
ATOM     21  H3  UNL     1     -55.922 -13.235  -8.573  1.00  0.00     0.190 HD
ENDBRANCH   3  11
BRANCH   1  22
HETATM   22  O1  UNL     1     -49.504 -11.313  -7.300  1.00  0.00    -0.286 OA
ATOM     23  H1  UNL     1     -48.883 -11.342  -8.018  1.00  0.00     0.244 HD
ENDBRANCH   1  22
TORSDOF 2
ENDMDL