MODEL 3
REMARK VINA RESULT: -6.784091853      1.587      3.795
REMARK  3 active torsions:
REMARK  status: ('A' for Active; 'I' for Inactive)
REMARK    1  A    between atoms: C5_7  and  O3_8
REMARK    2  A    between atoms: C6_10  and  C8_12
REMARK    3  A    between atoms: C8_12  and  O4_13
ROOT
HETATM    1  C1  UNL     1     -51.163 -15.054 -12.194  1.00  0.00     0.049 C
HETATM    2  C2  UNL     1     -51.947 -14.077 -11.750  1.00  0.00     0.081 C
HETATM    3  O1  UNL     1     -51.173 -12.991 -11.353  1.00  0.00    -0.202 OA
HETATM    4  O2  UNL     1     -51.392 -11.764 -10.994  1.00  0.00    -0.219 OA
HETATM    5  C3  UNL     1     -52.306 -11.452 -10.064  1.00  0.00     0.150 C
HETATM    6  C4  UNL     1     -51.784 -10.184  -9.366  1.00  0.00     0.055 C
HETATM    7  C5  UNL     1     -53.596 -11.004 -10.745  1.00  0.00     0.171 C
HETATM    8  C6  UNL     1     -54.396 -12.140 -11.275  1.00  0.00     0.033 C
HETATM    9  C7  UNL     1     -54.283 -12.068 -12.810  1.00  0.00     0.023 C
HETATM   10  C9  UNL     1     -54.054 -13.478 -10.731  1.00  0.00     0.145 C
HETATM   11  O5  UNL     1     -53.247 -13.569  -9.667  1.00  0.00    -0.371 OA
HETATM   12  C10 UNL     1     -52.681 -12.511  -9.085  1.00  0.00     0.090 C
HETATM   13  C11 UNL     1     -53.590 -12.015  -7.988  1.00  0.00     0.049 C
HETATM   14  C12 UNL     1     -51.393 -12.909  -8.348  1.00  0.00     0.049 C
HETATM   15  C13 UNL     1     -53.401 -14.391 -11.791  1.00  0.00     0.071 C
HETATM   16  C14 UNL     1     -53.667 -15.840 -11.431  1.00  0.00     0.020 C
ENDROOT
BRANCH   8  17
HETATM   17  C8  UNL     1     -55.906 -11.869 -11.100  1.00  0.00     0.178 C
BRANCH  17  18
HETATM   18  O4  UNL     1     -56.266 -12.606  -9.953  1.00  0.00    -0.400 OA
ATOM     19  H4  UNL     1     -56.964 -13.178 -10.249  1.00  0.00     0.209 HD
ENDBRANCH  17  18
ENDBRANCH   8  17
BRANCH   7  20
HETATM   20  O3  UNL     1     -54.267 -10.216  -9.820  1.00  0.00    -0.391 OA
ATOM     21  H3  UNL     1     -55.181 -10.467  -9.874  1.00  0.00     0.210 HD
ENDBRANCH   7  20
TORSDOF 3
ENDMDL