MODEL 5
REMARK VINA RESULT: -8.120059414      2.172      2.630
REMARK  3 active torsions:
REMARK  status: ('A' for Active; 'I' for Inactive)
REMARK    1  A    between atoms: C4_6  and  C5_7
REMARK    2  A    between atoms: C6_8  and  C7_9
REMARK    3  A    between atoms: C7_9  and  O2_10
ROOT
HETATM    1  C7  UNL     1     -53.864 -12.261 -10.605  1.00  0.00     0.261 C
HETATM    2  C8  UNL     1     -54.889 -11.699  -9.667  1.00  0.00     0.091 C
HETATM    3  C9  UNL     1     -54.326 -10.590  -8.830  1.00  0.00     0.078 C
HETATM    4  C10 UNL     1     -52.841 -10.659  -8.650  1.00  0.00     0.258 C
HETATM    5  C11 UNL     1     -52.458 -11.471  -7.442  1.00  0.00     0.072 C
HETATM    6  C12 UNL     1     -51.977 -10.648  -6.292  1.00  0.00     0.007 C
HETATM    7  C13 UNL     1     -52.737  -9.364  -6.101  1.00  0.00     0.028 C
HETATM    8  C14 UNL     1     -53.030  -8.670  -7.411  1.00  0.00     0.236 C
HETATM    9  N2  UNL     1     -52.292  -9.306  -8.468  1.00  0.00    -0.040 N
ATOM     10  H21 UNL     1     -52.287  -8.761  -9.330  1.00  0.00     0.280 HD
ATOM     11  H22 UNL     1     -51.285  -9.306  -8.303  1.00  0.00     0.280 HD
HETATM   12  O3  UNL     1     -52.178 -11.187  -9.757  1.00  0.00    -0.196 OA
HETATM   13  O4  UNL     1     -52.640 -12.414  -9.922  1.00  0.00    -0.184 OA
ENDROOT
BRANCH   1  14
HETATM   14  C6  UNL     1     -54.272 -13.515 -11.189  1.00  0.00    -0.030 C
HETATM   15  C5  UNL     1     -54.627 -14.566 -11.662  1.00  0.00    -0.057 C
BRANCH  15  16
HETATM   16  C4  UNL     1     -55.074 -15.812 -12.216  1.00  0.00     0.068 A
HETATM   17  C1  UNL     1     -54.439 -16.570 -13.177  1.00  0.00     0.175 A
HETATM   18  N1  UNL     1     -53.201 -16.202 -13.773  1.00  0.00    -0.073 NA
HETATM   19  O1  UNL     1     -55.160 -17.640 -13.421  1.00  0.00    -0.307 OA
HETATM   20  C2  UNL     1     -56.249 -17.668 -12.691  1.00  0.00     0.145 A
HETATM   21  C3  UNL     1     -56.228 -16.527 -11.916  1.00  0.00     0.049 A
ENDBRANCH  15  16
ENDBRANCH   1  14
BRANCH   1  22
HETATM   22  O2  UNL     1     -53.615 -11.275 -11.584  1.00  0.00    -0.354 OA
ATOM     23  H2  UNL     1     -54.370 -10.717 -11.729  1.00  0.00     0.214 HD
ENDBRANCH   1  22
TORSDOF 3
ENDMDL