MODEL 5
REMARK VINA RESULT: -8.329359602      3.394      6.503
REMARK  2 active torsions:
REMARK  status: ('A' for Active; 'I' for Inactive)
REMARK    1  A    between atoms: O1_1  and  C1_3
REMARK    2  A    between atoms: C9_11  and  N1_12
ROOT
HETATM    1  C1  UNL     1     -53.163 -12.492 -10.253  1.00  0.00     0.319 C
HETATM    2  C2  UNL     1     -54.173 -12.282  -9.155  1.00  0.00     0.063 C
HETATM    3  C3  UNL     1     -55.511 -12.543  -9.862  1.00  0.00     0.045 C
HETATM    4  C4  UNL     1     -55.180 -12.113 -11.258  1.00  0.00     0.149 C
HETATM    5  C5  UNL     1     -54.993 -10.603 -11.236  1.00  0.00     0.041 C
HETATM    6  C6  UNL     1     -55.026 -10.127 -12.678  1.00  0.00     0.003 C
HETATM    7  C7  UNL     1     -56.447 -10.237 -13.199  1.00  0.00     0.002 C
HETATM    8  C8  UNL     1     -57.209 -11.352 -12.471  1.00  0.00     0.028 C
HETATM    9  C9  UNL     1     -56.192 -12.481 -12.281  1.00  0.00     0.127 C
HETATM   10  N4  UNL     1     -53.890 -12.781 -11.462  1.00  0.00    -0.038 N
ATOM     11  H41 UNL     1     -53.959 -13.773 -11.685  1.00  0.00     0.281 HD
ATOM     12  H42 UNL     1     -53.407 -12.512 -12.319  1.00  0.00     0.281 HD
ENDROOT
BRANCH   9  13
HETATM   13  N1  UNL     1     -56.821 -13.749 -12.087  1.00  0.00    -0.333 N
HETATM   14  C10 UNL     1     -58.107 -13.984 -11.792  1.00  0.00     0.185 A
HETATM   15  N2  UNL     1     -58.321 -15.300 -11.687  1.00  0.00    -0.337 N
HETATM   16  C11 UNL     1     -57.164 -15.945 -11.915  1.00  0.00     0.133 A
ATOM     17  H2  UNL     1     -59.215 -15.741 -11.469  1.00  0.00     0.168 HD
HETATM   18  N3  UNL     1     -56.602 -17.174 -11.986  1.00  0.00    -0.350 N
HETATM   19  C14 UNL     1     -56.232 -14.967 -12.164  1.00  0.00     0.081 A
HETATM   20  C12 UNL     1     -55.314 -16.995 -12.279  1.00  0.00     0.092 A
ATOM     21  H3  UNL     1     -57.073 -18.067 -11.843  1.00  0.00     0.166 HD
HETATM   22  C13 UNL     1     -55.059 -15.658 -12.394  1.00  0.00     0.050 A
ENDBRANCH   9  13
BRANCH   1  23
HETATM   23  O1  UNL     1     -52.273 -13.546  -9.948  1.00  0.00    -0.370 OA
ATOM     24  H1  UNL     1     -51.392 -13.228  -9.789  1.00  0.00     0.212 HD
ENDBRANCH   1  23
TORSDOF 2
ENDMDL