MODEL 1
REMARK VINA RESULT: -8.446677501      0.000      0.000
REMARK  2 active torsions:
REMARK  status: ('A' for Active; 'I' for Inactive)
REMARK    1  A    between atoms: N1_12  and  C11_14
REMARK    2  A    between atoms: C12_20  and  N4_21
ROOT
HETATM    1  C1  UNL     1     -52.119 -12.208 -10.297  1.00  0.00     0.015 C
HETATM    2  C2  UNL     1     -53.435 -11.501  -9.950  1.00  0.00    -0.048 C
HETATM    3  C3  UNL     1     -53.099 -10.359  -9.012  1.00  0.00     0.015 C
HETATM    4  C4  UNL     1     -54.057 -10.914 -11.189  1.00  0.00     0.010 C
HETATM    5  C5  UNL     1     -54.548 -11.969 -12.145  1.00  0.00     0.019 C
HETATM    6  C6  UNL     1     -55.497 -12.917 -11.452  1.00  0.00     0.028 C
HETATM    7  C7  UNL     1     -55.653 -12.592  -9.979  1.00  0.00     0.019 C
HETATM    8  C8  UNL     1     -54.321 -12.502  -9.274  1.00  0.00     0.010 C
HETATM    9  C9  UNL     1     -55.099 -14.364 -11.669  1.00  0.00     0.193 C
HETATM   10  O1  UNL     1     -56.324 -15.022 -11.338  1.00  0.00    -0.333 OA
HETATM   11  C10 UNL     1     -57.376 -14.247 -11.866  1.00  0.00     0.167 C
HETATM   12  N1  UNL     1     -58.558 -14.687 -12.122  1.00  0.00    -0.317 N
ATOM     13  H1  UNL     1     -59.269 -14.065 -12.506  1.00  0.00     0.169 HD
HETATM   14  C13 UNL     1     -56.848 -12.900 -12.049  1.00  0.00     0.065 C
HETATM   15  N5  UNL     1     -57.410 -11.898 -12.603  1.00  0.00    -0.398 N
ATOM     16  H51 UNL     1     -58.343 -11.885 -13.014  1.00  0.00     0.156 HD
ATOM     17  H52 UNL     1     -57.040 -10.956 -12.731  1.00  0.00     0.156 HD
ENDROOT
BRANCH  12  18
HETATM   18  C11 UNL     1     -58.855 -16.044 -11.864  1.00  0.00     0.175 A
HETATM   19  N2  UNL     1     -58.164 -17.148 -12.180  1.00  0.00    -0.222 N
HETATM   20  O2  UNL     1     -58.819 -18.180 -11.742  1.00  0.00    -0.153 OA
ATOM     21  H2  UNL     1     -57.276 -17.174 -12.681  1.00  0.00     0.198 HD
HETATM   22  N3  UNL     1     -59.915 -17.821 -11.147  1.00  0.00    -0.222 N
HETATM   23  C12 UNL     1     -59.979 -16.478 -11.200  1.00  0.00     0.167 A
ATOM     24  H3  UNL     1     -60.601 -18.442 -10.718  1.00  0.00     0.198 HD
BRANCH  23  25
HETATM   25  N4  UNL     1     -60.939 -15.773 -10.706  1.00  0.00    -0.381 N
ATOM     26  H42 UNL     1     -61.155 -14.816 -10.987  1.00  0.00     0.157 HD
ATOM     27  H41 UNL     1     -61.611 -16.036  -9.986  1.00  0.00     0.157 HD
ENDBRANCH  23  25
ENDBRANCH  12  18
TORSDOF 2
ENDMDL