MODEL 4
REMARK VINA RESULT: -6.320207747      2.018      4.019
REMARK  4 active torsions:
REMARK  status: ('A' for Active; 'I' for Inactive)
REMARK    1  A    between atoms: N1_2  and  O1_3
REMARK    2  A    between atoms: N1_2  and  C2_5
REMARK    3  A    between atoms: C5_8  and  O2_9
REMARK    4  A    between atoms: C13_18  and  O3_19
ROOT
HETATM    1  C2  UNL     1     -52.387 -13.152 -10.392  1.00  0.00     0.095 C
HETATM    2  C3  UNL     1     -51.365 -14.217 -10.241  1.00  0.00     0.042 C
HETATM    3  C4  UNL     1     -51.605 -15.019 -11.534  1.00  0.00     0.035 C
HETATM    4  C5  UNL     1     -53.046 -14.697 -11.969  1.00  0.00     0.126 C
HETATM    5  C6  UNL     1     -53.553 -13.983 -10.807  1.00  0.00     0.062 C
HETATM    6  C7  UNL     1     -54.782 -13.204 -10.822  1.00  0.00     0.004 C
HETATM    7  C8  UNL     1     -55.943 -14.214 -10.881  1.00  0.00     0.013 C
HETATM    8  C9  UNL     1     -56.565 -14.156 -12.265  1.00  0.00     0.001 C
HETATM    9  C10 UNL     1     -57.289 -12.813 -12.287  1.00  0.00     0.000 C
HETATM   10  C11 UNL     1     -56.267 -11.744 -12.270  1.00  0.00     0.001 C
HETATM   11  C12 UNL     1     -54.900 -12.135 -11.839  1.00  0.00     0.013 C
HETATM   12  C13 UNL     1     -54.862 -12.655  -9.382  1.00  0.00     0.190 C
HETATM   13  S1  UNL     1     -53.102 -12.554  -8.833  1.00  0.00    -0.108 SA
ENDROOT
BRANCH  12  14
HETATM   14  O3  UNL     1     -55.470 -11.427  -9.334  1.00  0.00    -0.384 OA
ATOM     15  H3  UNL     1     -55.668 -11.163  -8.444  1.00  0.00     0.211 HD
ENDBRANCH  12  14
BRANCH   1  16
HETATM   16  N1  UNL     1     -52.041 -12.034 -11.185  1.00  0.00    -0.184 NA
HETATM   17  C1  UNL     1     -51.954 -10.866 -10.325  1.00  0.00     0.145 C
BRANCH  16  18
HETATM   18  O1  UNL     1     -50.828 -12.137 -11.775  1.00  0.00    -0.312 OA
ATOM     19  H1  UNL     1     -50.272 -12.566 -11.135  1.00  0.00     0.237 HD
ENDBRANCH  16  18
ENDBRANCH   1  16
BRANCH   4  20
HETATM   20  O2  UNL     1     -53.716 -15.920 -12.084  1.00  0.00    -0.395 OA
ATOM     21  H2  UNL     1     -53.833 -16.081 -13.012  1.00  0.00     0.210 HD
ENDBRANCH   4  20
TORSDOF 4
ENDMDL