MODEL 4
REMARK VINA RESULT: -7.775795510      2.665      5.546
REMARK  4 active torsions:
REMARK  status: ('A' for Active; 'I' for Inactive)
REMARK    1  A    between atoms: C8_9  and  N1_10
REMARK    2  A    between atoms: N1_10  and  C9_12
REMARK    3  A    between atoms: C9_12  and  C10_13
REMARK    4  A    between atoms: C19_25  and  O2_26
ROOT
HETATM    1  C1  UNL     1      19.000  -4.945  -3.119  1.00  0.00     0.046 C
HETATM    2  C2  UNL     1      17.774  -4.705  -2.253  1.00  0.00     0.062 C
HETATM    3  C3  UNL     1      18.252  -4.118  -0.926  1.00  0.00     0.038 C
HETATM    4  C4  UNL     1      17.498  -2.822  -0.666  1.00  0.00     0.006 C
HETATM    5  C5  UNL     1      16.024  -3.114  -0.882  1.00  0.00     0.040 C
HETATM    6  C6  UNL     1      15.766  -3.523  -2.295  1.00  0.00     0.079 C
HETATM    7  C7  UNL     1      15.177  -2.326  -3.014  1.00  0.00     0.048 C
HETATM    8  O1  UNL     1      17.009  -3.764  -2.900  1.00  0.00    -0.367 OA
HETATM    9  C8  UNL     1      14.892  -4.719  -2.459  1.00  0.00     0.120 C
HETATM   10  C13 UNL     1      15.761  -5.898  -2.861  1.00  0.00     0.023 C
HETATM   11  C14 UNL     1      16.999  -5.993  -2.020  1.00  0.00     0.026 C
HETATM   12  C15 UNL     1      17.750  -7.227  -2.378  1.00  0.00     0.009 C
HETATM   13  C16 UNL     1      17.157  -7.941  -3.600  1.00  0.00     0.012 C
HETATM   14  C17 UNL     1      15.758  -8.349  -3.219  1.00  0.00    -0.014 C
HETATM   15  C18 UNL     1      15.840  -9.336  -2.076  1.00  0.00     0.018 C
HETATM   16  C19 UNL     1      15.134  -9.039  -4.389  1.00  0.00     0.126 C
HETATM   17  C20 UNL     1      13.785  -8.409  -4.619  1.00  0.00     0.033 C
HETATM   18  C21 UNL     1      13.995  -7.014  -4.086  1.00  0.00     0.008 C
HETATM   19  C22 UNL     1      14.939  -7.150  -2.886  1.00  0.00     0.003 C
ENDROOT
BRANCH   9  20
HETATM   20  N1  UNL     1      13.959  -5.011  -1.459  1.00  0.00    -0.389 N
ATOM     21  H1  UNL     1      14.155  -5.716  -0.748  1.00  0.00     0.159 HD
BRANCH  20  22
HETATM   22  C9  UNL     1      12.744  -4.303  -1.459  1.00  0.00     0.113 C
BRANCH  22  23
HETATM   23  C10 UNL     1      11.788  -4.795  -2.521  1.00  0.00     0.054 A
HETATM   24  C11 UNL     1      10.877  -5.778  -2.233  1.00  0.00     0.081 A
HETATM   25  S1  UNL     1      10.072  -5.958  -3.731  1.00  0.00    -0.094 SA
HETATM   26  C12 UNL     1      10.929  -4.791  -4.625  1.00  0.00     0.138 A
HETATM   27  N2  UNL     1      11.784  -4.321  -3.740  1.00  0.00    -0.358 N
ATOM     28  H2  UNL     1      12.442  -3.588  -4.006  1.00  0.00     0.166 HD
ENDBRANCH  22  23
ENDBRANCH  20  22
ENDBRANCH   9  20
BRANCH  16  29
HETATM   29  O2  UNL     1      15.887  -8.873  -5.548  1.00  0.00    -0.395 OA
ATOM     30  H2  UNL     1      15.337  -8.826  -6.321  1.00  0.00     0.210 HD
ENDBRANCH  16  29
TORSDOF 4
ENDMDL