MODEL 3
REMARK VINA RESULT: -9.751904750      1.909      3.618
REMARK  4 active torsions:
REMARK  status: ('A' for Active; 'I' for Inactive)
REMARK       I    between atoms: C1_2  and  N1_3
REMARK    1  A    between atoms: C1_2  and  C16_19
REMARK    2  A    between atoms: N1_3  and  C2_5
REMARK    3  A    between atoms: C19_26  and  N4_27
REMARK    4  A    between atoms: N4_27  and  C20_29
ROOT
HETATM    1  O1  UNL     1      15.853   0.847  -2.061  1.00  0.00    -0.266 OA
HETATM    2  C1  UNL     1      17.029   0.452  -2.188  1.00  0.00     0.271 C
HETATM    3  N1  UNL     1      17.292  -0.923  -2.331  1.00  0.00    -0.351 N
ATOM      4  H1  UNL     1      18.259  -1.233  -2.435  1.00  0.00     0.163 HD
ENDROOT
BRANCH   2   5
HETATM    5  C16 UNL     1      18.108   1.424  -2.186  1.00  0.00     0.130 A
HETATM    6  N2  UNL     1      19.010   1.522  -3.162  1.00  0.00    -0.346 N
HETATM    7  C17 UNL     1      19.995   2.423  -3.139  1.00  0.00     0.180 A
ATOM      8  H2  UNL     1      18.946   0.884  -3.955  1.00  0.00     0.167 HD
HETATM    9  N3  UNL     1      20.129   3.280  -2.133  1.00  0.00    -0.360 N
HETATM   10  C18 UNL     1      19.255   3.235  -1.122  1.00  0.00     0.121 A
ATOM     11  H3  UNL     1      20.888   3.961  -2.132  1.00  0.00     0.166 HD
HETATM   12  C19 UNL     1      18.237   2.324  -1.117  1.00  0.00     0.097 A
BRANCH  12  13
HETATM   13  N4  UNL     1      17.293   2.260  -0.046  1.00  0.00    -0.186 N
ATOM     14  H4  UNL     1      16.296   2.338  -0.250  1.00  0.00     0.184 HD
BRANCH  13  15
HETATM   15  C20 UNL     1      17.680   2.105   1.173  1.00  0.00     0.704 A
HETATM   16  N5  UNL     1      16.947   1.858   2.284  1.00  0.00    -0.178 N
HETATM   17  C21 UNL     1      17.798   1.776   3.323  1.00  0.00     0.276 A
ATOM     18  H5  UNL     1      15.933   1.754   2.326  1.00  0.00     0.185 HD
HETATM   19  O2  UNL     1      19.006   1.970   2.847  1.00  0.00    -0.218 OA
HETATM   20  N6  UNL     1      18.960   2.166   1.574  1.00  0.00    -0.090 N
ATOM     21  H6  UNL     1      19.763   2.339   0.970  1.00  0.00     0.213 HD
ENDBRANCH  13  15
ENDBRANCH  12  13
ENDBRANCH   2   5
BRANCH   3  22
HETATM   22  C2  UNL     1      16.218  -1.929  -2.335  1.00  0.00     0.084 C
HETATM   23  C3  UNL     1      15.605  -1.937  -3.698  1.00  0.00     0.025 C
HETATM   24  C4  UNL     1      14.094  -2.023  -3.541  1.00  0.00     0.002 C
HETATM   25  C5  UNL     1      13.411  -2.522  -4.780  1.00  0.00     0.000 C
HETATM   26  C6  UNL     1      12.060  -3.099  -4.520  1.00  0.00     0.000 C
HETATM   27  C7  UNL     1      12.049  -4.285  -3.611  1.00  0.00     0.000 C
HETATM   28  C8  UNL     1      12.667  -5.507  -4.243  1.00  0.00     0.000 C
HETATM   29  C9  UNL     1      12.727  -6.689  -3.340  1.00  0.00     0.000 C
HETATM   30  C10 UNL     1      13.427  -6.490  -2.043  1.00  0.00     0.000 C
HETATM   31  C11 UNL     1      14.664  -7.386  -1.894  1.00  0.00     0.000 C
HETATM   32  C12 UNL     1      15.838  -6.806  -2.674  1.00  0.00     0.000 C
HETATM   33  C13 UNL     1      16.540  -5.708  -1.915  1.00  0.00     0.000 C
HETATM   34  C14 UNL     1      16.423  -4.427  -2.680  1.00  0.00     0.002 C
HETATM   35  C15 UNL     1      16.799  -3.217  -1.876  1.00  0.00     0.025 C
ENDBRANCH   3  22
TORSDOF 4
ENDMDL