MODEL 5
REMARK VINA RESULT: -6.473936001      3.531      5.085
REMARK  3 active torsions:
REMARK  status: ('A' for Active; 'I' for Inactive)
REMARK    1  A    between atoms: C17_22  and  O3_23
REMARK    2  A    between atoms: O3_23  and  C18_24
REMARK    3  A    between atoms: C18_24  and  C19_26
ROOT
HETATM    1  C1  UNL     1      14.010  -1.309  -8.121  1.00  0.00     0.027 C
HETATM    2  C2  UNL     1      12.894  -1.878  -7.752  1.00  0.00     0.038 C
HETATM    3  C3  UNL     1      12.344  -2.933  -8.600  1.00  0.00     0.292 C
HETATM    4  O1  UNL     1      12.453  -2.940  -9.840  1.00  0.00    -0.259 OA
HETATM    5  O2  UNL     1      11.667  -3.966  -7.882  1.00  0.00    -0.279 OA
HETATM    6  C4  UNL     1      11.791  -3.708  -6.499  1.00  0.00     0.363 C
HETATM    7  N1  UNL     1      11.118  -2.395  -6.341  1.00  0.00    -0.036 N
ATOM      8  H11 UNL     1      10.590  -2.288  -5.475  1.00  0.00     0.281 HD
ATOM      9  H12 UNL     1      10.324  -2.245  -6.964  1.00  0.00     0.281 HD
HETATM   10  C5  UNL     1      12.218  -1.444  -6.510  1.00  0.00     0.227 C
HETATM   11  C6  UNL     1      13.052  -1.592  -5.254  1.00  0.00     0.042 C
HETATM   12  C7  UNL     1      12.274  -2.028  -4.066  1.00  0.00     0.036 C
HETATM   13  C8  UNL     1      12.850  -3.227  -3.302  1.00  0.00    -0.078 C
HETATM   14  C9  UNL     1      14.300  -3.352  -3.540  1.00  0.00     0.044 C
HETATM   15  C10 UNL     1      11.967  -4.407  -3.274  1.00  0.00    -0.035 C
HETATM   16  C11 UNL     1      12.004  -5.259  -2.055  1.00  0.00     0.039 C
HETATM   17  C12 UNL     1      13.167  -6.100  -1.771  1.00  0.00     0.012 C
HETATM   18  C13 UNL     1      13.530  -7.167  -2.740  1.00  0.00     0.004 C
HETATM   19  C14 UNL     1      14.826  -7.807  -2.218  1.00  0.00     0.014 C
HETATM   20  C15 UNL     1      13.803  -6.736  -4.113  1.00  0.00    -0.023 C
HETATM   21  C16 UNL     1      13.097  -5.914  -4.919  1.00  0.00     0.017 C
HETATM   22  C17 UNL     1      11.835  -5.277  -4.486  1.00  0.00     0.139 C
HETATM   23  C22 UNL     1      11.089  -4.593  -5.581  1.00  0.00     0.010 C
HETATM   24  C23 UNL     1       9.788  -4.719  -5.750  1.00  0.00     0.022 C
ENDROOT
BRANCH  22  25
HETATM   25  O3  UNL     1      11.028  -6.372  -4.091  1.00  0.00    -0.293 OA
BRANCH  25  26
HETATM   26  C18 UNL     1       9.642  -6.178  -3.915  1.00  0.00     0.284 C
HETATM   27  O4  UNL     1       9.263  -5.665  -2.842  1.00  0.00    -0.260 OA
BRANCH  26  28
HETATM   28  C19 UNL     1       8.760  -6.583  -4.985  1.00  0.00     0.078 C
HETATM   29  C20 UNL     1       8.122  -7.722  -4.970  1.00  0.00    -0.025 C
HETATM   30  C21 UNL     1       8.242  -8.692  -3.871  1.00  0.00     0.036 C
ENDBRANCH  26  28
ENDBRANCH  25  26
ENDBRANCH  22  25
TORSDOF 3
ENDMDL