MODEL 4
REMARK VINA RESULT: -9.378398085      2.495      9.269
REMARK  4 active torsions:
REMARK  status: ('A' for Active; 'I' for Inactive)
REMARK    1  A    between atoms: C6_7  and  C7_8
REMARK       I    between atoms: C7_8  and  N1_10
REMARK    2  A    between atoms: N1_10  and  C8_12
REMARK    3  A    between atoms: C8_12  and  C9_16
REMARK    4  A    between atoms: C9_16  and  C10_18
ROOT
HETATM    1  C7  UNL     1      17.994  -2.396  -1.982  1.00  0.00     0.264 C
HETATM    2  O2  UNL     1      19.062  -2.245  -1.378  1.00  0.00    -0.267 OA
HETATM    3  N1  UNL     1      17.157  -1.406  -2.459  1.00  0.00    -0.306 N
ATOM      4  H1  UNL     1      16.323  -1.755  -2.931  1.00  0.00     0.170 HD
ENDROOT
BRANCH   1   5
HETATM    5  C6  UNL     1      17.632  -3.847  -2.184  1.00  0.00     0.078 A
HETATM    6  C5  UNL     1      16.402  -4.376  -2.447  1.00  0.00     0.065 A
HETATM    7  C4  UNL     1      16.316  -5.711  -2.589  1.00  0.00     0.112 A
HETATM    8  O1  UNL     1      15.178  -6.514  -2.862  1.00  0.00    -0.334 OA
HETATM    9  C16 UNL     1      17.473  -6.431  -2.459  1.00  0.00     0.145 A
HETATM   10  C2  UNL     1      15.384  -7.723  -3.554  1.00  0.00     0.092 C
HETATM   11  C1  UNL     1      14.088  -8.368  -3.912  1.00  0.00     0.049 C
HETATM   12  C3  UNL     1      16.091  -7.388  -4.873  1.00  0.00     0.049 C
HETATM   13  C17 UNL     1      16.318  -8.606  -2.780  1.00  0.00     0.099 C
HETATM   14  O4  UNL     1      17.507  -7.841  -2.587  1.00  0.00    -0.327 OA
HETATM   15  C18 UNL     1      16.578  -9.954  -3.365  1.00  0.00     0.042 C
HETATM   16  C20 UNL     1      15.787  -9.223  -1.531  1.00  0.00     0.042 C
HETATM   17  C19 UNL     1      16.468 -10.530  -1.947  1.00  0.00     0.006 C
HETATM   18  S1  UNL     1      18.636  -5.220  -2.143  1.00  0.00    -0.057 SA
ENDBRANCH   1   5
BRANCH   3  19
HETATM   19  C8  UNL     1      17.247  -0.029  -2.411  1.00  0.00     0.148 C
HETATM   20  N2  UNL     1      16.218   0.617  -1.851  1.00  0.00    -0.382 N
ATOM     21  H22 UNL     1      15.464   0.017  -1.517  1.00  0.00     0.157 HD
ATOM     22  H21 UNL     1      16.285   1.634  -1.815  1.00  0.00     0.157 HD
BRANCH  19  23
HETATM   23  C9  UNL     1      18.305   0.813  -2.880  1.00  0.00     0.196 C
HETATM   24  O3  UNL     1      18.790   0.707  -4.058  1.00  0.00    -0.289 OA
BRANCH  23  25
HETATM   25  C10 UNL     1      18.953   1.885  -2.082  1.00  0.00     0.064 C
HETATM   26  C11 UNL     1      19.909   2.760  -2.848  1.00  0.00     0.013 C
HETATM   27  C12 UNL     1      20.106   3.983  -1.960  1.00  0.00     0.001 C
HETATM   28  C13 UNL     1      20.607   3.667  -0.608  1.00  0.00     0.000 C
HETATM   29  C14 UNL     1      20.088   2.441   0.061  1.00  0.00     0.001 C
HETATM   30  C15 UNL     1      19.685   1.343  -0.903  1.00  0.00     0.013 C
ENDBRANCH  23  25
ENDBRANCH  19  23
ENDBRANCH   3  19
TORSDOF 4
ENDMDL