MODEL 4
REMARK VINA RESULT: -7.813270903      3.154      5.183
REMARK  6 active torsions:
REMARK  status: ('A' for Active; 'I' for Inactive)
REMARK    1  A    between atoms: C6_6  and  C8_8
REMARK    2  A    between atoms: C8_8  and  O1_9
REMARK    3  A    between atoms: C14_16  and  C15_17
REMARK    4  A    between atoms: C15_17  and  O3_22
REMARK    5  A    between atoms: N1_18  and  O2_20
REMARK    6  A    between atoms: O3_22  and  C16_23
ROOT
HETATM    1  C1  UNL     1      13.281  -4.238  -4.553  1.00  0.00     0.011 C
HETATM    2  C2  UNL     1      13.865  -3.698  -3.264  1.00  0.00    -0.006 C
HETATM    3  C3  UNL     1      14.091  -2.235  -3.496  1.00  0.00     0.005 C
HETATM    4  C4  UNL     1      15.180  -1.657  -2.619  1.00  0.00     0.006 C
HETATM    5  C5  UNL     1      16.377  -2.483  -2.935  1.00  0.00     0.005 C
HETATM    6  C6  UNL     1      17.654  -1.789  -2.716  1.00  0.00    -0.018 C
HETATM    7  C7  UNL     1      17.665  -0.799  -1.558  1.00  0.00     0.018 C
HETATM    8  C9  UNL     1      18.863  -2.650  -2.607  1.00  0.00     0.012 C
HETATM    9  C10 UNL     1      18.645  -3.978  -1.957  1.00  0.00     0.002 C
HETATM   10  C11 UNL     1      17.441  -4.621  -2.569  1.00  0.00     0.010 C
HETATM   11  C12 UNL     1      16.189  -3.802  -2.224  1.00  0.00    -0.028 C
HETATM   12  C13 UNL     1      15.996  -3.667  -0.744  1.00  0.00     0.016 C
HETATM   13  C14 UNL     1      14.978  -4.518  -2.763  1.00  0.00     0.074 C
ENDROOT
BRANCH  13  14
HETATM   14  C15 UNL     1      14.535  -5.649  -1.895  1.00  0.00     0.143 C
HETATM   15  N1  UNL     1      13.541  -5.698  -1.126  1.00  0.00    -0.251 N
ATOM     16  H1  UNL     1      13.489  -6.601  -0.656  1.00  0.00     0.196 HD
BRANCH  15  17
HETATM   17  O2  UNL     1      12.551  -4.919  -0.756  1.00  0.00    -0.288 OA
ATOM     18  H2  UNL     1      12.129  -4.120  -1.051  1.00  0.00     0.244 HD
ENDBRANCH  15  17
BRANCH  14  19
HETATM   19  O3  UNL     1      15.262  -6.851  -1.875  1.00  0.00    -0.332 OA
BRANCH  19  20
HETATM   20  C16 UNL     1      15.211  -7.841  -2.846  1.00  0.00     0.134 C
HETATM   21  C17 UNL     1      16.466  -8.009  -3.632  1.00  0.00     0.058 C
HETATM   22  C18 UNL     1      16.355  -7.957  -5.099  1.00  0.00     0.170 C
HETATM   23  O4  UNL     1      15.128  -8.164  -5.652  1.00  0.00    -0.391 OA
HETATM   24  C19 UNL     1      14.197  -8.783  -4.863  1.00  0.00     0.170 C
HETATM   25  C20 UNL     1      13.954  -7.850  -3.673  1.00  0.00     0.058 C
ENDBRANCH  19  20
ENDBRANCH  14  19
ENDBRANCH  13  14
BRANCH   6  26
HETATM   26  C8  UNL     1      17.890  -0.899  -3.955  1.00  0.00     0.173 C
BRANCH  26  27
HETATM   27  O1  UNL     1      18.620  -1.563  -4.917  1.00  0.00    -0.400 OA
ATOM     28  H1  UNL     1      18.970  -0.960  -5.561  1.00  0.00     0.209 HD
ENDBRANCH  26  27
ENDBRANCH   6  26
TORSDOF 6
ENDMDL