MODEL 2
REMARK VINA RESULT: -7.479715424      6.774      9.389
REMARK  5 active torsions:
REMARK  status: ('A' for Active; 'I' for Inactive)
REMARK    1  A    between atoms: N1_9  and  C9_10
REMARK    2  A    between atoms: C9_10  and  C10_11
REMARK    3  A    between atoms: C16_17  and  O1_18
REMARK    4  A    between atoms: N2_20  and  C17_21
REMARK    5  A    between atoms: C21_26  and  O2_27
ROOT
HETATM    1  C1  UNL     1      11.203  -3.029  -6.235  1.00  0.00     0.010 C
HETATM    2  C2  UNL     1      12.483  -3.267  -5.481  1.00  0.00    -0.012 C
HETATM    3  C3  UNL     1      12.928  -1.905  -4.915  1.00  0.00     0.005 C
HETATM    4  C4  UNL     1      13.292  -2.166  -3.440  1.00  0.00     0.006 C
HETATM    5  C5  UNL     1      13.389  -3.622  -3.431  1.00  0.00     0.001 C
HETATM    6  C6  UNL     1      13.344  -4.378  -2.148  1.00  0.00     0.030 C
HETATM    7  C7  UNL     1      11.981  -4.504  -1.525  1.00  0.00     0.029 C
HETATM    8  C8  UNL     1      11.162  -5.660  -1.973  1.00  0.00     0.123 C
HETATM    9  N1  UNL     1      10.845  -5.734  -3.346  1.00  0.00    -0.384 N
HETATM   10  C13 UNL     1      11.968  -5.431  -4.224  1.00  0.00     0.126 C
HETATM   11  C14 UNL     1      13.066  -6.251  -3.649  1.00  0.00     0.027 A
HETATM   12  C15 UNL     1      13.757  -5.747  -2.573  1.00  0.00     0.011 A
HETATM   13  C16 UNL     1      14.681  -6.678  -2.200  1.00  0.00     0.157 A
HETATM   14  N2  UNL     1      14.558  -7.728  -3.033  1.00  0.00    -0.265 N
HETATM   15  C21 UNL     1      13.581  -7.497  -3.927  1.00  0.00     0.158 A
HETATM   16  C22 UNL     1      12.134  -3.978  -4.202  1.00  0.00     0.022 C
ENDROOT
BRANCH  14  17
HETATM   17  C17 UNL     1      15.393  -8.900  -2.911  1.00  0.00     0.084 A
HETATM   18  C18 UNL     1      15.741  -9.528  -1.745  1.00  0.00     0.038 A
HETATM   19  C19 UNL     1      16.527 -10.605  -1.837  1.00  0.00     0.010 A
HETATM   20  C20 UNL     1      16.920 -10.992  -3.091  1.00  0.00     0.052 A
HETATM   21  S1  UNL     1      16.178  -9.835  -4.101  1.00  0.00    -0.084 SA
ENDBRANCH  14  17
BRANCH  13  22
HETATM   22  O1  UNL     1      15.581  -6.536  -1.139  1.00  0.00    -0.345 OA
ATOM     23  H1  UNL     1      16.525  -6.471  -1.228  1.00  0.00     0.219 HD
ENDBRANCH  13  22
BRANCH  15  24
HETATM   24  O2  UNL     1      13.188  -8.362  -4.926  1.00  0.00    -0.345 OA
ATOM     25  H2  UNL     1      13.347  -9.298  -4.975  1.00  0.00     0.219 HD
ENDBRANCH  15  24
BRANCH   9  26
HETATM   26  C9  UNL     1       9.575  -5.455  -3.819  1.00  0.00     0.063 C
BRANCH  26  27
HETATM   27  C10 UNL     1       9.216  -6.030  -5.151  1.00  0.00     0.024 A
HETATM   28  C11 UNL     1       7.715  -6.298  -5.323  1.00  0.00     0.010 A
HETATM   29  C12 UNL     1       8.420  -5.273  -6.153  1.00  0.00     0.010 A
ENDBRANCH  26  27
ENDBRANCH   9  26
TORSDOF 5
ENDMDL