MODEL 4
REMARK VINA RESULT: -8.084860848      3.121      4.158
REMARK  5 active torsions:
REMARK  status: ('A' for Active; 'I' for Inactive)
REMARK    1  A    between atoms: C2_2  and  O1_4
REMARK    2  A    between atoms: O1_4  and  C4_5
REMARK       I    between atoms: C4_5  and  N1_7
REMARK       I    between atoms: N1_7  and  C5_8
REMARK       I    between atoms: C5_8  and  N2_9
REMARK       I    between atoms: C5_8  and  N4_19
REMARK    3  A    between atoms: N2_9  and  N3_11
REMARK    4  A    between atoms: C6_13  and  C7_14
REMARK    5  A    between atoms: N4_19  and  C11_21
ROOT
HETATM    1  C4  UNL     1      17.579  -3.144  -1.868  1.00  0.00     0.443 C
HETATM    2  O2  UNL     1      18.831  -3.264  -1.598  1.00  0.00    -0.221 OA
HETATM    3  N1  UNL     1      17.109  -2.062  -2.433  1.00  0.00    -0.309 NA
HETATM    4  C5  UNL     1      16.723  -1.063  -2.950  1.00  0.00     0.276 C
HETATM    5  N2  UNL     1      15.341  -0.812  -3.229  1.00  0.00    -0.260 N
ATOM      6  H2  UNL     1      14.731  -0.527  -2.462  1.00  0.00     0.191 HD
HETATM    7  N4  UNL     1      17.621  -0.005  -3.346  1.00  0.00    -0.340 N
ATOM      8  H4  UNL     1      17.968   0.011  -4.306  1.00  0.00     0.164 HD
ENDROOT
BRANCH   5   9
HETATM    9  N3  UNL     1      14.792  -0.942  -4.508  1.00  0.00    -0.307 N
HETATM   10  C6  UNL     1      13.694  -1.563  -4.704  1.00  0.00     0.126 C
ATOM     11  H3  UNL     1      15.281  -0.532  -5.304  1.00  0.00     0.186 HD
BRANCH  10  12
HETATM   12  C7  UNL     1      13.190  -1.651  -6.088  1.00  0.00     0.021 A
HETATM   13  C8  UNL     1      13.602  -0.962  -7.198  1.00  0.00     0.021 A
HETATM   14  C9  UNL     1      12.978  -1.226  -8.351  1.00  0.00     0.008 A
HETATM   15  C10 UNL     1      11.979  -2.161  -8.331  1.00  0.00     0.050 A
HETATM   16  S1  UNL     1      11.945  -2.643  -6.694  1.00  0.00    -0.101 SA
ENDBRANCH  10  12
ENDBRANCH   5   9
BRANCH   7  17
HETATM   17  C11 UNL     1      18.043   1.021  -2.446  1.00  0.00     0.035 C
HETATM   18  C12 UNL     1      18.592   0.374  -1.196  1.00  0.00     0.035 C
HETATM   19  C13 UNL     1      18.922   1.402  -0.144  1.00  0.00    -0.012 C
HETATM   20  C14 UNL     1      17.653   2.162   0.165  1.00  0.00     0.009 C
HETATM   21  C18 UNL     1      20.009   2.295  -0.694  1.00  0.00     0.009 C
HETATM   22  C15 UNL     1      17.196   2.914  -1.047  1.00  0.00    -0.012 C
HETATM   23  C16 UNL     1      18.308   3.792  -1.594  1.00  0.00     0.009 C
HETATM   24  C20 UNL     1      16.858   1.916  -2.135  1.00  0.00     0.035 C
HETATM   25  C17 UNL     1      19.496   2.934  -1.986  1.00  0.00    -0.012 C
HETATM   26  C19 UNL     1      19.139   1.893  -3.017  1.00  0.00     0.035 C
ENDBRANCH   7  17
BRANCH   1  27
HETATM   27  O1  UNL     1      16.851  -4.294  -1.477  1.00  0.00    -0.288 OA
BRANCH  27  28
HETATM   28  C2  UNL     1      16.059  -5.040  -2.350  1.00  0.00     0.126 C
HETATM   29  C1  UNL     1      16.236  -6.504  -2.012  1.00  0.00     0.040 C
HETATM   30  C3  UNL     1      14.582  -4.712  -2.211  1.00  0.00     0.040 C
ENDBRANCH  27  28
ENDBRANCH   1  27
TORSDOF 5
ENDMDL