MODEL 3
REMARK VINA RESULT: -8.653748039      1.925      3.027
REMARK  6 active torsions:
REMARK  status: ('A' for Active; 'I' for Inactive)
REMARK       I    between atoms: N1_2  and  C2_3
REMARK    1  A    between atoms: N1_2  and  C16_26
REMARK    2  A    between atoms: C2_3  and  C3_5
REMARK    3  A    between atoms: C3_5  and  C4_6
REMARK    4  A    between atoms: C5_8  and  N2_9
REMARK    5  A    between atoms: N2_9  and  C6_11
REMARK    6  A    between atoms: C15_23  and  O2_24
ROOT
HETATM    1  C4  UNL     1      17.514  -0.177  -2.504  1.00  0.00     0.045 A
HETATM    2  S1  UNL     1      18.238  -1.622  -1.946  1.00  0.00    -0.054 SA
HETATM    3  C5  UNL     1      16.846  -2.616  -1.934  1.00  0.00     0.149 A
HETATM    4  N4  UNL     1      15.890  -1.781  -2.362  1.00  0.00    -0.317 N
ATOM      5  H4  UNL     1      14.928  -2.103  -2.459  1.00  0.00     0.170 HD
HETATM    6  C15 UNL     1      16.206  -0.557  -2.651  1.00  0.00     0.155 A
ENDROOT
BRANCH   3   7
HETATM    7  N2  UNL     1      16.675  -3.868  -1.634  1.00  0.00    -0.339 N
ATOM      8  H2  UNL     1      16.845  -4.143  -0.667  1.00  0.00     0.164 HD
BRANCH   7   9
HETATM    9  C6  UNL     1      16.266  -4.901  -2.549  1.00  0.00     0.262 C
HETATM   10  C7  UNL     1      16.746  -6.226  -1.969  1.00  0.00     0.061 C
HETATM   11  C8  UNL     1      17.275  -7.146  -3.022  1.00  0.00     0.005 C
HETATM   12  C9  UNL     1      16.266  -7.752  -3.921  1.00  0.00     0.000 C
HETATM   13  C10 UNL     1      15.078  -8.380  -3.287  1.00  0.00     0.000 C
HETATM   14  C11 UNL     1      13.858  -8.148  -4.191  1.00  0.00     0.000 C
HETATM   15  C12 UNL     1      12.950  -7.083  -3.590  1.00  0.00     0.006 C
HETATM   16  C13 UNL     1      13.177  -5.738  -4.185  1.00  0.00     0.059 C
HETATM   17  C14 UNL     1      13.848  -4.784  -3.232  1.00  0.00     0.150 C
HETATM   18  N3  UNL     1      14.976  -4.867  -2.935  1.00  0.00    -0.439 NA
ENDBRANCH   7   9
ENDBRANCH   3   7
BRANCH   1  19
HETATM   19  C3  UNL     1      18.116   1.161  -2.790  1.00  0.00     0.153 C
BRANCH  19  20
HETATM   20  C2  UNL     1      17.793   2.110  -1.730  1.00  0.00     0.224 C
HETATM   21  N1  UNL     1      18.741   2.347  -0.702  1.00  0.00    -0.351 N
HETATM   22  C1  UNL     1      20.009   1.640  -0.679  1.00  0.00     0.153 C
HETATM   23  O1  UNL     1      16.703   2.730  -1.687  1.00  0.00    -0.273 OA
BRANCH  21  24
HETATM   24  C16 UNL     1      18.527   3.322   0.375  1.00  0.00     0.086 C
HETATM   25  C17 UNL     1      17.860   2.629   1.569  1.00  0.00     0.025 C
HETATM   26  C18 UNL     1      18.933   2.511   2.621  1.00  0.00     0.002 C
HETATM   27  C19 UNL     1      20.020   3.471   2.302  1.00  0.00     0.002 C
HETATM   28  C20 UNL     1      19.824   3.867   0.879  1.00  0.00     0.025 C
ENDBRANCH  21  24
ENDBRANCH  19  20
ENDBRANCH   1  19
BRANCH   6  29
HETATM   29  O2  UNL     1      15.237   0.386  -3.111  1.00  0.00    -0.345 OA
ATOM     30  H2  UNL     1      14.592   0.126  -3.759  1.00  0.00     0.219 HD
ENDBRANCH   6  29
TORSDOF 6
ENDMDL