MODEL 2
REMARK VINA RESULT: -6.000098660      4.144      5.889
REMARK  8 active torsions:
REMARK  status: ('A' for Active; 'I' for Inactive)
REMARK    1  A    between atoms: C10_12  and  O3_13
REMARK    2  A    between atoms: O3_13  and  C11_14
REMARK    3  A    between atoms: C11_14  and  O5_16
REMARK    4  A    between atoms: O5_16  and  C12_17
REMARK    5  A    between atoms: C14_19  and  C15_20
REMARK    6  A    between atoms: C16_21  and  C18_23
REMARK    7  A    between atoms: C18_23  and  C19_24
REMARK    8  A    between atoms: C22_27  and  O6_28
ROOT
HETATM    1  C1  UNL     1      18.803  -4.073  -2.995  1.00  0.00     0.028 C
HETATM    2  C2  UNL     1      17.953  -3.527  -2.150  1.00  0.00     0.037 C
HETATM    3  C3  UNL     1      18.088  -2.059  -1.908  1.00  0.00     0.291 C
HETATM    4  O1  UNL     1      19.298  -1.648  -2.083  1.00  0.00    -0.260 OA
HETATM    5  O2  UNL     1      17.030  -1.319  -1.551  1.00  0.00    -0.317 OA
HETATM    6  C4  UNL     1      16.068  -0.543  -2.090  1.00  0.00     0.187 C
HETATM    7  C5  UNL     1      15.229  -1.080  -3.210  1.00  0.00    -0.025 C
HETATM    8  C6  UNL     1      14.157   0.004  -3.464  1.00  0.00     0.017 C
HETATM    9  C7  UNL     1      15.982  -1.169  -4.515  1.00  0.00     0.017 C
HETATM   10  C8  UNL     1      14.469  -2.337  -2.868  1.00  0.00     0.013 C
HETATM   11  C9  UNL     1      14.889  -3.530  -3.658  1.00  0.00     0.034 C
HETATM   12  C10 UNL     1      14.847  -4.766  -2.775  1.00  0.00     0.144 C
HETATM   13  C14 UNL     1      16.210  -5.296  -2.484  1.00  0.00     0.072 C
HETATM   14  C22 UNL     1      16.955  -4.365  -1.495  1.00  0.00     0.166 C
ENDROOT
BRANCH  13  15
HETATM   15  C15 UNL     1      16.134  -6.639  -1.902  1.00  0.00    -0.002 C
HETATM   16  C16 UNL     1      16.087  -7.811  -2.512  1.00  0.00    -0.024 C
HETATM   17  C17 UNL     1      16.026  -9.032  -1.580  1.00  0.00     0.057 C
BRANCH  16  18
HETATM   18  C18 UNL     1      15.951  -7.974  -3.902  1.00  0.00    -0.145 C
BRANCH  18  19
HETATM   19  C19 UNL     1      15.830  -8.118  -5.136  1.00  0.00     0.049 C
HETATM   20  C20 UNL     1      14.555  -8.602  -5.796  1.00  0.00     0.022 C
HETATM   21  C21 UNL     1      16.912  -7.876  -6.155  1.00  0.00     0.022 C
ENDBRANCH  18  19
ENDBRANCH  16  18
ENDBRANCH  13  15
BRANCH  12  22
HETATM   22  O3  UNL     1      14.031  -4.595  -1.638  1.00  0.00    -0.292 OA
BRANCH  22  23
HETATM   23  C11 UNL     1      12.813  -5.270  -1.505  1.00  0.00     0.406 C
HETATM   24  O4  UNL     1      12.840  -6.403  -0.975  1.00  0.00    -0.229 OA
BRANCH  23  25
HETATM   25  O5  UNL     1      11.611  -4.692  -1.949  1.00  0.00    -0.298 OA
BRANCH  25  26
HETATM   26  C12 UNL     1      11.187  -5.165  -3.231  1.00  0.00     0.176 C
HETATM   27  C13 UNL     1       9.885  -5.888  -3.169  1.00  0.00     0.034 C
ENDBRANCH  25  26
ENDBRANCH  23  25
ENDBRANCH  22  23
ENDBRANCH  12  22
BRANCH  14  28
HETATM   28  O6  UNL     1      17.700  -5.257  -0.678  1.00  0.00    -0.390 OA
ATOM     29  H6  UNL     1      17.698  -6.083  -1.148  1.00  0.00     0.210 HD
ENDBRANCH  14  28
TORSDOF 8
ENDMDL