MODEL 4
REMARK VINA RESULT: -6.589758663      2.339      5.858
REMARK  5 active torsions:
REMARK  status: ('A' for Active; 'I' for Inactive)
REMARK    1  A    between atoms: C3_4  and  C4_5
REMARK    2  A    between atoms: C3_4  and  C10_11
REMARK    3  A    between atoms: C10_11  and  C11_12
REMARK    4  A    between atoms: C11_12  and  O2_13
REMARK    5  A    between atoms: N1_15  and  O3_17
ROOT
HETATM    1  O1  UNL     1      17.558  -4.989  -1.641  1.00  0.00    -0.290 OA
HETATM    2  C1  UNL     1      16.696  -4.184  -2.002  1.00  0.00     0.185 C
HETATM    3  C2  UNL     1      15.269  -4.245  -2.333  1.00  0.00     0.057 C
HETATM    4  C3  UNL     1      14.476  -5.201  -2.762  1.00  0.00    -0.011 C
HETATM    5  S1  UNL     1      15.020  -2.524  -1.936  1.00  0.00    -0.107 SA
HETATM    6  C16 UNL     1      16.792  -2.719  -2.255  1.00  0.00     0.079 C
HETATM    7  C17 UNL     1      17.583  -2.053  -1.177  1.00  0.00     0.029 C
HETATM    8  C18 UNL     1      19.060  -2.168  -1.517  1.00  0.00     0.002 C
HETATM    9  C19 UNL     1      19.240  -1.317  -2.781  1.00  0.00     0.000 C
HETATM   10  C20 UNL     1      18.529  -1.975  -3.932  1.00  0.00     0.002 C
HETATM   11  C21 UNL     1      17.117  -2.353  -3.647  1.00  0.00     0.029 C
ENDROOT
BRANCH   4  12
HETATM   12  C4  UNL     1      15.134  -6.497  -2.965  1.00  0.00    -0.027 A
HETATM   13  C5  UNL     1      15.773  -6.851  -4.095  1.00  0.00     0.012 A
HETATM   14  C6  UNL     1      16.408  -8.102  -4.151  1.00  0.00     0.001 A
HETATM   15  C7  UNL     1      16.371  -8.935  -3.073  1.00  0.00     0.000 A
HETATM   16  C8  UNL     1      15.727  -8.609  -1.899  1.00  0.00     0.001 A
HETATM   17  C9  UNL     1      15.109  -7.362  -1.877  1.00  0.00     0.012 A
ENDBRANCH   4  12
BRANCH   4  18
HETATM   18  C10 UNL     1      13.073  -4.972  -3.047  1.00  0.00     0.059 C
HETATM   19  C12 UNL     1      12.310  -4.754  -1.727  1.00  0.00     0.049 C
HETATM   20  C13 UNL     1      11.196  -5.755  -1.576  1.00  0.00     0.169 C
HETATM   21  O4  UNL     1      10.377  -5.890  -2.658  1.00  0.00    -0.391 OA
HETATM   22  C14 UNL     1      10.891  -5.567  -3.881  1.00  0.00     0.169 C
HETATM   23  C15 UNL     1      12.382  -6.028  -3.853  1.00  0.00     0.049 C
BRANCH  18  24
HETATM   24  C11 UNL     1      12.887  -3.710  -3.799  1.00  0.00     0.149 C
HETATM   25  N1  UNL     1      12.311  -2.732  -3.169  1.00  0.00    -0.250 N
ATOM     26  H1  UNL     1      12.020  -2.880  -2.203  1.00  0.00     0.196 HD
BRANCH  24  27
HETATM   27  O2  UNL     1      13.294  -3.545  -5.100  1.00  0.00    -0.347 OA
ATOM     28  H2  UNL     1      14.205  -3.446  -5.351  1.00  0.00     0.219 HD
ENDBRANCH  24  27
BRANCH  25  29
HETATM   29  O3  UNL     1      12.075  -1.511  -3.743  1.00  0.00    -0.288 OA
ATOM     30  H3  UNL     1      11.522  -0.851  -3.343  1.00  0.00     0.244 HD
ENDBRANCH  25  29
ENDBRANCH  18  24
ENDBRANCH   4  18
TORSDOF 5
ENDMDL