MODEL 2
REMARK VINA RESULT: -9.588129644      0.959      1.615
REMARK  12 active torsions:
REMARK  status: ('A' for Active; 'I' for Inactive)
REMARK    1  A    between atoms: N1_1  and  C1_4
REMARK    2  A    between atoms: C2_6  and  C3_7
REMARK    3  A    between atoms: N4_16  and  O3_17
REMARK    4  A    between atoms: C6_19  and  S2_20
REMARK    5  A    between atoms: S2_20  and  C7_21
REMARK    6  A    between atoms: C7_21  and  C8_22
REMARK       I    between atoms: C8_22  and  N5_24
REMARK    7  A    between atoms: N5_24  and  C9_26
REMARK    8  A    between atoms: N6_32  and  N7_33
REMARK       I    between atoms: N7_33  and  C15_35
REMARK    9  A    between atoms: C15_35  and  C16_37
REMARK   10  A    between atoms: C16_37  and  C17_39
REMARK   11  A    between atoms: C17_39  and  O7_40
REMARK   12  A    between atoms: O7_40  and  N8_41
ROOT
HETATM    1  C1  UNL     1     -12.346  -2.347   5.606  1.00  0.00     0.165 A
HETATM    2  S1  UNL     1     -11.786  -1.353   6.872  1.00  0.00    -0.046 SA
HETATM    3  C2  UNL     1     -13.284  -1.290   7.793  1.00  0.00     0.091 A
HETATM    4  C6  UNL     1     -14.084  -2.055   7.033  1.00  0.00     0.117 A
HETATM    5  N6  UNL     1     -13.606  -2.588   5.915  1.00  0.00    -0.223 N
ENDROOT
BRANCH   3   6
HETATM    6  C3  UNL     1     -13.386  -0.450   8.978  1.00  0.00     0.171 A
HETATM    7  N2  UNL     1     -14.111   0.714   8.854  1.00  0.00    -0.279 N
HETATM    8  N3  UNL     1     -14.319   1.517   9.868  1.00  0.00    -0.260 N
ATOM      9  H2  UNL     1     -14.497   0.960   7.942  1.00  0.00     0.189 HD
HETATM   10  C4  UNL     1     -13.833   1.246  11.088  1.00  0.00     0.330 A
ATOM     11  H3  UNL     1     -14.862   2.368   9.726  1.00  0.00     0.190 HD
HETATM   12  O1  UNL     1     -14.046   2.034  12.051  1.00  0.00    -0.260 OA
HETATM   13  C5  UNL     1     -13.112   0.100  11.247  1.00  0.00     0.343 A
HETATM   14  O2  UNL     1     -12.651  -0.175  12.372  1.00  0.00    -0.259 OA
HETATM   15  N4  UNL     1     -12.914  -0.724  10.157  1.00  0.00    -0.163 N
BRANCH  15  16
HETATM   16  O3  UNL     1     -12.236  -1.877  10.456  1.00  0.00    -0.278 OA
ATOM     17  H3  UNL     1     -11.591  -1.944  11.150  1.00  0.00     0.245 HD
ENDBRANCH  15  16
ENDBRANCH   3   6
BRANCH   4  18
HETATM   18  S2  UNL     1     -15.762  -2.362   7.641  1.00  0.00    -0.100 SA
BRANCH  18  19
HETATM   19  C7  UNL     1     -16.790  -0.971   7.817  1.00  0.00     0.184 C
BRANCH  19  20
HETATM   20  C8  UNL     1     -17.494  -0.687   9.066  1.00  0.00     0.231 C
HETATM   21  O4  UNL     1     -18.643  -0.227   9.073  1.00  0.00    -0.272 OA
HETATM   22  N5  UNL     1     -16.878  -0.934  10.316  1.00  0.00    -0.327 N
ATOM     23  H5  UNL     1     -15.933  -1.315  10.266  1.00  0.00     0.169 HD
BRANCH  22  24
HETATM   24  C9  UNL     1     -17.370  -0.735  11.605  1.00  0.00     0.034 A
HETATM   25  C10 UNL     1     -17.192   0.381  12.366  1.00  0.00     0.029 A
HETATM   26  C11 UNL     1     -17.737   0.507  13.652  1.00  0.00     0.002 A
HETATM   27  C12 UNL     1     -18.478  -0.507  14.191  1.00  0.00     0.000 A
HETATM   28  C13 UNL     1     -18.664  -1.631  13.443  1.00  0.00     0.002 A
HETATM   29  C14 UNL     1     -18.142  -1.780  12.181  1.00  0.00     0.029 A
ENDBRANCH  22  24
ENDBRANCH  19  20
ENDBRANCH  18  19
ENDBRANCH   4  18
BRANCH   1  30
HETATM   30  N1  UNL     1     -11.544  -2.695   4.643  1.00  0.00    -0.378 N
ATOM     31  H12 UNL     1     -10.549  -2.588   4.451  1.00  0.00     0.158 HD
ATOM     32  H11 UNL     1     -11.906  -3.191   3.828  1.00  0.00     0.158 HD
ENDBRANCH   1  30
BRANCH   5  33
HETATM   33  N7  UNL     1     -14.450  -3.293   5.026  1.00  0.00    -0.254 N
HETATM   34  C15 UNL     1     -15.576  -2.905   4.344  1.00  0.00     0.308 C
HETATM   35  O5  UNL     1     -16.173  -1.828   4.312  1.00  0.00    -0.263 OA
ATOM     36  H7  UNL     1     -14.173  -4.261   4.864  1.00  0.00     0.191 HD
BRANCH  34  37
HETATM   37  C16 UNL     1     -16.212  -3.958   3.484  1.00  0.00     0.243 C
HETATM   38  O6  UNL     1     -15.580  -4.990   3.270  1.00  0.00    -0.285 OA
BRANCH  37  39
HETATM   39  C17 UNL     1     -17.550  -3.762   2.913  1.00  0.00     0.289 C
BRANCH  39  40
HETATM   40  O7  UNL     1     -17.627  -4.388   1.652  1.00  0.00    -0.279 OA
BRANCH  40  41
HETATM   41  N8  UNL     1     -18.505  -5.420   1.699  1.00  0.00    -0.311 N
ATOM     42  H82 UNL     1     -19.484  -5.328   1.970  1.00  0.00     0.184 HD
ATOM     43  H81 UNL     1     -18.041  -6.286   1.427  1.00  0.00     0.184 HD
ENDBRANCH  40  41
ENDBRANCH  39  40
ENDBRANCH  37  39
ENDBRANCH  34  37
ENDBRANCH   5  33
TORSDOF 12
ENDMDL