MODEL 1
REMARK VINA RESULT: -9.497192195      0.000      0.000
REMARK  11 active torsions:
REMARK  status: ('A' for Active; 'I' for Inactive)
REMARK    1  A    between atoms: C2_2  and  C3_4
REMARK    2  A    between atoms: C4_5  and  C5_6
REMARK    3  A    between atoms: C5_6  and  O2_7
REMARK    4  A    between atoms: C5_6  and  N1_9
REMARK    5  A    between atoms: N1_9  and  N2_11
REMARK       I    between atoms: N2_11  and  C6_13
REMARK    6  A    between atoms: C6_13  and  C7_15
REMARK    7  A    between atoms: C7_15  and  S1_16
REMARK    8  A    between atoms: S1_16  and  C8_17
REMARK    9  A    between atoms: N4_24  and  N5_25
REMARK   10  A    between atoms: C13_28  and  N6_29
REMARK       I    between atoms: N6_29  and  C14_31
REMARK   11  A    between atoms: C14_31  and  C15_33
ROOT
HETATM    1  C3  UNL     1     -15.669  -0.294   9.222  1.00  0.00     0.099 A
HETATM    2  C4  UNL     1     -14.979  -1.037   8.294  1.00  0.00     0.057 A
HETATM    3  C13 UNL     1     -13.635  -0.820   8.233  1.00  0.00     0.106 A
HETATM    4  S2  UNL     1     -13.384   0.371   9.433  1.00  0.00     0.007 SA
HETATM    5  N10 UNL     1     -14.986   0.553   9.969  1.00  0.00    -0.316 N
HETATM    6  C17 UNL     1     -15.367   1.485  11.056  1.00  0.00     0.165 C
ENDROOT
BRANCH   2   7
HETATM    7  C5  UNL     1     -15.571  -2.069   7.335  1.00  0.00     0.272 C
BRANCH   7   8
HETATM    8  O2  UNL     1     -14.889  -3.291   7.565  1.00  0.00    -0.371 OA
ATOM      9  H2  UNL     1     -14.992  -3.820   6.782  1.00  0.00     0.212 HD
ENDBRANCH   7   8
BRANCH   7  10
HETATM   10  N1  UNL     1     -15.329  -1.566   6.004  1.00  0.00    -0.301 N
ATOM     11  H1  UNL     1     -14.843  -0.684   5.846  1.00  0.00     0.183 HD
BRANCH  10  12
HETATM   12  N2  UNL     1     -15.779  -2.327   4.969  1.00  0.00    -0.271 N
HETATM   13  C6  UNL     1     -15.007  -3.288   4.301  1.00  0.00     0.245 C
HETATM   14  O3  UNL     1     -13.829  -3.494   4.659  1.00  0.00    -0.271 OA
ATOM     15  H2  UNL     1     -16.741  -2.189   4.659  1.00  0.00     0.189 HD
BRANCH  13  16
HETATM   16  C7  UNL     1     -15.614  -4.055   3.153  1.00  0.00     0.186 C
BRANCH  16  17
HETATM   17  S1  UNL     1     -17.422  -4.088   3.358  1.00  0.00    -0.083 SA
BRANCH  17  18
HETATM   18  C8  UNL     1     -18.250  -2.919   2.342  1.00  0.00     0.166 A
HETATM   19  N3  UNL     1     -17.701  -1.815   1.821  1.00  0.00    -0.337 N
HETATM   20  C9  UNL     1     -18.671  -1.205   1.123  1.00  0.00     0.031 A
ATOM     21  H3  UNL     1     -16.737  -1.501   1.933  1.00  0.00     0.168 HD
HETATM   22  C10 UNL     1     -18.545   0.070   0.362  1.00  0.00     0.070 C
HETATM   23  C11 UNL     1     -19.816  -1.954   1.230  1.00  0.00     0.054 A
HETATM   24  C12 UNL     1     -21.119  -1.600   0.594  1.00  0.00     0.072 C
HETATM   25  N4  UNL     1     -19.548  -3.024   1.992  1.00  0.00    -0.243 N
BRANCH  25  26
HETATM   26  N5  UNL     1     -20.429  -4.047   2.355  1.00  0.00    -0.336 N
ATOM     27  H52 UNL     1     -20.189  -4.993   2.651  1.00  0.00     0.177 HD
ATOM     28  H51 UNL     1     -21.448  -3.993   2.376  1.00  0.00     0.177 HD
ENDBRANCH  25  26
ENDBRANCH  17  18
ENDBRANCH  16  17
ENDBRANCH  13  16
ENDBRANCH  10  12
ENDBRANCH   7  10
ENDBRANCH   2   7
BRANCH   1  29
HETATM   29  C2  UNL     1     -17.150  -0.415   9.342  1.00  0.00     0.173 C
HETATM   30  C1  UNL     1     -17.836  -1.314  10.285  1.00  0.00     0.098 C
HETATM   31  O1  UNL     1     -17.949   0.256   8.637  1.00  0.00    -0.291 OA
ENDBRANCH   1  29
BRANCH   3  32
HETATM   32  N6  UNL     1     -12.602  -1.380   7.428  1.00  0.00    -0.314 N
HETATM   33  C14 UNL     1     -11.886  -2.499   7.938  1.00  0.00     0.279 C
HETATM   34  O4  UNL     1     -12.197  -2.925   9.079  1.00  0.00    -0.265 OA
ATOM     35  H6  UNL     1     -12.382  -0.990   6.511  1.00  0.00     0.170 HD
BRANCH  33  36
HETATM   36  C15 UNL     1     -10.826  -3.153   7.191  1.00  0.00     0.169 A
HETATM   37  N7  UNL     1      -9.564  -2.752   6.928  1.00  0.00    -0.233 N
HETATM   38  O5  UNL     1      -8.963  -3.670   6.229  1.00  0.00    -0.155 OA
ATOM     39  H7  UNL     1      -9.148  -1.871   7.228  1.00  0.00     0.197 HD
HETATM   40  N8  UNL     1      -9.798  -4.671   6.022  1.00  0.00    -0.224 N
HETATM   41  C16 UNL     1     -10.975  -4.413   6.595  1.00  0.00     0.155 A
ATOM     42  H8  UNL     1      -9.576  -5.519   5.501  1.00  0.00     0.198 HD
HETATM   43  N9  UNL     1     -12.036  -5.124   6.632  1.00  0.00    -0.382 N
ATOM     44  H92 UNL     1     -12.935  -4.927   7.070  1.00  0.00     0.157 HD
ATOM     45  H91 UNL     1     -12.144  -6.042   6.199  1.00  0.00     0.157 HD
ENDBRANCH  33  36
ENDBRANCH   3  32
TORSDOF 11
ENDMDL