MODEL 5
REMARK VINA RESULT: -10.181511755      3.872     10.484
REMARK  11 active torsions:
REMARK  status: ('A' for Active; 'I' for Inactive)
REMARK    1  A    between atoms: N1_1  and  C1_4
REMARK    2  A    between atoms: C2_7  and  O1_8
REMARK    3  A    between atoms: O1_8  and  C3_9
REMARK    4  A    between atoms: N5_16  and  C6_18
REMARK    5  A    between atoms: N7_22  and  C8_23
REMARK    6  A    between atoms: C8_23  and  N8_24
REMARK    7  A    between atoms: N13_39  and  C14_41
REMARK    8  A    between atoms: C14_41  and  C15_42
REMARK    9  A    between atoms: C15_42  and  C16_43
REMARK   10  A    between atoms: C18_45  and  O2_46
REMARK   11  A    between atoms: C20_49  and  O3_50
ROOT
HETATM    1  C3  UNL     1     -14.484  -1.159   7.766  1.00  0.00     0.246 A
HETATM    2  N3  UNL     1     -15.684  -1.426   8.324  1.00  0.00    -0.317 N
ATOM      3  H3  UNL     1     -15.867  -1.098   9.273  1.00  0.00     0.170 HD
HETATM    4  C4  UNL     1     -16.644  -2.106   7.680  1.00  0.00     0.201 A
HETATM    5  N4  UNL     1     -16.362  -2.528   6.421  1.00  0.00    -0.187 N
ATOM      6  H4  UNL     1     -17.070  -3.048   5.903  1.00  0.00     0.185 HD
HETATM    7  C5  UNL     1     -15.183  -2.280   5.842  1.00  0.00     0.700 A
HETATM    8  N5  UNL     1     -14.940  -2.700   4.653  1.00  0.00    -0.021 N
ATOM      9  H5  UNL     1     -14.029  -2.490   4.244  1.00  0.00     0.203 HD
HETATM   10  N11 UNL     1     -14.244  -1.599   6.506  1.00  0.00    -0.154 N
ATOM     11  H11 UNL     1     -13.344  -1.410   6.065  1.00  0.00     0.188 HD
ENDROOT
BRANCH   1  12
HETATM   12  O1  UNL     1     -13.475  -0.464   8.401  1.00  0.00    -0.245 OA
BRANCH  12  13
HETATM   13  C2  UNL     1     -13.423  -0.331   9.778  1.00  0.00     0.260 A
HETATM   14  N2  UNL     1     -12.295  -0.757  10.427  1.00  0.00    -0.154 N
HETATM   15  C1  UNL     1     -12.157  -0.667  11.759  1.00  0.00     0.693 A
ATOM     16  H2  UNL     1     -11.534  -1.157   9.879  1.00  0.00     0.188 HD
HETATM   17  N14 UNL     1     -13.162  -0.140  12.471  1.00  0.00    -0.022 N
HETATM   18  C13 UNL     1     -14.319   0.305  11.879  1.00  0.00     0.695 A
ATOM     19  H14 UNL     1     -13.065  -0.066  13.483  1.00  0.00     0.203 HD
HETATM   20  N12 UNL     1     -14.394   0.187  10.543  1.00  0.00    -0.153 N
HETATM   21  N13 UNL     1     -15.218   0.788  12.610  1.00  0.00    -0.225 N
ATOM     22  H12 UNL     1     -15.244   0.512  10.081  1.00  0.00     0.188 HD
ATOM     23  H13 UNL     1     -14.984   0.802  13.602  1.00  0.00     0.177 HD
BRANCH  15  24
HETATM   24  N1  UNL     1     -11.061  -1.095  12.275  1.00  0.00    -0.234 N
ATOM     25  H12 UNL     1     -10.173  -1.130  11.776  1.00  0.00     0.174 HD
ATOM     26  H11 UNL     1     -11.088  -1.418  13.242  1.00  0.00     0.174 HD
ENDBRANCH  15  24
BRANCH  21  27
HETATM   27  C14 UNL     1     -16.497   1.318  12.314  1.00  0.00     0.142 C
BRANCH  27  28
HETATM   28  C15 UNL     1     -17.446   1.217  13.502  1.00  0.00     0.059 C
BRANCH  28  29
HETATM   29  C16 UNL     1     -18.029  -0.143  13.602  1.00  0.00    -0.051 A
HETATM   30  C17 UNL     1     -18.558  -0.513  14.821  1.00  0.00     0.043 A
HETATM   31  C18 UNL     1     -19.091  -1.783  14.917  1.00  0.00     0.068 A
HETATM   32  C19 UNL     1     -19.110  -2.660  13.860  1.00  0.00     0.073 A
HETATM   33  C20 UNL     1     -18.562  -2.249  12.639  1.00  0.00     0.068 A
HETATM   34  C21 UNL     1     -18.022  -0.985  12.514  1.00  0.00     0.043 A
BRANCH  31  35
HETATM   35  O2  UNL     1     -19.625  -2.158  16.139  1.00  0.00    -0.361 OA
ATOM     36  H2  UNL     1     -19.939  -3.050  16.221  1.00  0.00     0.217 HD
ENDBRANCH  31  35
BRANCH  33  37
HETATM   37  O3  UNL     1     -18.580  -3.132  11.578  1.00  0.00    -0.361 OA
ATOM     38  H3  UNL     1     -17.764  -3.537  11.310  1.00  0.00     0.217 HD
ENDBRANCH  33  37
ENDBRANCH  28  29
ENDBRANCH  27  28
ENDBRANCH  21  27
ENDBRANCH  12  13
ENDBRANCH   1  12
BRANCH   8  39
HETATM   39  C6  UNL     1     -15.865  -3.437   3.884  1.00  0.00     0.712 A
HETATM   40  N6  UNL     1     -15.850  -4.728   3.535  1.00  0.00    -0.184 N
HETATM   41  C7  UNL     1     -16.934  -5.025   2.798  1.00  0.00     0.220 A
ATOM     42  H6  UNL     1     -15.120  -5.393   3.791  1.00  0.00     0.185 HD
HETATM   43  N7  UNL     1     -17.642  -3.873   2.691  1.00  0.00    -0.245 N
HETATM   44  N10 UNL     1     -16.985  -2.938   3.347  1.00  0.00    -0.127 N
ATOM     45  H10 UNL     1     -17.288  -1.969   3.433  1.00  0.00     0.206 HD
BRANCH  43  46
HETATM   46  C8  UNL     1     -18.886  -3.724   1.989  1.00  0.00     0.422 C
BRANCH  46  47
HETATM   47  N8  UNL     1     -19.219  -2.366   1.645  1.00  0.00     0.110 N
HETATM   48  C9  UNL     1     -20.492  -2.246   0.954  1.00  0.00     0.302 C
HETATM   49  C10 UNL     1     -20.781  -0.752   0.881  1.00  0.00     0.262 C
HETATM   50  N9  UNL     1     -19.631   0.041   1.253  1.00  0.00    -0.072 N
HETATM   51  C11 UNL     1     -18.495  -0.382   0.466  1.00  0.00     0.262 C
ATOM     52  H92 UNL     1     -19.808   1.043   1.173  1.00  0.00     0.277 HD
ATOM     53  H91 UNL     1     -19.444   0.009   2.255  1.00  0.00     0.277 HD
HETATM   54  C12 UNL     1     -18.207  -1.849   0.726  1.00  0.00     0.302 C
ENDBRANCH  46  47
ENDBRANCH  43  46
ENDBRANCH   8  39
TORSDOF 11
ENDMDL