MODEL 5
REMARK VINA RESULT: -9.558250412      1.167      1.629
REMARK  15 active torsions:
REMARK  status: ('A' for Active; 'I' for Inactive)
REMARK    1  A    between atoms: O1_2  and  C2_3
REMARK    2  A    between atoms: C2_3  and  C3_5
REMARK    3  A    between atoms: C5_7  and  C6_8
REMARK    4  A    between atoms: C11_16  and  N2_17
REMARK    5  A    between atoms: N2_17  and  C12_19
REMARK    6  A    between atoms: C13_22  and  N4_23
REMARK    7  A    between atoms: N4_23  and  C14_25
REMARK    8  A    between atoms: C14_25  and  N5_26
REMARK    9  A    between atoms: C14_25  and  C15_30
REMARK   10  A    between atoms: C15_30  and  O3_31
REMARK   11  A    between atoms: C15_30  and  C16_33
REMARK   12  A    between atoms: C16_33  and  O4_35
REMARK   13  A    between atoms: N8_42  and  C20_44
REMARK   14  A    between atoms: C20_44  and  C21_45
REMARK   15  A    between atoms: C21_45  and  O5_46
ROOT
HETATM    1  C16 UNL     1      -9.285  -4.913   6.177  1.00  0.00     0.171 C
HETATM    2  C17 UNL     1      -7.816  -4.643   6.400  1.00  0.00     0.065 C
HETATM    3  C18 UNL     1      -9.585  -6.224   6.809  1.00  0.00     0.100 C
HETATM    4  N6  UNL     1      -9.818  -7.236   7.315  1.00  0.00    -0.194 NA
ENDROOT
BRANCH   1   5
HETATM    5  C15 UNL     1     -10.184  -3.912   6.823  1.00  0.00     0.216 C
BRANCH   5   6
HETATM    6  C14 UNL     1     -11.421  -3.601   6.037  1.00  0.00     0.329 C
BRANCH   6   7
HETATM    7  N4  UNL     1     -12.583  -3.529   6.890  1.00  0.00    -0.193 N
ATOM      8  H4  UNL     1     -12.589  -4.088   7.743  1.00  0.00     0.180 HD
BRANCH   7   9
HETATM    9  C13 UNL     1     -13.619  -2.795   6.633  1.00  0.00     0.709 A
HETATM   10  N3  UNL     1     -13.969  -1.738   7.342  1.00  0.00    -0.021 N
HETATM   11  C12 UNL     1     -15.088  -0.991   7.019  1.00  0.00     0.712 A
ATOM     12  H3  UNL     1     -13.402  -1.466   8.144  1.00  0.00     0.203 HD
HETATM   13  N9  UNL     1     -15.795  -1.375   5.971  1.00  0.00    -0.021 N
HETATM   14  C19 UNL     1     -15.459  -2.472   5.209  1.00  0.00     0.707 A
ATOM     15  H9  UNL     1     -16.623  -0.837   5.716  1.00  0.00     0.203 HD
HETATM   16  N7  UNL     1     -14.367  -3.144   5.581  1.00  0.00    -0.021 N
HETATM   17  N8  UNL     1     -16.190  -2.792   4.201  1.00  0.00    -0.223 N
ATOM     18  H7  UNL     1     -14.091  -3.961   5.038  1.00  0.00     0.203 HD
ATOM     19  H8  UNL     1     -17.014  -2.240   3.963  1.00  0.00     0.177 HD
BRANCH  11  20
HETATM   20  N2  UNL     1     -15.335   0.100   7.860  1.00  0.00    -0.183 N
ATOM     21  H2  UNL     1     -15.197   1.032   7.468  1.00  0.00     0.185 HD
BRANCH  20  22
HETATM   22  C11 UNL     1     -15.757   0.022   9.205  1.00  0.00     0.107 A
HETATM   23  C3  UNL     1     -15.205   0.620  10.331  1.00  0.00     0.075 A
HETATM   24  C4  UNL     1     -15.814   0.377  11.499  1.00  0.00     0.040 A
HETATM   25  C5  UNL     1     -16.910  -0.422  11.515  1.00  0.00     0.018 A
HETATM   26  S1  UNL     1     -17.091  -0.833   9.896  1.00  0.00    -0.070 SA
BRANCH  23  27
HETATM   27  C2  UNL     1     -13.999   1.484  10.240  1.00  0.00     0.295 C
HETATM   28  O2  UNL     1     -13.885   2.614  10.695  1.00  0.00    -0.259 OA
BRANCH  27  29
HETATM   29  O1  UNL     1     -12.865   0.985   9.572  1.00  0.00    -0.322 OA
HETATM   30  C1  UNL     1     -12.102  -0.078  10.136  1.00  0.00     0.213 C
ENDBRANCH  27  29
ENDBRANCH  23  27
BRANCH  25  31
HETATM   31  C6  UNL     1     -17.741  -0.830  12.669  1.00  0.00    -0.016 A
HETATM   32  C7  UNL     1     -18.419  -2.006  12.604  1.00  0.00     0.030 A
HETATM   33  C8  UNL     1     -19.193  -2.395  13.668  1.00  0.00     0.088 A
HETATM   34  N1  UNL     1     -19.260  -1.606  14.746  1.00  0.00    -0.375 N
HETATM   35  C9  UNL     1     -18.602  -0.447  14.833  1.00  0.00     0.088 A
ATOM     36  H1  UNL     1     -19.838  -1.902  15.533  1.00  0.00     0.164 HD
HETATM   37  C10 UNL     1     -17.814  -0.032  13.771  1.00  0.00     0.030 A
ENDBRANCH  25  31
ENDBRANCH  20  22
ENDBRANCH  11  20
BRANCH  17  38
HETATM   38  C20 UNL     1     -15.824  -3.947   3.409  1.00  0.00     0.164 C
BRANCH  38  39
HETATM   39  C21 UNL     1     -16.876  -4.192   2.344  1.00  0.00     0.184 C
BRANCH  39  40
HETATM   40  O5  UNL     1     -17.426  -5.454   2.594  1.00  0.00    -0.399 OA
ATOM     41  H5  UNL     1     -17.779  -5.434   3.475  1.00  0.00     0.209 HD
ENDBRANCH  39  40
ENDBRANCH  38  39
ENDBRANCH  17  38
ENDBRANCH   7   9
ENDBRANCH   6   7
BRANCH   6  42
HETATM   42  N5  UNL     1     -11.308  -2.393   5.255  1.00  0.00    -0.055 N
ATOM     43  H53 UNL     1     -11.887  -1.640   5.628  1.00  0.00     0.276 HD
ATOM     44  H52 UNL     1     -10.397  -1.949   5.366  1.00  0.00     0.276 HD
ATOM     45  H51 UNL     1     -11.520  -2.590   4.277  1.00  0.00     0.276 HD
ENDBRANCH   6  42
ENDBRANCH   5   6
BRANCH   5  46
HETATM   46  O3  UNL     1     -10.579  -4.419   8.055  1.00  0.00    -0.388 OA
ATOM     47  H3  UNL     1     -10.911  -3.695   8.575  1.00  0.00     0.210 HD
ENDBRANCH   5  46
ENDBRANCH   1   5
BRANCH   1  48
HETATM   48  O4  UNL     1      -9.531  -5.083   4.823  1.00  0.00    -0.373 OA
ATOM     49  H4  UNL     1      -8.747  -5.038   4.288  1.00  0.00     0.212 HD
ENDBRANCH   1  48
TORSDOF 15
ENDMDL