MODEL 1
REMARK VINA RESULT: -11.684594988      0.000      0.000
REMARK  13 active torsions:
REMARK  status: ('A' for Active; 'I' for Inactive)
REMARK    1  A    between atoms: C2_2  and  C19_41
REMARK    2  A    between atoms: N1_3  and  O1_5
REMARK    3  A    between atoms: O1_5  and  C3_6
REMARK    4  A    between atoms: C3_6  and  C4_7
REMARK    5  A    between atoms: C4_7  and  N2_8
REMARK    6  A    between atoms: N2_8  and  C5_10
REMARK    7  A    between atoms: C6_13  and  C7_14
REMARK       I    between atoms: C7_14  and  N4_16
REMARK    8  A    between atoms: N4_16  and  N5_18
REMARK    9  A    between atoms: C8_20  and  C9_21
REMARK   10  A    between atoms: C10_22  and  O3_23
REMARK   11  A    between atoms: C18_34  and  O6_35
REMARK   12  A    between atoms: N6_37  and  N7_38
REMARK   13  A    between atoms: C20_47  and  N10_48
ROOT
HETATM    1  C5  UNL     1     -17.191  -4.360   2.786  1.00  0.00     0.702 A
HETATM    2  N3  UNL     1     -17.341  -3.610   3.891  1.00  0.00    -0.180 N
ATOM      3  H3  UNL     1     -18.233  -3.387   4.335  1.00  0.00     0.184 HD
HETATM    4  C6  UNL     1     -16.116  -3.191   4.331  1.00  0.00     0.171 A
HETATM    5  C18 UNL     1     -15.214  -3.732   3.429  1.00  0.00     0.212 A
HETATM    6  N6  UNL     1     -15.862  -4.441   2.493  1.00  0.00    -0.068 N
ENDROOT
BRANCH   4   7
HETATM    7  C7  UNL     1     -15.825  -2.355   5.487  1.00  0.00     0.291 C
HETATM    8  O2  UNL     1     -15.102  -1.355   5.332  1.00  0.00    -0.264 OA
HETATM    9  N4  UNL     1     -16.389  -2.729   6.735  1.00  0.00    -0.265 N
ATOM     10  H4  UNL     1     -16.976  -3.560   6.816  1.00  0.00     0.190 HD
BRANCH   9  11
HETATM   11  N5  UNL     1     -16.122  -1.937   7.842  1.00  0.00    -0.308 N
HETATM   12  C8  UNL     1     -16.862  -1.086   8.370  1.00  0.00     0.122 C
ATOM     13  H5  UNL     1     -15.207  -2.067   8.275  1.00  0.00     0.186 HD
BRANCH  12  14
HETATM   14  C9  UNL     1     -16.620  -0.252   9.509  1.00  0.00     0.033 A
HETATM   15  C10 UNL     1     -15.793   0.871   9.396  1.00  0.00     0.154 A
HETATM   16  C11 UNL     1     -15.590   1.649  10.521  1.00  0.00     0.322 A
HETATM   17  O4  UNL     1     -14.831   2.669  10.392  1.00  0.00    -0.257 OA
HETATM   18  O5  UNL     1     -16.134   1.379  11.664  1.00  0.00    -0.273 OA
HETATM   19  C12 UNL     1     -16.923   0.323  11.806  1.00  0.00     0.090 A
HETATM   20  C13 UNL     1     -17.480   0.077  13.048  1.00  0.00     0.038 A
HETATM   21  C17 UNL     1     -17.194  -0.523  10.750  1.00  0.00     0.013 A
HETATM   22  C14 UNL     1     -18.304  -1.010  13.235  1.00  0.00     0.003 A
HETATM   23  C15 UNL     1     -18.590  -1.860  12.210  1.00  0.00     0.001 A
HETATM   24  C16 UNL     1     -18.026  -1.615  10.944  1.00  0.00     0.015 A
BRANCH  15  25
HETATM   25  O3  UNL     1     -15.196   1.195   8.205  1.00  0.00    -0.355 OA
ATOM     26  H3  UNL     1     -14.265   1.377   8.154  1.00  0.00     0.218 HD
ENDBRANCH  15  25
ENDBRANCH  12  14
ENDBRANCH   9  11
ENDBRANCH   4   7
BRANCH   5  27
HETATM   27  O6  UNL     1     -13.830  -3.561   3.493  1.00  0.00    -0.343 OA
ATOM     28  H6  UNL     1     -13.193  -4.200   3.195  1.00  0.00     0.219 HD
ENDBRANCH   5  27
BRANCH   1  29
HETATM   29  N2  UNL     1     -18.093  -4.933   2.070  1.00  0.00    -0.222 N
ATOM     30  H2  UNL     1     -18.158  -5.950   2.058  1.00  0.00     0.177 HD
BRANCH  29  31
HETATM   31  C4  UNL     1     -19.006  -4.155   1.290  1.00  0.00     0.166 C
BRANCH  31  32
HETATM   32  C3  UNL     1     -18.312  -3.407   0.168  1.00  0.00     0.221 C
BRANCH  32  33
HETATM   33  O1  UNL     1     -18.918  -2.127   0.071  1.00  0.00    -0.279 OA
BRANCH  33  34
HETATM   34  N1  UNL     1     -20.177  -1.832   0.106  1.00  0.00    -0.269 N
HETATM   35  C2  UNL     1     -20.849  -0.788   0.149  1.00  0.00     0.060 C
HETATM   36  C1  UNL     1     -22.386  -1.058   0.177  1.00  0.00     0.073 C
ATOM     37  H1  UNL     1     -20.765  -2.665   0.096  1.00  0.00     0.194 HD
BRANCH  35  38
HETATM   38  C19 UNL     1     -20.464   0.606   0.170  1.00  0.00     0.126 A
HETATM   39  N8  UNL     1     -19.438   1.085   0.957  1.00  0.00    -0.236 N
HETATM   40  O7  UNL     1     -19.303   2.343   0.776  1.00  0.00    -0.155 OA
ATOM     41  H8  UNL     1     -18.872   0.519   1.591  1.00  0.00     0.197 HD
HETATM   42  N9  UNL     1     -20.146   2.801  -0.073  1.00  0.00    -0.224 N
HETATM   43  C20 UNL     1     -20.920   1.711  -0.494  1.00  0.00     0.152 A
ATOM     44  H9  UNL     1     -20.236   3.769  -0.382  1.00  0.00     0.198 HD
BRANCH  43  45
HETATM   45  N10 UNL     1     -21.838   1.772  -1.305  1.00  0.00    -0.382 N
ATOM     46 2H10 UNL     1     -22.829   1.732  -1.070  1.00  0.00     0.157 HD
ATOM     47 1H10 UNL     1     -21.769   1.864  -2.318  1.00  0.00     0.157 HD
ENDBRANCH  43  45
ENDBRANCH  35  38
ENDBRANCH  33  34
ENDBRANCH  32  33
ENDBRANCH  31  32
ENDBRANCH  29  31
ENDBRANCH   1  29
BRANCH   6  48
HETATM   48  N7  UNL     1     -15.287  -5.128   1.424  1.00  0.00    -0.322 N
ATOM     49  H72 UNL     1     -15.737  -5.362   0.539  1.00  0.00     0.178 HD
ATOM     50  H71 UNL     1     -14.336  -5.495   1.378  1.00  0.00     0.178 HD
ENDBRANCH   6  48
TORSDOF 13
ENDMDL