MODEL 1
REMARK VINA RESULT: -8.733935469      0.000      0.000
REMARK  12 active torsions:
REMARK  status: ('A' for Active; 'I' for Inactive)
REMARK    1  A    between atoms: C2_2  and  O2_4
REMARK    2  A    between atoms: O2_4  and  N1_5
REMARK    3  A    between atoms: N1_5  and  C3_6
REMARK    4  A    between atoms: C3_6  and  C4_7
REMARK    5  A    between atoms: C3_6  and  C5_10
REMARK    6  A    between atoms: C5_10  and  C6_11
REMARK    7  A    between atoms: C5_10  and  C15_36
REMARK       I    between atoms: C6_11  and  N2_13
REMARK    8  A    between atoms: N2_13  and  C7_15
REMARK    9  A    between atoms: C9_22  and  O6_23
REMARK   10  A    between atoms: O6_23  and  C10_24
REMARK   11  A    between atoms: C12_28  and  N6_29
REMARK   12  A    between atoms: N6_29  and  O7_30
ROOT
HETATM    1  C7  UNL     1     -13.644  -0.624   9.174  1.00  0.00     0.232 A
HETATM    2  N3  UNL     1     -14.885  -0.794   8.687  1.00  0.00    -0.306 N
ATOM      3  H3  UNL     1     -14.996  -1.205   7.761  1.00  0.00     0.171 HD
HETATM    4  C8  UNL     1     -16.005  -0.436   9.385  1.00  0.00     0.139 A
HETATM    5  N4  UNL     1     -17.185  -0.610   8.894  1.00  0.00    -0.383 N
ATOM      6  H41 UNL     1     -18.021  -0.343   9.414  1.00  0.00     0.157 HD
ATOM      7  H42 UNL     1     -17.295  -1.021   7.966  1.00  0.00     0.157 HD
HETATM    8  C9  UNL     1     -15.856   0.118  10.637  1.00  0.00     0.152 A
HETATM    9  C13 UNL     1     -14.569   0.277  11.105  1.00  0.00     0.090 A
HETATM   10  C14 UNL     1     -14.394   0.877  12.458  1.00  0.00     0.080 C
HETATM   11  O9  UNL     1     -13.522  -0.094  10.367  1.00  0.00    -0.281 OA
ENDROOT
BRANCH   1  12
HETATM   12  N2  UNL     1     -12.628  -0.983   8.463  1.00  0.00    -0.292 N
HETATM   13  C6  UNL     1     -12.547  -0.771   7.064  1.00  0.00     0.236 C
HETATM   14  O5  UNL     1     -13.304   0.117   6.587  1.00  0.00    -0.272 OA
ATOM     15  H2  UNL     1     -11.846  -1.442   8.930  1.00  0.00     0.172 HD
BRANCH  13  16
HETATM   16  C5  UNL     1     -11.658  -1.506   6.165  1.00  0.00     0.160 C
BRANCH  16  17
HETATM   17  C3  UNL     1     -11.984  -2.974   6.305  1.00  0.00     0.226 C
BRANCH  17  18
HETATM   18  N1  UNL     1     -13.435  -3.030   6.551  1.00  0.00    -0.074 NA
BRANCH  18  19
HETATM   19  O2  UNL     1     -14.118  -2.945   5.364  1.00  0.00    -0.206 OA
BRANCH  19  20
HETATM   20  C2  UNL     1     -15.455  -2.581   5.293  1.00  0.00     0.273 C
HETATM   21  C1  UNL     1     -16.274  -3.176   4.196  1.00  0.00     0.127 C
HETATM   22  O1  UNL     1     -15.914  -1.789   6.126  1.00  0.00    -0.264 OA
ENDBRANCH  19  20
ENDBRANCH  18  19
ENDBRANCH  17  18
BRANCH  17  23
HETATM   23  C4  UNL     1     -11.600  -3.796   5.162  1.00  0.00     0.196 C
HETATM   24  O3  UNL     1     -11.397  -5.024   5.317  1.00  0.00    -0.647 OA
HETATM   25  O4  UNL     1     -11.449  -3.265   3.898  1.00  0.00    -0.647 OA
ENDBRANCH  17  23
ENDBRANCH  16  17
BRANCH  16  26
HETATM   26  C15 UNL     1     -10.201  -1.251   6.515  1.00  0.00     0.035 A
HETATM   27  C16 UNL     1      -9.641  -0.016   6.413  1.00  0.00     0.081 A
HETATM   28  S1  UNL     1      -8.036  -0.291   6.915  1.00  0.00    -0.039 SA
HETATM   29  C17 UNL     1      -8.160  -1.959   7.228  1.00  0.00     0.288 A
HETATM   30  O10 UNL     1      -7.265  -2.781   7.647  1.00  0.00    -0.260 OA
HETATM   31  N7  UNL     1      -9.428  -2.241   6.936  1.00  0.00    -0.320 N
ATOM     32  H7  UNL     1      -9.792  -3.189   7.032  1.00  0.00     0.169 HD
ENDBRANCH  16  26
ENDBRANCH  13  16
ENDBRANCH   1  12
BRANCH   8  33
HETATM   33  O6  UNL     1     -16.935   0.508  11.410  1.00  0.00    -0.268 OA
BRANCH  33  34
HETATM   34  C10 UNL     1     -17.607  -0.452  12.199  1.00  0.00     0.267 C
HETATM   35  N5  UNL     1     -17.906  -0.257  13.415  1.00  0.00    -0.346 N
HETATM   36  C11 UNL     1     -18.587  -1.381  14.000  1.00  0.00     0.175 C
ATOM     37  H5  UNL     1     -17.688   0.601  13.923  1.00  0.00     0.163 HD
HETATM   38  C12 UNL     1     -18.986  -2.193  12.785  1.00  0.00     0.269 C
HETATM   39  O8  UNL     1     -18.039  -1.696  11.827  1.00  0.00    -0.290 OA
BRANCH  38  40
HETATM   40  N6  UNL     1     -18.709  -3.586  13.082  1.00  0.00    -0.069 NA
BRANCH  40  41
HETATM   41  O7  UNL     1     -18.977  -4.392  12.055  1.00  0.00    -0.294 OA
ATOM     42  H7  UNL     1     -18.570  -5.245  12.145  1.00  0.00     0.238 HD
ENDBRANCH  40  41
ENDBRANCH  38  40
ENDBRANCH  33  34
ENDBRANCH   8  33
TORSDOF 12
ENDMDL