MODEL 2
REMARK VINA RESULT: -10.155477969      1.179      1.250
REMARK  11 active torsions:
REMARK  status: ('A' for Active; 'I' for Inactive)
REMARK    1  A    between atoms: N1_1  and  C1_5
REMARK    2  A    between atoms: C1_5  and  C2_6
REMARK    3  A    between atoms: C2_6  and  N2_7
REMARK    4  A    between atoms: N2_7  and  C3_9
REMARK    5  A    between atoms: C6_18  and  C7_19
REMARK    6  A    between atoms: N6_20  and  N7_22
REMARK    7  A    between atoms: N7_22  and  C8_24
REMARK    8  A    between atoms: C9_27  and  N9_28
REMARK    9  A    between atoms: N9_28  and  C10_30
REMARK   10  A    between atoms: C10_30  and  C11_31
REMARK   11  A    between atoms: C17_41  and  C18_42
ROOT
HETATM    1  C8  UNL     1     -15.269  -1.586   7.963  1.00  0.00     0.699 A
HETATM    2  N8  UNL     1     -16.452  -1.722   8.629  1.00  0.00    -0.173 N
ATOM      3  H8  UNL     1     -16.995  -2.565   8.440  1.00  0.00     0.186 HD
HETATM    4  C9  UNL     1     -16.961  -0.859   9.501  1.00  0.00     0.147 A
HETATM    5  C16 UNL     1     -16.213   0.320   9.773  1.00  0.00     0.113 A
HETATM    6  N11 UNL     1     -16.562   1.268  10.598  1.00  0.00    -0.342 N
ATOM      7  H11 UNL     1     -17.441   1.195  11.110  1.00  0.00     0.167 HD
HETATM    8  C17 UNL     1     -15.787   2.319  10.776  1.00  0.00     0.124 A
HETATM    9  S1  UNL     1     -14.477   1.972   9.723  1.00  0.00    -0.048 SA
HETATM   10  C19 UNL     1     -15.035   0.457   9.112  1.00  0.00     0.123 A
HETATM   11  N16 UNL     1     -14.567  -0.469   8.226  1.00  0.00    -0.181 N
ATOM     12  H16 UNL     1     -13.675  -0.312   7.757  1.00  0.00     0.185 HD
ENDROOT
BRANCH   1  13
HETATM   13  N7  UNL     1     -14.868  -2.465   7.148  1.00  0.00    -0.132 N
ATOM     14  H7  UNL     1     -15.489  -2.736   6.387  1.00  0.00     0.205 HD
BRANCH  13  15
HETATM   15  N6  UNL     1     -13.636  -3.075   7.230  1.00  0.00    -0.297 N
HETATM   16  C7  UNL     1     -12.732  -2.931   6.377  1.00  0.00     0.128 C
ATOM     17  H6  UNL     1     -13.450  -3.680   8.031  1.00  0.00     0.186 HD
BRANCH  16  18
HETATM   18  C6  UNL     1     -11.430  -3.543   6.418  1.00  0.00     0.092 A
HETATM   19  C3  UNL     1     -10.265  -2.841   6.458  1.00  0.00     0.120 A
HETATM   20  N3  UNL     1      -9.097  -3.522   6.519  1.00  0.00    -0.316 N
HETATM   21  C4  UNL     1      -9.057  -4.853   6.538  1.00  0.00     0.196 A
ATOM     22  H3  UNL     1      -8.221  -3.000   6.551  1.00  0.00     0.170 HD
HETATM   23  N4  UNL     1      -7.788  -5.520   6.599  1.00  0.00    -0.063 NA
HETATM   24  N5  UNL     1     -10.197  -5.558   6.498  1.00  0.00    -0.297 N
HETATM   25  C5  UNL     1     -11.357  -4.950   6.439  1.00  0.00     0.263 A
ATOM     26  H5  UNL     1     -10.162  -6.576   6.513  1.00  0.00     0.171 HD
HETATM   27  O1  UNL     1     -12.433  -5.610   6.400  1.00  0.00    -0.267 OA
BRANCH  19  28
HETATM   28  N2  UNL     1     -10.187  -1.437   6.383  1.00  0.00    -0.374 N
ATOM     29  H2  UNL     1     -10.320  -0.964   5.490  1.00  0.00     0.161 HD
BRANCH  28  30
HETATM   30  C2  UNL     1      -9.914  -0.659   7.597  1.00  0.00     0.148 C
BRANCH  30  31
HETATM   31  C1  UNL     1     -11.066  -0.493   8.508  1.00  0.00     0.249 C
BRANCH  31  32
HETATM   32  N1  UNL     1     -11.251  -1.442   9.544  1.00  0.00    -0.078 N
ATOM     33  H13 UNL     1     -11.788  -2.229   9.179  1.00  0.00     0.274 HD
ATOM     34  H12 UNL     1     -10.358  -1.891   9.746  1.00  0.00     0.274 HD
ATOM     35  H11 UNL     1     -11.672  -1.131  10.420  1.00  0.00     0.274 HD
ENDBRANCH  31  32
ENDBRANCH  30  31
ENDBRANCH  28  30
ENDBRANCH  19  28
ENDBRANCH  16  18
ENDBRANCH  13  15
ENDBRANCH   1  13
BRANCH   4  36
HETATM   36  N9  UNL     1     -18.088  -1.012  10.099  1.00  0.00    -0.370 N
ATOM     37  H9  UNL     1     -18.795  -0.297   9.929  1.00  0.00     0.161 HD
BRANCH  36  38
HETATM   38  C10 UNL     1     -18.455  -2.072  10.971  1.00  0.00     0.161 C
BRANCH  38  39
HETATM   39  C11 UNL     1     -18.549  -1.670  12.384  1.00  0.00    -0.025 A
HETATM   40  C12 UNL     1     -18.081  -0.458  12.831  1.00  0.00     0.011 A
HETATM   41  C13 UNL     1     -18.190  -0.107  14.185  1.00  0.00     0.018 A
HETATM   42  C14 UNL     1     -18.772  -0.984  15.077  1.00  0.00     0.087 A
HETATM   43  N10 UNL     1     -19.220  -2.158  14.613  1.00  0.00    -0.375 N
HETATM   44  C15 UNL     1     -19.121  -2.511  13.302  1.00  0.00     0.096 A
ATOM     45  H10 UNL     1     -19.653  -2.812  15.267  1.00  0.00     0.164 HD
ENDBRANCH  38  39
ENDBRANCH  36  38
ENDBRANCH   4  36
BRANCH   8  46
HETATM   46  C18 UNL     1     -15.994   3.483  11.655  1.00  0.00     0.171 A
HETATM   47  N12 UNL     1     -15.043   4.375  11.941  1.00  0.00    -0.266 N
HETATM   48  N13 UNL     1     -15.554   5.283  12.750  1.00  0.00    -0.227 N
ATOM     49  H12 UNL     1     -14.084   4.357  11.594  1.00  0.00     0.190 HD
HETATM   50  N14 UNL     1     -16.815   4.990  12.989  1.00  0.00    -0.227 N
ATOM     51  H13 UNL     1     -15.052   6.085  13.131  1.00  0.00     0.210 HD
HETATM   52  N15 UNL     1     -17.084   3.883  12.314  1.00  0.00    -0.266 N
ATOM     53  H14 UNL     1     -17.461   5.515  13.580  1.00  0.00     0.210 HD
ATOM     54  H15 UNL     1     -17.987   3.409  12.300  1.00  0.00     0.190 HD
ENDBRANCH   8  46
TORSDOF 11
ENDMDL