MODEL 4
REMARK VINA RESULT: -8.861493152      3.545      6.822
REMARK  10 active torsions:
REMARK  status: ('A' for Active; 'I' for Inactive)
REMARK    1  A    between atoms: C2_2  and  N1_3
REMARK    2  A    between atoms: C3_4  and  S1_5
REMARK    3  A    between atoms: S1_5  and  C4_6
REMARK    4  A    between atoms: N2_7  and  C5_9
REMARK    5  A    between atoms: C5_9  and  C6_10
REMARK    6  A    between atoms: C6_10  and  N3_11
REMARK    7  A    between atoms: N3_11  and  C7_13
REMARK    8  A    between atoms: C10_23  and  C11_24
REMARK    9  A    between atoms: C15_35  and  N10_36
REMARK       I    between atoms: N10_36  and  C16_38
REMARK       I    between atoms: C16_38  and  N11_39
REMARK       I    between atoms: C16_38  and  N12_43
REMARK   10  A    between atoms: C17_49  and  N14_50
ROOT
HETATM    1  C11 UNL     1      -9.723  -2.224   6.760  1.00  0.00     0.124 A
HETATM    2  N7  UNL     1      -9.014  -3.357   6.852  1.00  0.00    -0.334 N
ATOM      3  H7  UNL     1      -9.497  -4.249   6.744  1.00  0.00     0.168 HD
HETATM    4  C12 UNL     1      -7.663  -3.363   7.086  1.00  0.00     0.154 A
HETATM    5  C13 UNL     1      -7.024  -2.155   7.228  1.00  0.00     0.124 A
HETATM    6  N8  UNL     1      -7.705  -1.021   7.140  1.00  0.00    -0.335 N
ATOM      7  H8  UNL     1      -7.215  -0.133   7.248  1.00  0.00     0.168 HD
HETATM    8  C14 UNL     1      -9.075  -1.019   6.903  1.00  0.00     0.130 A
HETATM    9  N9  UNL     1      -9.605   0.115   6.843  1.00  0.00    -0.383 N
ATOM     10  H91 UNL     1      -9.125   1.008   6.948  1.00  0.00     0.157 HD
ATOM     11  H92 UNL     1     -10.610   0.117   6.669  1.00  0.00     0.157 HD
HETATM   12  C15 UNL     1      -5.643  -2.180   7.466  1.00  0.00     0.150 A
HETATM   13  N13 UNL     1      -4.996  -3.350   7.547  1.00  0.00    -0.174 N
ATOM     14  H13 UNL     1      -3.991  -3.352   7.721  1.00  0.00     0.186 HD
HETATM   15  C17 UNL     1      -5.632  -4.510   7.406  1.00  0.00     0.681 A
HETATM   16  N15 UNL     1      -6.966  -4.504   7.176  1.00  0.00    -0.170 N
HETATM   17  C18 UNL     1      -7.635  -5.799   7.035  1.00  0.00     0.177 C
ENDROOT
BRANCH   1  18
HETATM   18  C10 UNL     1     -11.169  -2.244   6.505  1.00  0.00     0.155 A
HETATM   19  N1  UNL     1     -12.188  -2.045   7.357  1.00  0.00    -0.310 N
HETATM   20  C3  UNL     1     -13.351  -2.153   6.673  1.00  0.00     0.168 A
HETATM   21  N5  UNL     1     -13.043  -2.419   5.399  1.00  0.00    -0.278 N
HETATM   22  N6  UNL     1     -11.748  -2.472   5.306  1.00  0.00    -0.281 N
ATOM     23  H5  UNL     1     -13.706  -2.556   4.636  1.00  0.00     0.189 HD
ATOM     24  H6  UNL     1     -11.237  -2.660   4.444  1.00  0.00     0.188 HD
BRANCH  19  25
HETATM   25  C2  UNL     1     -12.125  -1.764   8.767  1.00  0.00     0.128 C
HETATM   26  C1  UNL     1     -12.059  -0.281   9.064  1.00  0.00     0.027 C
ENDBRANCH  19  25
BRANCH  20  27
HETATM   27  S1  UNL     1     -15.002  -1.975   7.318  1.00  0.00    -0.048 SA
BRANCH  27  28
HETATM   28  C4  UNL     1     -15.453  -0.251   7.427  1.00  0.00     0.137 C
HETATM   29  N2  UNL     1     -15.617   0.236   8.595  1.00  0.00    -0.392 N
ATOM     30  H2  UNL     1     -15.484  -0.373   9.403  1.00  0.00     0.159 HD
BRANCH  29  31
HETATM   31  C5  UNL     1     -15.979   1.605   8.817  1.00  0.00     0.139 C
BRANCH  31  32
HETATM   32  C6  UNL     1     -15.381   2.067  10.141  1.00  0.00     0.141 C
BRANCH  32  33
HETATM   33  N3  UNL     1     -15.341   0.967  11.092  1.00  0.00    -0.369 N
ATOM     34  H3  UNL     1     -14.516   0.368  11.136  1.00  0.00     0.161 HD
BRANCH  33  35
HETATM   35  C7  UNL     1     -16.429   0.719  11.952  1.00  0.00     0.140 C
HETATM   36  N4  UNL     1     -16.747   1.321  13.013  1.00  0.00    -0.350 N
HETATM   37  C8  UNL     1     -17.877   0.927  13.739  1.00  0.00     0.073 C
ATOM     38  H4  UNL     1     -16.177   2.100  13.344  1.00  0.00     0.167 HD
HETATM   39  C9  UNL     1     -18.238  -0.521  13.481  1.00  0.00     0.127 C
HETATM   40  S2  UNL     1     -17.645  -0.574  11.729  1.00  0.00    -0.089 SA
ENDBRANCH  33  35
ENDBRANCH  32  33
ENDBRANCH  31  32
ENDBRANCH  29  31
ENDBRANCH  27  28
ENDBRANCH  20  27
ENDBRANCH   1  18
BRANCH  12  41
HETATM   41  N10 UNL     1      -5.086  -1.051   7.593  1.00  0.00    -0.325 N
HETATM   42  C16 UNL     1      -4.365  -0.570   8.715  1.00  0.00     0.481 C
HETATM   43  N11 UNL     1      -5.113  -0.490   9.946  1.00  0.00    -0.033 N
HETATM   44  N12 UNL     1      -3.185  -1.383   8.964  1.00  0.00    -0.033 N
ATOM     45 3H11 UNL     1      -5.956   0.068   9.807  1.00  0.00     0.278 HD
ATOM     46 2H11 UNL     1      -5.530  -1.396  10.161  1.00  0.00     0.278 HD
ATOM     47 1H11 UNL     1      -4.595  -0.145  10.753  1.00  0.00     0.278 HD
ATOM     48 3H12 UNL     1      -3.422  -2.370   9.065  1.00  0.00     0.278 HD
ATOM     49 2H12 UNL     1      -2.592  -1.449   8.136  1.00  0.00     0.278 HD
ATOM     50 1H12 UNL     1      -2.666  -1.038   9.772  1.00  0.00     0.278 HD
ATOM     51  H10 UNL     1      -5.165  -0.415   6.800  1.00  0.00     0.165 HD
ENDBRANCH  12  41
BRANCH  15  52
HETATM   52  N14 UNL     1      -4.972  -5.633   7.488  1.00  0.00    -0.234 N
ATOM     53 2H14 UNL     1      -5.325  -6.482   7.046  1.00  0.00     0.174 HD
ATOM     54 1H14 UNL     1      -4.089  -5.672   7.998  1.00  0.00     0.174 HD
ENDBRANCH  15  52
TORSDOF 10
ENDMDL