MODEL 1
REMARK VINA RESULT: -9.543626456      0.000      0.000
REMARK  16 active torsions:
REMARK  status: ('A' for Active; 'I' for Inactive)
REMARK    1  A    between atoms: C2_2  and  O1_5
REMARK    2  A    between atoms: O1_5  and  C5_6
REMARK    3  A    between atoms: C5_6  and  O2_7
REMARK    4  A    between atoms: C5_6  and  N1_9
REMARK    5  A    between atoms: N1_9  and  C6_11
REMARK    6  A    between atoms: C7_14  and  N3_15
REMARK    7  A    between atoms: C9_21  and  C10_22
REMARK    8  A    between atoms: C10_22  and  C11_24
REMARK    9  A    between atoms: C11_24  and  C12_25
REMARK   10  A    between atoms: C13_26  and  O4_27
REMARK   11  A    between atoms: C13_26  and  O5_29
REMARK   12  A    between atoms: O5_29  and  C14_30
REMARK   13  A    between atoms: C15_35  and  N7_36
REMARK   14  A    between atoms: C17_43  and  O7_44
REMARK   15  A    between atoms: C17_43  and  C18_46
REMARK   16  A    between atoms: N10_49  and  O8_51
ROOT
HETATM    1  C18 UNL     1     -11.125  -2.967   5.742  1.00  0.00     0.168 C
HETATM    2  C19 UNL     1      -9.988  -3.218   6.604  1.00  0.00     0.122 C
HETATM    3  N9  UNL     1      -9.044  -3.457   7.285  1.00  0.00    -0.190 NA
HETATM    4  N10 UNL     1     -11.208  -3.704   4.689  1.00  0.00    -0.256 N
ATOM      5  H10 UNL     1     -10.507  -4.437   4.579  1.00  0.00     0.195 HD
ENDROOT
BRANCH   1   6
HETATM    6  C17 UNL     1     -12.067  -1.889   6.002  1.00  0.00     0.119 C
HETATM    7  C11 UNL     1     -13.248  -1.931   6.778  1.00  0.00     0.056 C
BRANCH   7   8
HETATM    8  C10 UNL     1     -13.776  -0.539   7.235  1.00  0.00     0.200 C
HETATM    9  O3  UNL     1     -14.263   0.157   6.367  1.00  0.00    -0.286 OA
BRANCH   8  10
HETATM   10  C9  UNL     1     -13.613  -0.273   8.644  1.00  0.00     0.075 A
HETATM   11  C6  UNL     1     -14.377   0.523   9.462  1.00  0.00     0.136 A
HETATM   12  N2  UNL     1     -14.257   0.708  10.706  1.00  0.00    -0.176 N
HETATM   13  C7  UNL     1     -13.258   0.078  11.456  1.00  0.00     0.677 A
ATOM     14  H2  UNL     1     -14.908   1.337  11.178  1.00  0.00     0.186 HD
HETATM   15  N4  UNL     1     -12.471  -0.723  10.747  1.00  0.00    -0.201 N
HETATM   16  C8  UNL     1     -12.620  -0.895   9.469  1.00  0.00     0.125 A
ATOM     17  H4  UNL     1     -11.721  -1.222  11.225  1.00  0.00     0.183 HD
BRANCH  11  18
HETATM   18  N1  UNL     1     -15.433   1.539   8.610  1.00  0.00    -0.327 N
ATOM     19  H1  UNL     1     -15.301   2.159   7.812  1.00  0.00     0.166 HD
BRANCH  18  20
HETATM   20  C5  UNL     1     -16.558   1.221   9.398  1.00  0.00     0.370 C
BRANCH  20  21
HETATM   21  O1  UNL     1     -17.072   0.257  10.025  1.00  0.00    -0.334 OA
BRANCH  21  22
HETATM   22  C2  UNL     1     -17.819  -0.862   9.692  1.00  0.00     0.055 C
HETATM   23  C1  UNL     1     -19.063  -0.552   8.892  1.00  0.00     0.045 C
HETATM   24  C3  UNL     1     -18.135  -1.680  10.911  1.00  0.00     0.045 C
HETATM   25  C4  UNL     1     -16.970  -1.806   8.794  1.00  0.00     0.045 C
ENDBRANCH  21  22
ENDBRANCH  20  21
BRANCH  20  26
HETATM   26  O2  UNL     1     -17.327   2.382   9.465  1.00  0.00    -0.354 OA
ATOM     27  H2  UNL     1     -16.813   3.173   9.349  1.00  0.00     0.214 HD
ENDBRANCH  20  26
ENDBRANCH  18  20
ENDBRANCH  11  18
BRANCH  13  28
HETATM   28  N3  UNL     1     -13.139   0.364  12.692  1.00  0.00    -0.234 N
ATOM     29  H32 UNL     1     -13.875   0.700  13.313  1.00  0.00     0.174 HD
ATOM     30  H31 UNL     1     -12.246   0.198  13.155  1.00  0.00     0.174 HD
ENDBRANCH  13  28
ENDBRANCH   8  10
ENDBRANCH   7   8
BRANCH   7  31
HETATM   31  C12 UNL     1     -14.467  -2.698   6.475  1.00  0.00     0.082 C
HETATM   32  C13 UNL     1     -14.931  -2.878   5.162  1.00  0.00     0.186 C
BRANCH  32  33
HETATM   33  O4  UNL     1     -15.514  -1.858   4.575  1.00  0.00    -0.341 OA
ATOM     34  H4  UNL     1     -14.957  -1.177   4.216  1.00  0.00     0.220 HD
ENDBRANCH  32  33
BRANCH  32  35
HETATM   35  O5  UNL     1     -14.947  -3.969   4.228  1.00  0.00    -0.264 OA
BRANCH  35  36
HETATM   36  C14 UNL     1     -16.195  -4.007   3.526  1.00  0.00     0.235 A
HETATM   37  N5  UNL     1     -17.425  -3.835   3.814  1.00  0.00    -0.261 N
HETATM   38  N6  UNL     1     -18.428  -3.973   2.900  1.00  0.00    -0.130 N
ATOM     39  H5  UNL     1     -17.670  -3.583   4.771  1.00  0.00     0.190 HD
HETATM   40  C15 UNL     1     -18.131  -4.318   1.569  1.00  0.00     0.693 A
ATOM     41  H6  UNL     1     -19.397  -3.825   3.182  1.00  0.00     0.205 HD
HETATM   42  N8  UNL     1     -16.867  -4.473   1.318  1.00  0.00    -0.151 N
HETATM   43  C16 UNL     1     -15.842  -4.361   2.127  1.00  0.00     0.312 A
ATOM     44  H8  UNL     1     -16.639  -4.716   0.353  1.00  0.00     0.188 HD
HETATM   45  O6  UNL     1     -14.656  -4.493   1.938  1.00  0.00    -0.263 OA
BRANCH  40  46
HETATM   46  N7  UNL     1     -19.044  -4.449   0.737  1.00  0.00    -0.233 N
ATOM     47  H72 UNL     1     -20.030  -4.578   0.965  1.00  0.00     0.174 HD
ATOM     48  H71 UNL     1     -18.836  -4.435  -0.261  1.00  0.00     0.174 HD
ENDBRANCH  40  46
ENDBRANCH  35  36
ENDBRANCH  32  35
ENDBRANCH   7  31
BRANCH   6  49
HETATM   49  O7  UNL     1     -11.698  -0.785   5.402  1.00  0.00    -0.357 OA
ATOM     50  H7  UNL     1     -11.793  -0.689   4.461  1.00  0.00     0.218 HD
ENDBRANCH   6  49
ENDBRANCH   1   6
BRANCH   4  51
HETATM   51  O8  UNL     1     -12.140  -3.596   3.716  1.00  0.00    -0.289 OA
ATOM     52  H8  UNL     1     -12.772  -4.262   3.472  1.00  0.00     0.244 HD
ENDBRANCH   4  51
TORSDOF 16
ENDMDL