MODEL 4
REMARK VINA RESULT: -9.724501262      3.382      9.117
REMARK  11 active torsions:
REMARK  status: ('A' for Active; 'I' for Inactive)
REMARK    1  A    between atoms: N1_1  and  N2_4
REMARK    2  A    between atoms: N2_4  and  C1_6
REMARK    3  A    between atoms: C3_8  and  N3_9
REMARK    4  A    between atoms: C5_13  and  N4_14
REMARK    5  A    between atoms: C6_17  and  N5_18
REMARK       I    between atoms: N5_18  and  C7_20
REMARK    6  A    between atoms: C7_20  and  O6_22
REMARK    7  A    between atoms: O6_22  and  N6_23
REMARK       I    between atoms: N6_23  and  C8_25
REMARK    8  A    between atoms: N8_27  and  N9_29
REMARK       I    between atoms: N9_29  and  C9_31
REMARK    9  A    between atoms: C9_31  and  C10_33
REMARK   10  A    between atoms: C10_33  and  N10_34
REMARK   11  A    between atoms: C11_41  and  C12_42
ROOT
HETATM    1  N6  UNL     1     -15.138  -0.051   6.467  1.00  0.00    -0.227 N
ATOM      2  H6  UNL     1     -15.562  -0.027   5.540  1.00  0.00     0.198 HD
HETATM    3  C8  UNL     1     -14.243  -1.091   6.804  1.00  0.00     0.227 C
HETATM    4  N7  UNL     1     -13.041  -0.818   7.563  1.00  0.00    -0.060 NA
HETATM    5  N8  UNL     1     -14.514  -2.289   6.424  1.00  0.00    -0.269 N
ATOM      6  H8  UNL     1     -13.887  -3.060   6.652  1.00  0.00     0.190 HD
ENDROOT
BRANCH   1   7
HETATM    7  O6  UNL     1     -15.436   0.912   7.365  1.00  0.00    -0.178 OA
BRANCH   7   8
HETATM    8  C7  UNL     1     -16.137   0.718   8.536  1.00  0.00     0.387 C
HETATM    9  N5  UNL     1     -15.735  -0.330   9.406  1.00  0.00    -0.297 N
ATOM     10  H5  UNL     1     -14.945  -0.936   9.184  1.00  0.00     0.171 HD
HETATM   11  O5  UNL     1     -17.103   1.486   8.773  1.00  0.00    -0.236 OA
BRANCH   9  12
HETATM   12  C6  UNL     1     -16.485  -0.490  10.596  1.00  0.00     0.098 A
HETATM   13  C1  UNL     1     -17.710  -1.111  10.580  1.00  0.00     0.079 A
HETATM   14  C2  UNL     1     -18.404  -1.242  11.774  1.00  0.00     0.069 A
HETATM   15  C3  UNL     1     -17.896  -0.767  12.963  1.00  0.00     0.107 A
HETATM   16  C4  UNL     1     -16.664  -0.145  12.960  1.00  0.00     0.074 A
HETATM   17  C5  UNL     1     -15.962  -0.010  11.772  1.00  0.00     0.134 A
BRANCH  13  18
HETATM   18  N2  UNL     1     -18.232  -1.603   9.342  1.00  0.00    -0.305 N
ATOM     19  H2  UNL     1     -17.918  -2.510   9.000  1.00  0.00     0.186 HD
BRANCH  18  20
HETATM   20  N1  UNL     1     -19.161  -0.878   8.585  1.00  0.00    -0.345 N
ATOM     21  H12 UNL     1     -18.837  -0.036   8.110  1.00  0.00     0.176 HD
ATOM     22  H11 UNL     1     -20.135  -1.169   8.500  1.00  0.00     0.176 HD
ENDBRANCH  18  20
ENDBRANCH  13  18
BRANCH  15  23
HETATM   23  N3  UNL     1     -18.635  -0.918  14.169  1.00  0.00    -0.116 N
HETATM   24  O1  UNL     1     -18.378  -0.210  15.141  1.00  0.00    -0.532 OA
HETATM   25  O2  UNL     1     -19.631  -1.864  14.223  1.00  0.00    -0.532 OA
ENDBRANCH  15  23
BRANCH  17  26
HETATM   26  N4  UNL     1     -14.696   0.623  11.741  1.00  0.00    -0.113 N
HETATM   27  O3  UNL     1     -13.691  -0.080  11.952  1.00  0.00    -0.532 OA
HETATM   28  O4  UNL     1     -14.500   1.959  11.495  1.00  0.00    -0.532 OA
ENDBRANCH  17  26
ENDBRANCH   9  12
ENDBRANCH   7   8
ENDBRANCH   1   7
BRANCH   5  29
HETATM   29  N9  UNL     1     -15.678  -2.516   5.696  1.00  0.00    -0.266 N
HETATM   30  C9  UNL     1     -15.597  -3.206   4.447  1.00  0.00     0.256 C
HETATM   31  O7  UNL     1     -14.488  -3.600   4.017  1.00  0.00    -0.270 OA
ATOM     32  H9  UNL     1     -16.579  -2.192   6.049  1.00  0.00     0.190 HD
BRANCH  30  33
HETATM   33  C10 UNL     1     -16.850  -3.437   3.687  1.00  0.00     0.257 C
BRANCH  33  34
HETATM   34  N10 UNL     1     -16.659  -3.754   2.307  1.00  0.00    -0.250 N
HETATM   35  N11 UNL     1     -15.748  -4.660   1.868  1.00  0.00    -0.224 N
HETATM   36  N12 UNL     1     -15.762  -4.763   0.586  1.00  0.00    -0.226 N
ATOM     37  H11 UNL     1     -15.130  -5.193   2.480  1.00  0.00     0.210 HD
HETATM   38  N13 UNL     1     -16.672  -3.936   0.163  1.00  0.00    -0.268 N
ATOM     39  H12 UNL     1     -15.176  -5.371   0.015  1.00  0.00     0.210 HD
HETATM   40  C11 UNL     1     -17.262  -3.279   1.236  1.00  0.00     0.150 A
ATOM     41  H13 UNL     1     -16.918  -3.790  -0.817  1.00  0.00     0.190 HD
BRANCH  40  42
HETATM   42  C12 UNL     1     -18.297  -2.275   1.051  1.00  0.00     0.011 A
HETATM   43  C13 UNL     1     -19.623  -2.725   1.004  1.00  0.00     0.015 A
HETATM   44  C14 UNL     1     -20.698  -1.867   0.849  1.00  0.00     0.001 A
HETATM   45  C15 UNL     1     -20.500  -0.519   0.734  1.00  0.00     0.000 A
HETATM   46  C16 UNL     1     -19.220  -0.046   0.777  1.00  0.00     0.001 A
HETATM   47  C17 UNL     1     -18.135  -0.937   0.936  1.00  0.00     0.015 A
ENDBRANCH  40  42
ENDBRANCH  33  34
ENDBRANCH  30  33
ENDBRANCH   5  29
TORSDOF 11
ENDMDL