MODEL 4
REMARK VINA RESULT: -8.023377591      3.270      4.325
REMARK  6 active torsions:
REMARK  status: ('A' for Active; 'I' for Inactive)
REMARK    1  A    between atoms: C3_3  and  C4_4
REMARK    2  A    between atoms: C4_4  and  C5_5
REMARK    3  A    between atoms: C7_12  and  O2_13
REMARK    4  A    between atoms: C8_15  and  C9_16
REMARK    5  A    between atoms: C12_19  and  N3_20
REMARK    6  A    between atoms: N5_27  and  C15_28
ROOT
HETATM    1  C1  UNL     1      -3.178   4.853  11.443  1.00  0.00     0.044 C
HETATM    2  C2  UNL     1      -2.755   3.648  11.127  1.00  0.00     0.041 A
HETATM    3  C3  UNL     1      -3.328   2.439  11.467  1.00  0.00     0.005 A
HETATM    4  C8  UNL     1      -2.489   1.465  10.888  1.00  0.00     0.004 A
HETATM    5  C14 UNL     1      -1.463   2.111  10.233  1.00  0.00     0.111 A
HETATM    6  N5  UNL     1      -1.619   3.421  10.375  1.00  0.00    -0.321 N
ENDROOT
BRANCH   3   7
HETATM    7  C4  UNL     1      -4.407   2.158  12.156  1.00  0.00     0.048 C
BRANCH   7   8
HETATM    8  C5  UNL     1      -4.655   2.227  13.573  1.00  0.00     0.088 A
HETATM    9  N1  UNL     1      -4.181   1.400  14.549  1.00  0.00    -0.305 N
HETATM   10  C6  UNL     1      -4.622   1.844  15.718  1.00  0.00     0.326 A
ATOM     11  H1  UNL     1      -3.589   0.582  14.404  1.00  0.00     0.171 HD
HETATM   12  O1  UNL     1      -4.378   1.321  16.836  1.00  0.00    -0.247 OA
HETATM   13  N2  UNL     1      -5.375   2.939  15.553  1.00  0.00    -0.287 N
HETATM   14  C7  UNL     1      -5.407   3.190  14.240  1.00  0.00     0.171 A
ATOM     15  H2  UNL     1      -5.836   3.478  16.287  1.00  0.00     0.172 HD
BRANCH  14  16
HETATM   16  O2  UNL     1      -6.090   4.255  13.638  1.00  0.00    -0.344 OA
ATOM     17  H2  UNL     1      -5.728   5.114  13.458  1.00  0.00     0.219 HD
ENDBRANCH  14  16
ENDBRANCH   7   8
ENDBRANCH   3   7
BRANCH   4  18
HETATM   18  C9  UNL     1      -2.674   0.025  10.998  1.00  0.00    -0.008 A
HETATM   19  C10 UNL     1      -1.612  -0.753  10.519  1.00  0.00     0.017 A
HETATM   20  C11 UNL     1      -1.687  -2.142  10.606  1.00  0.00     0.049 A
HETATM   21  C12 UNL     1      -2.802  -2.728  11.161  1.00  0.00     0.098 A
HETATM   22  N4  UNL     1      -3.816  -1.960  11.617  1.00  0.00    -0.352 N
HETATM   23  C13 UNL     1      -3.732  -0.630  11.528  1.00  0.00     0.102 A
ATOM     24  H4  UNL     1      -4.642  -2.395  12.028  1.00  0.00     0.166 HD
BRANCH  21  25
HETATM   25  N3  UNL     1      -2.886  -4.000  11.249  1.00  0.00    -0.385 N
ATOM     26  H32 UNL     1      -3.574  -4.498  10.684  1.00  0.00     0.157 HD
ATOM     27  H31 UNL     1      -2.272  -4.514  11.879  1.00  0.00     0.157 HD
ENDBRANCH  21  25
ENDBRANCH   4  18
BRANCH   6  28
HETATM   28  C15 UNL     1      -0.776   4.465   9.853  1.00  0.00     0.039 A
HETATM   29  C16 UNL     1      -1.041   5.038   8.634  1.00  0.00     0.031 A
HETATM   30  C17 UNL     1      -0.191   6.044   8.178  1.00  0.00     0.021 A
HETATM   31  C18 UNL     1       0.898   6.468   8.923  1.00  0.00     0.011 A
HETATM   32 BR1  UNL     1       2.055   7.850   8.284  1.00  0.00    -0.051 Br
HETATM   33  C19 UNL     1       1.123   5.867  10.132  1.00  0.00     0.021 A
HETATM   34  C20 UNL     1       0.295   4.860  10.619  1.00  0.00     0.031 A
ENDBRANCH   6  28
TORSDOF 6
ENDMDL