MODEL 2
REMARK VINA RESULT: -7.056969119      7.170      9.196
REMARK  7 active torsions:
REMARK  status: ('A' for Active; 'I' for Inactive)
REMARK    1  A    between atoms: C2_2  and  C3_3
REMARK    2  A    between atoms: C3_3  and  N1_4
REMARK    3  A    between atoms: C7_8  and  C8_9
REMARK    4  A    between atoms: C9_10  and  C10_11
REMARK    5  A    between atoms: C13_16  and  N3_17
REMARK    6  A    between atoms: C16_25  and  N5_26
REMARK    7  A    between atoms: C17_31  and  C18_32
ROOT
HETATM    1  C10 UNL     1      -0.953   1.613   9.648  1.00  0.00     0.090 A
HETATM    2  C11 UNL     1      -0.980   0.243   9.705  1.00  0.00     0.070 A
HETATM    3  C12 UNL     1      -1.920  -0.460  10.447  1.00  0.00     0.071 A
HETATM    4  N2  UNL     1      -1.910  -1.823  10.476  1.00  0.00    -0.191 N
ATOM      5  H2  UNL     1      -1.207  -2.341   9.950  1.00  0.00     0.184 HD
HETATM    6  C13 UNL     1      -2.839  -2.487  11.209  1.00  0.00     0.679 A
HETATM    7  N4  UNL     1      -3.743  -1.767  11.884  1.00  0.00    -0.155 N
ATOM      8  H4  UNL     1      -4.440  -2.268  12.434  1.00  0.00     0.187 HD
HETATM    9  C14 UNL     1      -3.787  -0.421  11.881  1.00  0.00     0.275 A
HETATM   10  O1  UNL     1      -4.644   0.226  12.522  1.00  0.00    -0.267 OA
HETATM   11  C15 UNL     1      -2.852   0.279  11.142  1.00  0.00     0.103 A
HETATM   12  C16 UNL     1      -2.826   1.654  11.085  1.00  0.00     0.118 A
HETATM   13  N6  UNL     1      -1.891   2.277  10.349  1.00  0.00    -0.335 N
ATOM     14  H6  UNL     1      -1.891   3.297  10.320  1.00  0.00     0.168 HD
ENDROOT
BRANCH   1  15
HETATM   15  C9  UNL     1       0.051   2.279   8.862  1.00  0.00    -0.048 C
HETATM   16  C8  UNL     1       0.914   2.826   8.200  1.00  0.00    -0.092 C
BRANCH  16  17
HETATM   17  C7  UNL     1       1.947   3.450   7.414  1.00  0.00     0.099 C
HETATM   18  C6  UNL     1       1.608   4.861   6.993  1.00  0.00     0.021 C
HETATM   19  C5  UNL     1       2.722   5.352   6.144  1.00  0.00     0.031 C
HETATM   20  C4  UNL     1       3.927   4.516   6.028  1.00  0.00     0.273 C
HETATM   21  N1  UNL     1       4.278   3.661   7.100  1.00  0.00     0.095 N
HETATM   22  C17 UNL     1       3.265   3.506   8.116  1.00  0.00     0.248 C
BRANCH  21  23
HETATM   23  C3  UNL     1       4.695   2.335   6.709  1.00  0.00     0.272 C
BRANCH  23  24
HETATM   24  C2  UNL     1       4.899   1.402   7.878  1.00  0.00     0.026 C
HETATM   25  C1  UNL     1       3.940   0.233   7.799  1.00  0.00     0.007 C
ENDBRANCH  23  24
ENDBRANCH  21  23
BRANCH  22  26
HETATM   26  C18 UNL     1       3.409   4.592   9.136  1.00  0.00     0.122 C
HETATM   27 BR1  UNL     1       5.243   4.899   9.619  1.00  0.00    -0.094 Br
ENDBRANCH  22  26
ENDBRANCH  16  17
ENDBRANCH   1  15
BRANCH  12  28
HETATM   28  N5  UNL     1      -3.704   2.327  11.742  1.00  0.00    -0.385 N
ATOM     29  H52 UNL     1      -4.689   2.296  11.480  1.00  0.00     0.157 HD
ATOM     30  H51 UNL     1      -3.406   2.898  12.533  1.00  0.00     0.157 HD
ENDBRANCH  12  28
BRANCH   6  31
HETATM   31  N3  UNL     1      -2.811  -3.777  11.223  1.00  0.00    -0.234 N
ATOM     32  H32 UNL     1      -2.288  -4.332  10.545  1.00  0.00     0.174 HD
ATOM     33  H31 UNL     1      -3.335  -4.271  11.946  1.00  0.00     0.174 HD
ENDBRANCH   6  31
TORSDOF 7
ENDMDL