MODEL 4
REMARK VINA RESULT: -7.780507596      1.355      1.937
REMARK  6 active torsions:
REMARK  status: ('A' for Active; 'I' for Inactive)
REMARK    1  A    between atoms: C2_3  and  C3_4
REMARK    2  A    between atoms: C3_4  and  C4_5
REMARK    3  A    between atoms: C5_6  and  O2_7
REMARK    4  A    between atoms: C13_20  and  O3_21
REMARK    5  A    between atoms: N3_23  and  C14_24
REMARK    6  A    between atoms: C14_24  and  C15_25
ROOT
HETATM    1  O1  UNL     1      -4.736   3.098  11.415  1.00  0.00    -0.265 OA
HETATM    2  C1  UNL     1      -4.582   2.602  12.557  1.00  0.00     0.276 A
HETATM    3  C2  UNL     1      -4.576   3.390  13.705  1.00  0.00     0.103 A
HETATM    4  N2  UNL     1      -4.399   2.523  14.699  1.00  0.00    -0.336 N
ATOM      5  H2  UNL     1      -4.345   2.771  15.687  1.00  0.00     0.168 HD
HETATM    6  C12 UNL     1      -4.299   1.267  14.211  1.00  0.00     0.133 A
HETATM    7  C13 UNL     1      -4.151   0.163  14.931  1.00  0.00     0.179 C
HETATM    8  N3  UNL     1      -4.413   1.306  12.847  1.00  0.00    -0.291 N
ENDROOT
BRANCH   3   9
HETATM    9  C3  UNL     1      -4.726   4.725  13.774  1.00  0.00     0.052 C
BRANCH   9  10
HETATM   10  C4  UNL     1      -3.592   5.598  13.577  1.00  0.00     0.030 A
HETATM   11  C5  UNL     1      -2.361   5.496  14.160  1.00  0.00     0.151 A
HETATM   12  N1  UNL     1      -1.569   6.522  13.714  1.00  0.00    -0.336 N
HETATM   13  C6  UNL     1      -2.280   7.285  12.852  1.00  0.00     0.045 A
ATOM     14  H1  UNL     1      -0.600   6.685  13.989  1.00  0.00     0.168 HD
HETATM   15  C7  UNL     1      -1.993   8.418  12.120  1.00  0.00     0.030 A
HETATM   16  C11 UNL     1      -3.533   6.707  12.771  1.00  0.00     0.005 A
HETATM   17  C8  UNL     1      -2.965   8.975  11.306  1.00  0.00     0.002 A
HETATM   18  C9  UNL     1      -4.227   8.416  11.207  1.00  0.00     0.001 A
HETATM   19  C10 UNL     1      -4.465   7.296  11.947  1.00  0.00     0.014 A
BRANCH  11  20
HETATM   20  O2  UNL     1      -1.972   4.512  15.055  1.00  0.00    -0.345 OA
ATOM     21  H2  UNL     1      -1.298   4.604  15.719  1.00  0.00     0.219 HD
ENDBRANCH  11  20
ENDBRANCH   9  10
ENDBRANCH   3   9
BRANCH   8  22
HETATM   22  C14 UNL     1      -4.356   0.133  12.004  1.00  0.00     0.192 C
BRANCH  22  23
HETATM   23  C15 UNL     1      -3.158  -0.080  11.210  1.00  0.00     0.045 A
HETATM   24  N4  UNL     1      -2.452   0.971  10.685  1.00  0.00    -0.367 N
HETATM   25  C16 UNL     1      -1.409   0.531   9.969  1.00  0.00     0.089 A
ATOM     26  H4  UNL     1      -2.687   1.954  10.821  1.00  0.00     0.165 HD
HETATM   27  C17 UNL     1      -1.426  -0.829  10.025  1.00  0.00     0.038 A
HETATM   28  C18 UNL     1      -2.519  -1.210  10.802  1.00  0.00     0.036 A
HETATM   29 BR1  UNL     1      -2.926  -3.054  11.231  1.00  0.00    -0.049 Br
ENDBRANCH  22  23
ENDBRANCH   8  22
BRANCH   7  30
HETATM   30  O3  UNL     1      -4.087   0.309  16.333  1.00  0.00    -0.369 OA
ATOM     31  H3  UNL     1      -4.031  -0.486  16.851  1.00  0.00     0.216 HD
ENDBRANCH   7  30
TORSDOF 6
ENDMDL