MODEL 4
REMARK VINA RESULT: -9.033705168      1.414      1.507
REMARK  5 active torsions:
REMARK  status: ('A' for Active; 'I' for Inactive)
REMARK    1  A    between atoms: C5_5  and  C6_6
REMARK    2  A    between atoms: C6_6  and  O1_7
REMARK    3  A    between atoms: O1_7  and  C7_8
REMARK    4  A    between atoms: C7_8  and  C8_10
REMARK    5  A    between atoms: C14_22  and  N4_23
REMARK       I    between atoms: N4_23  and  C15_25
ROOT
HETATM    1  C1  UNL     1      -7.073   7.885  11.580  1.00  0.00     0.018 C
HETATM    2  C2  UNL     1      -6.394   7.119  12.226  1.00  0.00    -0.078 C
HETATM    3  C3  UNL     1      -5.606   6.194  13.003  1.00  0.00     0.019 A
HETATM    4  C4  UNL     1      -4.228   6.312  13.117  1.00  0.00     0.032 A
HETATM    5  C5  UNL     1      -3.477   5.431  13.858  1.00  0.00    -0.003 A
HETATM    6  C13 UNL     1      -4.145   4.402  14.499  1.00  0.00     0.085 A
HETATM    7  N3  UNL     1      -3.731   3.381  15.290  1.00  0.00    -0.189 N
ATOM      8  H3  UNL     1      -2.764   3.201  15.558  1.00  0.00     0.184 HD
HETATM    9  C14 UNL     1      -4.792   2.636  15.671  1.00  0.00     0.685 A
HETATM   10  N7  UNL     1      -5.884   3.166  15.132  1.00  0.00    -0.189 N
ATOM     11  H7  UNL     1      -6.836   2.817  15.245  1.00  0.00     0.184 HD
HETATM   12  C16 UNL     1      -5.517   4.252  14.408  1.00  0.00     0.078 A
HETATM   13  C17 UNL     1      -6.246   5.155  13.655  1.00  0.00     0.053 A
ENDROOT
BRANCH   5  14
HETATM   14  C6  UNL     1      -2.018   5.500  14.019  1.00  0.00     0.220 C
BRANCH  14  15
HETATM   15  O1  UNL     1      -1.338   4.442  13.406  1.00  0.00    -0.312 OA
BRANCH  15  16
HETATM   16  C7  UNL     1      -1.080   4.513  12.057  1.00  0.00     0.310 C
HETATM   17  O2  UNL     1      -0.915   5.627  11.509  1.00  0.00    -0.258 OA
BRANCH  16  18
HETATM   18  C8  UNL     1      -0.991   3.301  11.218  1.00  0.00     0.110 A
HETATM   19  C9  UNL     1      -1.749   2.158  11.361  1.00  0.00     0.061 A
HETATM   20  C10 UNL     1      -1.383   1.245  10.398  1.00  0.00     0.081 A
HETATM   21  C11 UNL     1      -1.907  -0.086  10.166  1.00  0.00     0.102 C
HETATM   22  C12 UNL     1      -0.387   1.876   9.676  1.00  0.00     0.101 A
HETATM   23  N1  UNL     1      -2.314  -1.155   9.966  1.00  0.00    -0.191 NA
HETATM   24 BR1  UNL     1       0.523   1.101   8.190  1.00  0.00    -0.030 Br
HETATM   25  N2  UNL     1      -0.167   3.103  10.181  1.00  0.00    -0.344 N
ATOM     26  H2  UNL     1       0.516   3.774   9.830  1.00  0.00     0.167 HD
ENDBRANCH  16  18
ENDBRANCH  15  16
ENDBRANCH  14  15
ENDBRANCH   5  14
BRANCH   9  27
HETATM   27  N4  UNL     1      -4.644   1.597  16.437  1.00  0.00    -0.164 N
HETATM   28  C15 UNL     1      -5.666   1.213  17.346  1.00  0.00     0.200 C
HETATM   29  N5  UNL     1      -6.098   2.054  18.215  1.00  0.00    -0.373 N
HETATM   30  N6  UNL     1      -6.179  -0.097  17.260  1.00  0.00    -0.063 NA
ATOM     31  H52 UNL     1      -5.727   3.002  18.277  1.00  0.00     0.158 HD
ATOM     32  H51 UNL     1      -6.831   1.778  18.868  1.00  0.00     0.158 HD
ATOM     33  H4  UNL     1      -3.785   1.051  16.386  1.00  0.00     0.187 HD
ENDBRANCH   9  27
TORSDOF 5
ENDMDL