MODEL 3
REMARK VINA RESULT: -8.477824060      1.085      1.736
REMARK  5 active torsions:
REMARK  status: ('A' for Active; 'I' for Inactive)
REMARK    1  A    between atoms: C2_5  and  N2_6
REMARK    2  A    between atoms: N2_6  and  C3_8
REMARK    3  A    between atoms: C3_8  and  C4_9
REMARK    4  A    between atoms: C9_20  and  N6_21
REMARK    5  A    between atoms: N6_21  and  C10_23
ROOT
HETATM    1  O1  UNL     1      -3.214  -1.613  10.735  1.00  0.00    -0.266 OA
HETATM    2  C1  UNL     1      -2.525  -0.610  10.511  1.00  0.00     0.279 A
HETATM    3  N1  UNL     1      -1.560  -0.592   9.569  1.00  0.00    -0.155 N
ATOM      4  H1  UNL     1      -1.395  -1.437   9.023  1.00  0.00     0.187 HD
HETATM    5  C2  UNL     1      -0.808   0.492   9.320  1.00  0.00     0.682 A
HETATM    6  N4  UNL     1      -1.030   1.619  10.046  1.00  0.00    -0.175 N
ATOM      7  H4  UNL     1      -0.461   2.443   9.857  1.00  0.00     0.186 HD
HETATM    8  C8  UNL     1      -1.969   1.689  11.003  1.00  0.00     0.158 A
HETATM    9  N5  UNL     1      -2.155   2.835  11.704  1.00  0.00    -0.175 N
ATOM     10  H5  UNL     1      -1.579   3.654  11.508  1.00  0.00     0.186 HD
HETATM   11  C9  UNL     1      -3.101   2.892  12.660  1.00  0.00     0.687 A
HETATM   12  N7  UNL     1      -3.845   1.796  12.897  1.00  0.00    -0.155 N
ATOM     13  H7  UNL     1      -4.561   1.843  13.622  1.00  0.00     0.187 HD
HETATM   14  C16 UNL     1      -3.690   0.643  12.223  1.00  0.00     0.279 A
HETATM   15  O2  UNL     1      -4.382  -0.386  12.440  1.00  0.00    -0.266 OA
HETATM   16  C17 UNL     1      -2.720   0.554  11.228  1.00  0.00     0.146 A
ENDROOT
BRANCH   5  17
HETATM   17  N2  UNL     1       0.104   0.464   8.408  1.00  0.00    -0.222 N
ATOM     18  H2  UNL     1       0.154  -0.359   7.807  1.00  0.00     0.178 HD
BRANCH  17  19
HETATM   19  C3  UNL     1       1.049   1.511   8.187  1.00  0.00     0.178 C
BRANCH  19  20
HETATM   20  C4  UNL     1       2.420   1.037   7.961  1.00  0.00    -0.023 A
HETATM   21  C5  UNL     1       3.547   1.820   7.868  1.00  0.00     0.027 A
HETATM   22  C6  UNL     1       4.615   1.005   7.656  1.00  0.00     0.088 A
HETATM   23  N3  UNL     1       4.198  -0.273   7.612  1.00  0.00    -0.375 N
HETATM   24  C7  UNL     1       2.862  -0.260   7.798  1.00  0.00     0.096 A
ATOM     25  H3  UNL     1       4.782  -1.097   7.466  1.00  0.00     0.164 HD
ENDBRANCH  19  20
ENDBRANCH  17  19
ENDBRANCH   5  17
BRANCH  11  26
HETATM   26  N6  UNL     1      -3.278   3.980  13.326  1.00  0.00    -0.192 N
ATOM     27  H6  UNL     1      -2.740   4.140  14.179  1.00  0.00     0.184 HD
BRANCH  26  28
HETATM   28  C10 UNL     1      -4.207   4.958  12.894  1.00  0.00     0.049 A
HETATM   29  C11 UNL     1      -3.963   5.752  11.798  1.00  0.00     0.031 A
HETATM   30  C12 UNL     1      -4.853   6.701  11.372  1.00  0.00     0.021 A
HETATM   31  C13 UNL     1      -6.042   6.894  12.037  1.00  0.00     0.011 A
HETATM   32 BR1  UNL     1      -7.303   8.211  11.466  1.00  0.00    -0.051 Br
HETATM   33  C14 UNL     1      -6.290   6.100  13.137  1.00  0.00     0.021 A
HETATM   34  C15 UNL     1      -5.392   5.146  13.566  1.00  0.00     0.031 A
ENDBRANCH  26  28
ENDBRANCH  11  26
TORSDOF 5
ENDMDL