MODEL 2
REMARK VINA RESULT: -10.085246278      1.319      2.351
REMARK  6 active torsions:
REMARK  status: ('A' for Active; 'I' for Inactive)
REMARK    1  A    between atoms: N1_1  and  C1_4
REMARK    2  A    between atoms: C4_9  and  N3_10
REMARK    3  A    between atoms: C5_17  and  C6_18
REMARK    4  A    between atoms: C6_18  and  O1_19
REMARK    5  A    between atoms: N6_29  and  C14_30
REMARK    6  A    between atoms: C14_30  and  C15_31
ROOT
HETATM    1  C1  UNL     1      -5.919   2.069  17.400  1.00  0.00     0.678 A
HETATM    2  N2  UNL     1      -6.120   3.051  16.504  1.00  0.00    -0.187 N
ATOM      3  H2  UNL     1      -6.661   3.876  16.761  1.00  0.00     0.184 HD
HETATM    4  C2  UNL     1      -5.602   2.941  15.268  1.00  0.00     0.118 A
HETATM    5  C3  UNL     1      -4.880   1.801  14.988  1.00  0.00     0.108 A
HETATM    6  C4  UNL     1      -4.677   0.798  15.910  1.00  0.00     0.144 A
HETATM    7  N4  UNL     1      -5.213   0.954  17.127  1.00  0.00    -0.175 N
ATOM      8  H4  UNL     1      -5.088   0.236  17.840  1.00  0.00     0.186 HD
HETATM    9  N5  UNL     1      -4.345   1.713  13.676  1.00  0.00    -0.350 N
ATOM     10  H5  UNL     1      -3.807   0.877  13.445  1.00  0.00     0.166 HD
HETATM   11  C5  UNL     1      -4.483   2.589  12.766  1.00  0.00     0.074 A
HETATM   12  C21 UNL     1      -5.241   3.797  13.045  1.00  0.00     0.075 A
HETATM   13  C22 UNL     1      -5.772   3.958  14.242  1.00  0.00     0.148 A
HETATM   14  F1  UNL     1      -6.487   5.069  14.543  1.00  0.00    -0.204 F
ENDROOT
BRANCH  11  15
HETATM   15  C6  UNL     1      -3.868   2.350  11.458  1.00  0.00     0.211 A
HETATM   16  C7  UNL     1      -3.427   0.995  11.209  1.00  0.00     0.019 A
HETATM   17  C8  UNL     1      -4.058  -0.262  11.352  1.00  0.00     0.013 A
HETATM   18  C12 UNL     1      -2.146   1.027  10.745  1.00  0.00     0.043 A
HETATM   19  C9  UNL     1      -3.411  -1.414  11.038  1.00  0.00     0.001 A
HETATM   20  C10 UNL     1      -2.110  -1.368  10.567  1.00  0.00     0.001 A
HETATM   21  C11 UNL     1      -1.460  -0.162  10.413  1.00  0.00     0.018 A
HETATM   22  C13 UNL     1      -1.716   2.419  10.688  1.00  0.00     0.257 A
HETATM   23  O2  UNL     1      -0.564   2.810  10.297  1.00  0.00    -0.267 OA
HETATM   24  N6  UNL     1      -2.793   3.210  11.138  1.00  0.00    -0.302 N
BRANCH  15  25
HETATM   25  O1  UNL     1      -4.866   2.619  10.475  1.00  0.00    -0.361 OA
ATOM     26  H1  UNL     1      -5.574   2.003  10.625  1.00  0.00     0.213 HD
ENDBRANCH  15  25
BRANCH  24  27
HETATM   27  C14 UNL     1      -2.702   4.673  11.219  1.00  0.00     0.168 C
BRANCH  27  28
HETATM   28  C15 UNL     1      -3.341   5.285  10.031  1.00  0.00    -0.040 A
HETATM   29  C16 UNL     1      -2.892   5.094   8.738  1.00  0.00     0.009 A
HETATM   30  C17 UNL     1      -3.519   5.687   7.659  1.00  0.00     0.001 A
HETATM   31  C18 UNL     1      -4.617   6.487   7.865  1.00  0.00     0.000 A
HETATM   32  C19 UNL     1      -5.079   6.690   9.136  1.00  0.00     0.001 A
HETATM   33  C20 UNL     1      -4.451   6.098  10.204  1.00  0.00     0.009 A
ENDBRANCH  27  28
ENDBRANCH  24  27
ENDBRANCH  11  15
BRANCH   6  34
HETATM   34  N3  UNL     1      -4.005  -0.260  15.645  1.00  0.00    -0.383 N
ATOM     35  H32 UNL     1      -3.458  -0.308  14.786  1.00  0.00     0.157 HD
ATOM     36  H31 UNL     1      -3.989  -1.072  16.262  1.00  0.00     0.157 HD
ENDBRANCH   6  34
BRANCH   1  37
HETATM   37  N1  UNL     1      -6.431   2.193  18.597  1.00  0.00    -0.234 N
ATOM     38  H12 UNL     1      -7.378   1.847  18.751  1.00  0.00     0.174 HD
ATOM     39  H11 UNL     1      -5.869   2.629  19.329  1.00  0.00     0.174 HD
ENDBRANCH   1  37
TORSDOF 6
ENDMDL