MODEL 5
REMARK VINA RESULT: -8.189239339      1.047      1.063
REMARK  5 active torsions:
REMARK  status: ('A' for Active; 'I' for Inactive)
REMARK    1  A    between atoms: N1_2  and  C2_4
REMARK    2  A    between atoms: C3_7  and  N3_8
REMARK    3  A    between atoms: N3_8  and  C4_10
REMARK    4  A    between atoms: C10_19  and  N5_20
REMARK    5  A    between atoms: N5_20  and  C11_22
ROOT
HETATM    1  C2  UNL     1      -1.535   5.871  11.692  1.00  0.00     0.706 A
HETATM    2  N2  UNL     1      -1.841   5.596  12.974  1.00  0.00    -0.021 N
ATOM      3  H2  UNL     1      -1.771   6.341  13.667  1.00  0.00     0.203 HD
HETATM    4  C3  UNL     1      -2.235   4.376  13.373  1.00  0.00     0.711 A
HETATM    5  N4  UNL     1      -2.321   3.409  12.443  1.00  0.00    -0.021 N
ATOM      6  H4  UNL     1      -2.619   2.475  12.725  1.00  0.00     0.203 HD
HETATM    7  C10 UNL     1      -2.024   3.640  11.149  1.00  0.00     0.711 A
HETATM    8  N8  UNL     1      -1.630   4.885  10.785  1.00  0.00    -0.021 N
ATOM      9  H8  UNL     1      -1.404   5.075   9.808  1.00  0.00     0.203 HD
ENDROOT
BRANCH   7  10
HETATM   10  N5  UNL     1      -2.124   2.684  10.314  1.00  0.00    -0.191 N
ATOM     11  H5  UNL     1      -1.882   2.883   9.344  1.00  0.00     0.184 HD
BRANCH  10  12
HETATM   12  C11 UNL     1      -2.541   1.377  10.617  1.00  0.00     0.051 A
HETATM   13  C12 UNL     1      -3.831   1.160  11.029  1.00  0.00     0.031 A
HETATM   14  C13 UNL     1      -4.290  -0.116  11.341  1.00  0.00     0.017 A
HETATM   15  C14 UNL     1      -3.422  -1.174  11.231  1.00  0.00     0.009 A
HETATM   16  C15 UNL     1      -3.585  -2.525  11.466  1.00  0.00     0.120 A
HETATM   17  C16 UNL     1      -2.134  -0.933  10.817  1.00  0.00     0.061 A
HETATM   18  N6  UNL     1      -2.388  -3.076  11.188  1.00  0.00    -0.311 N
HETATM   19  N7  UNL     1      -1.532  -2.147  10.807  1.00  0.00    -0.300 N
ATOM     20  H6  UNL     1      -2.173  -4.070  11.262  1.00  0.00     0.186 HD
ATOM     21  H7  UNL     1      -0.561  -2.318  10.544  1.00  0.00     0.187 HD
HETATM   22  C17 UNL     1      -1.656   0.336  10.501  1.00  0.00     0.061 A
ENDBRANCH  10  12
ENDBRANCH   7  10
BRANCH   4  23
HETATM   23  N3  UNL     1      -2.532   4.111  14.623  1.00  0.00    -0.191 N
ATOM     24  H3  UNL     1      -1.797   4.063  15.327  1.00  0.00     0.184 HD
BRANCH  23  25
HETATM   25  C4  UNL     1      -3.885   3.894  14.985  1.00  0.00     0.050 A
HETATM   26  C5  UNL     1      -4.899   4.757  14.656  1.00  0.00     0.030 A
HETATM   27  C6  UNL     1      -6.189   4.471  15.047  1.00  0.00     0.004 A
HETATM   28  C7  UNL     1      -6.490   3.321  15.772  1.00  0.00     0.019 A
HETATM   29  C8  UNL     1      -5.472   2.450  16.106  1.00  0.00     0.013 A
HETATM   30 BR1  UNL     1      -5.790   0.854  17.096  1.00  0.00    -0.051 Br
HETATM   31  C9  UNL     1      -4.184   2.741  15.713  1.00  0.00     0.049 A
ENDBRANCH  23  25
ENDBRANCH   4  23
BRANCH   1  32
HETATM   32  N1  UNL     1      -1.157   7.042  11.303  1.00  0.00    -0.229 N
HETATM   33  C1  UNL     1      -0.456   7.872  12.263  1.00  0.00     0.165 C
ATOM     34  H1  UNL     1      -1.344   7.371  10.356  1.00  0.00     0.177 HD
ENDBRANCH   1  32
TORSDOF 5
ENDMDL