MODEL 5
REMARK VINA RESULT: -8.469066385      4.023      5.689
REMARK  3 active torsions:
REMARK  status: ('A' for Active; 'I' for Inactive)
REMARK    1  A    between atoms: C2_5  and  C3_6
REMARK    2  A    between atoms: C3_6  and  C4_7
REMARK    3  A    between atoms: C8_14  and  O2_15
ROOT
HETATM    1  O1  UNL     1      -7.040   5.981  13.471  1.00  0.00    -0.266 OA
HETATM    2  C1  UNL     1      -5.951   5.409  13.700  1.00  0.00     0.272 A
HETATM    3  N1  UNL     1      -4.700   5.798  13.189  1.00  0.00    -0.328 N
ATOM      4  H1  UNL     1      -4.706   6.618  12.583  1.00  0.00     0.168 HD
HETATM    5  C2  UNL     1      -3.565   5.262  13.382  1.00  0.00    -0.002 A
HETATM    6  C10 UNL     1      -3.467   4.050  14.259  1.00  0.00     0.095 A
HETATM    7  C11 UNL     1      -4.766   3.619  14.810  1.00  0.00    -0.002 A
HETATM    8  C12 UNL     1      -5.964   4.235  14.570  1.00  0.00     0.109 A
HETATM    9  N4  UNL     1      -6.940   3.577  15.232  1.00  0.00    -0.346 N
ATOM     10  H4  UNL     1      -7.930   3.818  15.231  1.00  0.00     0.166 HD
HETATM   11  C13 UNL     1      -6.379   2.552  15.888  1.00  0.00     0.118 A
HETATM   12  C14 UNL     1      -5.026   2.536  15.657  1.00  0.00     0.073 A
HETATM   13  C15 UNL     1      -4.415   1.425  16.369  1.00  0.00     0.261 A
HETATM   14  O3  UNL     1      -3.203   1.133  16.367  1.00  0.00    -0.267 OA
HETATM   15  N5  UNL     1      -5.486   0.754  17.057  1.00  0.00    -0.288 N
ATOM     16  H5  UNL     1      -5.386  -0.070  17.650  1.00  0.00     0.172 HD
HETATM   17  C16 UNL     1      -6.722   1.436  16.774  1.00  0.00     0.276 A
HETATM   18  O4  UNL     1      -7.861   1.127  17.207  1.00  0.00    -0.266 OA
ENDROOT
BRANCH   5  19
HETATM   19  C3  UNL     1      -2.290   5.744  12.798  1.00  0.00     0.095 C
BRANCH  19  20
HETATM   20  C4  UNL     1      -1.817   4.989  11.652  1.00  0.00    -0.008 A
HETATM   21  C5  UNL     1      -2.423   4.366  10.615  1.00  0.00     0.098 A
HETATM   22  N2  UNL     1      -1.478   3.796   9.795  1.00  0.00    -0.362 N
HETATM   23  C6  UNL     1      -0.276   4.061  10.313  1.00  0.00     0.081 A
ATOM     24  H2  UNL     1      -1.662   3.266   8.943  1.00  0.00     0.165 HD
HETATM   25  C7  UNL     1       1.082   3.850  10.093  1.00  0.00     0.090 A
HETATM   26  C9  UNL     1      -0.435   4.794  11.459  1.00  0.00     0.070 A
HETATM   27 BR1  UNL     1       1.814   2.884   8.625  1.00  0.00    -0.044 Br
HETATM   28  C8  UNL     1       1.732   4.477  11.135  1.00  0.00     0.160 A
HETATM   29  N3  UNL     1       0.800   5.027  11.930  1.00  0.00    -0.334 N
ATOM     30  H3  UNL     1       1.004   5.553  12.779  1.00  0.00     0.168 HD
BRANCH  28  31
HETATM   31  O2  UNL     1       3.108   4.496  11.281  1.00  0.00    -0.345 OA
ATOM     32  H2  UNL     1       3.551   4.362  12.110  1.00  0.00     0.219 HD
ENDBRANCH  28  31
ENDBRANCH  19  20
ENDBRANCH   5  19
TORSDOF 3
ENDMDL