MODEL 5
REMARK VINA RESULT: -8.098079516      3.284      4.357
REMARK  4 active torsions:
REMARK  status: ('A' for Active; 'I' for Inactive)
REMARK    1  A    between atoms: C2_5  and  N2_6
REMARK    2  A    between atoms: N2_6  and  C3_8
REMARK    3  A    between atoms: C6_16  and  C7_17
REMARK    4  A    between atoms: C8_18  and  C9_19
ROOT
HETATM    1  O1  UNL     1       0.083   3.937   7.737  1.00  0.00    -0.247 OA
HETATM    2  C1  UNL     1      -0.595   3.753   8.764  1.00  0.00     0.328 A
HETATM    3  N1  UNL     1      -1.259   4.772   9.326  1.00  0.00    -0.293 N
ATOM      4  H1  UNL     1      -1.221   5.709   8.925  1.00  0.00     0.172 HD
HETATM    5  C2  UNL     1      -1.988   4.516  10.453  1.00  0.00     0.126 A
HETATM    6  C6  UNL     1      -2.061   3.268  11.019  1.00  0.00     0.076 A
HETATM    7  C16 UNL     1      -1.337   2.236  10.375  1.00  0.00     0.263 A
HETATM    8  O3  UNL     1      -1.396   1.082  10.886  1.00  0.00    -0.267 OA
HETATM    9  N6  UNL     1      -0.646   2.519   9.293  1.00  0.00    -0.275 N
ATOM     10  H6  UNL     1      -0.127   1.770   8.834  1.00  0.00     0.173 HD
ENDROOT
BRANCH   6  11
HETATM   11  C7  UNL     1      -2.799   2.959  12.214  1.00  0.00     0.023 C
HETATM   12  C8  UNL     1      -4.067   2.957  12.471  1.00  0.00     0.030 C
BRANCH  12  13
HETATM   13  C9  UNL     1      -4.572   2.587  13.827  1.00  0.00     0.034 A
HETATM   14  C10 UNL     1      -5.567   3.253  14.510  1.00  0.00     0.041 A
HETATM   15  C11 UNL     1      -5.716   2.579  15.714  1.00  0.00    -0.005 A
HETATM   16  C12 UNL     1      -4.824   1.532  15.744  1.00  0.00     0.149 A
HETATM   17  C15 UNL     1      -6.645   2.858  16.839  1.00  0.00     0.045 C
HETATM   18  N5  UNL     1      -4.144   1.563  14.586  1.00  0.00    -0.337 N
HETATM   19  O2  UNL     1      -4.781   0.695  16.866  1.00  0.00    -0.335 OA
ATOM     20  H5  UNL     1      -3.410   0.906  14.321  1.00  0.00     0.168 HD
HETATM   21  C13 UNL     1      -5.971   0.580  17.621  1.00  0.00     0.178 C
HETATM   22  C14 UNL     1      -6.382   1.977  18.025  1.00  0.00     0.031 C
ENDBRANCH  12  13
ENDBRANCH   6  11
BRANCH   5  23
HETATM   23  N2  UNL     1      -2.695   5.634  11.012  1.00  0.00    -0.327 N
ATOM     24  H2  UNL     1      -3.629   5.864  10.674  1.00  0.00     0.169 HD
BRANCH  23  25
HETATM   25  C3  UNL     1      -2.148   6.359  11.949  1.00  0.00     0.124 A
HETATM   26  C4  UNL     1      -2.692   6.955  13.043  1.00  0.00     0.088 A
HETATM   27  C5  UNL     1      -1.684   7.620  13.733  1.00  0.00     0.098 A
HETATM   28 BR1  UNL     1      -1.852   8.637  15.348  1.00  0.00    -0.030 Br
HETATM   29  N3  UNL     1      -0.569   7.398  13.027  1.00  0.00    -0.292 N
HETATM   30  N4  UNL     1      -0.836   6.657  11.977  1.00  0.00    -0.284 N
ATOM     31  H3  UNL     1       0.355   7.753  13.270  1.00  0.00     0.187 HD
ATOM     32  H4  UNL     1      -0.151   6.353  11.285  1.00  0.00     0.188 HD
ENDBRANCH  23  25
ENDBRANCH   5  23
TORSDOF 4
ENDMDL