MODEL 3
REMARK VINA RESULT: -8.915784031      5.132      8.437
REMARK  7 active torsions:
REMARK  status: ('A' for Active; 'I' for Inactive)
REMARK    1  A    between atoms: N1_2  and  C2_4
REMARK    2  A    between atoms: C3_7  and  N3_8
REMARK    3  A    between atoms: N3_8  and  C4_10
REMARK    4  A    between atoms: C10_19  and  N5_20
REMARK    5  A    between atoms: N5_20  and  C11_22
REMARK    6  A    between atoms: C14_25  and  C15_26
REMARK       I    between atoms: C15_26  and  N6_28
REMARK    7  A    between atoms: N6_28  and  C16_30
ROOT
HETATM    1  C2  UNL     1      -4.213   1.933  11.569  1.00  0.00     0.706 A
HETATM    2  N2  UNL     1      -4.337   2.115  12.892  1.00  0.00    -0.021 N
ATOM      3  H2  UNL     1      -4.955   1.503  13.425  1.00  0.00     0.203 HD
HETATM    4  C3  UNL     1      -3.653   3.102  13.541  1.00  0.00     0.711 A
HETATM    5  N4  UNL     1      -2.843   3.897  12.808  1.00  0.00    -0.021 N
ATOM      6  H4  UNL     1      -2.320   4.642  13.268  1.00  0.00     0.203 HD
HETATM    7  C10 UNL     1      -2.715   3.719  11.488  1.00  0.00     0.711 A
HETATM    8  N9  UNL     1      -3.399   2.741  10.869  1.00  0.00    -0.021 N
ATOM      9  H9  UNL     1      -3.300   2.610   9.863  1.00  0.00     0.203 HD
ENDROOT
BRANCH   7  10
HETATM   10  N5  UNL     1      -1.933   4.492  10.807  1.00  0.00    -0.191 N
ATOM     11  H5  UNL     1      -2.171   5.480  10.721  1.00  0.00     0.184 HD
BRANCH  10  12
HETATM   12  C11 UNL     1      -0.753   4.014  10.175  1.00  0.00     0.049 A
HETATM   13  C12 UNL     1       0.503   4.223  10.708  1.00  0.00     0.031 A
HETATM   14  C13 UNL     1       1.648   3.759  10.095  1.00  0.00     0.019 A
HETATM   15  C14 UNL     1       1.586   3.057   8.909  1.00  0.00     0.032 A
HETATM   16  C19 UNL     1       0.332   2.845   8.373  1.00  0.00     0.019 A
HETATM   17  C20 UNL     1      -0.816   3.311   8.989  1.00  0.00     0.031 A
BRANCH  15  18
HETATM   18  C15 UNL     1       2.793   2.565   8.256  1.00  0.00     0.257 C
HETATM   19  O1  UNL     1       3.928   3.003   8.573  1.00  0.00    -0.267 OA
HETATM   20  N6  UNL     1       2.727   1.575   7.245  1.00  0.00    -0.308 N
ATOM     21  H6  UNL     1       2.544   1.851   6.281  1.00  0.00     0.170 HD
BRANCH  20  22
HETATM   22  C16 UNL     1       2.893   0.350   7.525  1.00  0.00     0.123 A
HETATM   23  C17 UNL     1       2.003  -0.487   8.139  1.00  0.00     0.068 A
HETATM   24  C18 UNL     1       2.605  -1.721   8.239  1.00  0.00     0.111 A
HETATM   25  N7  UNL     1       3.848  -1.622   7.689  1.00  0.00    -0.310 N
HETATM   26  N8  UNL     1       3.994  -0.368   7.270  1.00  0.00    -0.286 N
ATOM     27  H7  UNL     1       4.538  -2.370   7.613  1.00  0.00     0.186 HD
ATOM     28  H8  UNL     1       4.832  -0.004   6.816  1.00  0.00     0.188 HD
ENDBRANCH  20  22
ENDBRANCH  15  18
ENDBRANCH  10  12
ENDBRANCH   7  10
BRANCH   4  29
HETATM   29  N3  UNL     1      -3.757   3.295  14.811  1.00  0.00    -0.191 N
ATOM     30  H3  UNL     1      -3.122   3.947  15.274  1.00  0.00     0.184 HD
BRANCH  29  31
HETATM   31  C4  UNL     1      -4.735   2.618  15.575  1.00  0.00     0.049 A
HETATM   32  C5  UNL     1      -5.954   3.223  15.759  1.00  0.00     0.033 A
HETATM   33  C6  UNL     1      -6.958   2.618  16.495  1.00  0.00     0.044 A
HETATM   34  C7  UNL     1      -6.756   1.379  17.067  1.00  0.00     0.116 A
HETATM   35  F1  UNL     1      -7.755   0.803  17.786  1.00  0.00    -0.206 F
HETATM   36  C8  UNL     1      -5.530   0.785  16.875  1.00  0.00     0.044 A
HETATM   37  C9  UNL     1      -4.526   1.381  16.142  1.00  0.00     0.033 A
ENDBRANCH  29  31
ENDBRANCH   4  29
BRANCH   1  38
HETATM   38  N1  UNL     1      -4.857   1.012  10.985  1.00  0.00    -0.229 N
HETATM   39  C1  UNL     1      -4.404  -0.361  10.878  1.00  0.00     0.165 C
ATOM     40  H1  UNL     1      -5.753   1.252  10.562  1.00  0.00     0.177 HD
ENDBRANCH   1  38
TORSDOF 7
ENDMDL