MODEL 4
REMARK VINA RESULT: -8.706281937      2.091      4.055
REMARK  13 active torsions:
REMARK  status: ('A' for Active; 'I' for Inactive)
REMARK    1  A    between atoms: C4_4  and  O1_5
REMARK    2  A    between atoms: O1_5  and  C5_6
REMARK       I    between atoms: C5_6  and  N1_8
REMARK    3  A    between atoms: N1_8  and  C6_10
REMARK    4  A    between atoms: C6_10  and  C7_11
REMARK    5  A    between atoms: C7_11  and  N2_12
REMARK    6  A    between atoms: N2_12  and  C8_15
REMARK    7  A    between atoms: C8_15  and  C9_16
REMARK    8  A    between atoms: C9_16  and  C10_17
REMARK    9  A    between atoms: C10_17  and  C11_18
REMARK   10  A    between atoms: C13_25  and  N5_26
REMARK   11  A    between atoms: N5_26  and  N6_28
REMARK   12  A    between atoms: N6_28  and  O4_30
REMARK   13  A    between atoms: O4_30  and  N7_31
REMARK       I    between atoms: N7_31  and  C14_33
ROOT
HETATM    1  C11 UNL     1      26.847 -14.919  10.799  1.00  0.00     0.059 A
HETATM    2  N3  UNL     1      27.767 -15.370   9.894  1.00  0.00    -0.300 N
ATOM      3  H3  UNL     1      28.588 -15.932  10.119  1.00  0.00     0.186 HD
HETATM    4  N4  UNL     1      27.426 -14.959   8.669  1.00  0.00    -0.264 N
ATOM      5  H4  UNL     1      27.951 -15.162   7.818  1.00  0.00     0.190 HD
HETATM    6  C12 UNL     1      26.294 -14.242   8.717  1.00  0.00     0.290 A
HETATM    7  O3  UNL     1      25.694 -13.711   7.764  1.00  0.00    -0.264 OA
HETATM    8  C13 UNL     1      25.934 -14.217  10.040  1.00  0.00     0.143 A
ENDROOT
BRANCH   1   9
HETATM    9  C10 UNL     1      26.857 -15.138  12.260  1.00  0.00     0.063 C
BRANCH   9  10
HETATM   10  C9  UNL     1      28.163 -14.579  12.840  1.00  0.00     0.033 C
BRANCH  10  11
HETATM   11  C8  UNL     1      28.718 -15.672  13.710  1.00  0.00     0.232 C
BRANCH  11  12
HETATM   12  N2  UNL     1      30.078 -16.015  13.253  1.00  0.00    -0.074 N
ATOM     13  H22 UNL     1      30.792 -15.477  13.745  1.00  0.00     0.277 HD
ATOM     14  H21 UNL     1      30.260 -15.677  12.308  1.00  0.00     0.277 HD
BRANCH  12  15
HETATM   15  C7  UNL     1      30.296 -17.409  13.367  1.00  0.00     0.252 C
BRANCH  15  16
HETATM   16  C6  UNL     1      29.086 -18.218  13.615  1.00  0.00     0.152 C
BRANCH  16  17
HETATM   17  N1  UNL     1      29.280 -19.416  14.346  1.00  0.00    -0.335 N
HETATM   18  C5  UNL     1      28.691 -20.660  14.175  1.00  0.00     0.365 C
HETATM   19  O2  UNL     1      27.869 -20.930  13.296  1.00  0.00    -0.238 OA
ATOM     20  H1  UNL     1      29.951 -19.354  15.112  1.00  0.00     0.164 HD
BRANCH  18  21
HETATM   21  O1  UNL     1      29.009 -21.755  15.035  1.00  0.00    -0.274 OA
BRANCH  21  22
HETATM   22  C4  UNL     1      28.268 -22.911  14.971  1.00  0.00     0.149 C
HETATM   23  C2  UNL     1      28.682 -24.028  15.533  1.00  0.00    -0.065 C
HETATM   24  C1  UNL     1      29.996 -24.041  16.264  1.00  0.00     0.045 C
HETATM   25  C3  UNL     1      27.907 -25.276  15.481  1.00  0.00     0.045 C
ENDBRANCH  21  22
ENDBRANCH  18  21
ENDBRANCH  16  17
ENDBRANCH  15  16
ENDBRANCH  12  15
ENDBRANCH  11  12
ENDBRANCH  10  11
ENDBRANCH   9  10
ENDBRANCH   1   9
BRANCH   8  26
HETATM   26  N5  UNL     1      24.770 -13.572  10.568  1.00  0.00    -0.272 N
ATOM     27  H5  UNL     1      24.854 -12.869  11.303  1.00  0.00     0.189 HD
BRANCH  26  28
HETATM   28  N6  UNL     1      23.599 -13.901  10.094  1.00  0.00    -0.181 N
ATOM     29  H6  UNL     1      23.165 -14.791  10.335  1.00  0.00     0.218 HD
BRANCH  28  30
HETATM   30  O4  UNL     1      22.982 -13.027   9.276  1.00  0.00    -0.137 OA
BRANCH  30  31
HETATM   31  N7  UNL     1      22.733 -13.119   7.955  1.00  0.00    -0.192 N
HETATM   32  C14 UNL     1      22.264 -14.326   7.385  1.00  0.00     0.354 C
HETATM   33  N8  UNL     1      22.001 -14.411   5.991  1.00  0.00    -0.038 NA
HETATM   34  O5  UNL     1      22.087 -15.321   8.150  1.00  0.00    -0.249 OA
ATOM     35  H7  UNL     1      22.883 -12.306   7.357  1.00  0.00     0.201 HD
ENDBRANCH  30  31
ENDBRANCH  28  30
ENDBRANCH  26  28
ENDBRANCH   8  26
TORSDOF 13
ENDMDL