MODEL 3
REMARK VINA RESULT: -7.640440552      3.608      6.853
REMARK  13 active torsions:
REMARK  status: ('A' for Active; 'I' for Inactive)
REMARK    1  A    between atoms: C2_2  and  C4_4
REMARK    2  A    between atoms: C4_4  and  C5_5
REMARK    3  A    between atoms: C5_5  and  N1_6
REMARK    4  A    between atoms: C5_5  and  C6_10
REMARK       I    between atoms: C6_10  and  N2_12
REMARK    5  A    between atoms: N2_12  and  C7_14
REMARK    6  A    between atoms: C7_14  and  C8_15
REMARK    7  A    between atoms: C7_14  and  C12_19
REMARK    8  A    between atoms: C8_15  and  C9_16
REMARK    9  A    between atoms: C12_19  and  C13_20
REMARK   10  A    between atoms: C12_19  and  N3_24
REMARK   11  A    between atoms: C13_20  and  C14_21
REMARK   12  A    between atoms: N3_24  and  C17_26
REMARK   13  A    between atoms: C17_26  and  C18_30
ROOT
HETATM    1  C12 UNL     1      26.205 -14.591  10.866  1.00  0.00     0.133 C
ENDROOT
BRANCH   1   2
HETATM    2  C7  UNL     1      27.524 -14.451  11.597  1.00  0.00     0.031 C
BRANCH   2   3
HETATM    3  N2  UNL     1      28.276 -15.649  11.758  1.00  0.00    -0.327 N
HETATM    4  C6  UNL     1      28.836 -16.080  12.999  1.00  0.00     0.252 C
HETATM    5  O1  UNL     1      28.663 -15.368  14.015  1.00  0.00    -0.271 OA
ATOM      6  H2  UNL     1      28.424 -16.235  10.937  1.00  0.00     0.168 HD
BRANCH   4   7
HETATM    7  C5  UNL     1      29.610 -17.323  13.145  1.00  0.00     0.275 C
BRANCH   7   8
HETATM    8  C4  UNL     1      28.698 -18.523  13.252  1.00  0.00     0.046 C
BRANCH   8   9
HETATM    9  C2  UNL     1      29.298 -19.684  13.962  1.00  0.00    -0.020 C
HETATM   10  C1  UNL     1      28.398 -20.889  13.678  1.00  0.00     0.009 C
HETATM   11  C3  UNL     1      29.337 -19.545  15.466  1.00  0.00     0.009 C
ENDBRANCH   8   9
ENDBRANCH   7   8
BRANCH   7  12
HETATM   12  N1  UNL     1      30.504 -17.542  12.031  1.00  0.00    -0.066 N
ATOM     13  H13 UNL     1      31.380 -17.987  12.309  1.00  0.00     0.275 HD
ATOM     14  H12 UNL     1      30.175 -18.271  11.398  1.00  0.00     0.275 HD
ATOM     15  H11 UNL     1      30.648 -16.648  11.563  1.00  0.00     0.275 HD
ENDBRANCH   7  12
ENDBRANCH   4   7
ENDBRANCH   2   3
BRANCH   2  16
HETATM   16  C8  UNL     1      28.309 -13.246  11.306  1.00  0.00     0.004 C
BRANCH  16  17
HETATM   17  C9  UNL     1      29.604 -13.301  10.624  1.00  0.00     0.002 C
HETATM   18  C10 UNL     1      30.836 -13.264  11.489  1.00  0.00     0.013 C
HETATM   19  C11 UNL     1      29.668 -12.009   9.774  1.00  0.00     0.013 C
ENDBRANCH  16  17
ENDBRANCH   2  16
ENDBRANCH   1   2
BRANCH   1  20
HETATM   20  C13 UNL     1      26.478 -15.097   9.444  1.00  0.00     0.035 C
BRANCH  20  21
HETATM   21  C14 UNL     1      26.431 -14.036   8.407  1.00  0.00    -0.020 C
HETATM   22  C15 UNL     1      25.353 -14.396   7.396  1.00  0.00     0.009 C
HETATM   23  C16 UNL     1      27.765 -14.107   7.655  1.00  0.00     0.009 C
ENDBRANCH  20  21
ENDBRANCH   1  20
BRANCH   1  24
HETATM   24  N3  UNL     1      25.385 -13.430  10.858  1.00  0.00    -0.363 N
ATOM     25  H3  UNL     1      25.882 -12.541  10.812  1.00  0.00     0.162 HD
BRANCH  24  26
HETATM   26  C17 UNL     1      23.977 -13.340  10.905  1.00  0.00     0.142 C
HETATM   27  N4  UNL     1      23.211 -14.078  10.189  1.00  0.00    -0.383 N
ATOM     28  H42 UNL     1      23.660 -14.745   9.561  1.00  0.00     0.157 HD
ATOM     29  H41 UNL     1      22.194 -14.013  10.223  1.00  0.00     0.157 HD
BRANCH  26  30
HETATM   30  C18 UNL     1      23.337 -12.389  11.801  1.00  0.00     0.178 A
HETATM   31  N5  UNL     1      22.529 -12.589  12.855  1.00  0.00    -0.264 N
HETATM   32  N6  UNL     1      22.203 -11.408  13.350  1.00  0.00    -0.005 NA
ATOM     33  H5  UNL     1      22.221 -13.493  13.211  1.00  0.00     0.186 HD
HETATM   34  N7  UNL     1      22.781 -10.433  12.640  1.00  0.00    -0.225 N
HETATM   35  N8  UNL     1      23.458 -11.056  11.715  1.00  0.00    -0.269 N
ATOM     36  H7  UNL     1      22.709  -9.427  12.790  1.00  0.00     0.205 HD
ATOM     37  H8  UNL     1      24.015 -10.582  11.004  1.00  0.00     0.190 HD
ENDBRANCH  26  30
ENDBRANCH  24  26
ENDBRANCH   1  24
TORSDOF 13
ENDMDL