MODEL 1
REMARK VINA RESULT: -8.545710150      0.000      0.000
REMARK  15 active torsions:
REMARK  status: ('A' for Active; 'I' for Inactive)
REMARK    1  A    between atoms: C2_2  and  C4_4
REMARK    2  A    between atoms: C4_4  and  C5_5
REMARK    3  A    between atoms: C5_5  and  C6_6
REMARK    4  A    between atoms: C5_5  and  C10_16
REMARK    5  A    between atoms: C6_6  and  N1_7
REMARK    6  A    between atoms: N1_7  and  C7_9
REMARK    7  A    between atoms: C10_16  and  N3_17
REMARK    8  A    between atoms: N3_17  and  C11_20
REMARK    9  A    between atoms: C11_20  and  O2_21
REMARK   10  A    between atoms: C11_20  and  C12_23
REMARK   11  A    between atoms: C12_23  and  O3_24
REMARK   12  A    between atoms: C12_23  and  C13_26
REMARK   13  A    between atoms: C13_26  and  N4_27
REMARK   14  A    between atoms: C13_26  and  C14_31
REMARK   15  A    between atoms: C14_31  and  C15_32
ROOT
HETATM    1  N3  UNL     1      28.082 -14.633  11.823  1.00  0.00    -0.046 N
ATOM      2  H31 UNL     1      27.182 -14.487  12.280  1.00  0.00     0.280 HD
ATOM      3  H32 UNL     1      28.379 -13.658  11.801  1.00  0.00     0.280 HD
ENDROOT
BRANCH   1   4
HETATM    4  C10 UNL     1      27.957 -15.222  10.493  1.00  0.00     0.241 C
BRANCH   4   5
HETATM    5  C5  UNL     1      28.433 -14.263   9.400  1.00  0.00     0.029 C
BRANCH   5   6
HETATM    6  C4  UNL     1      29.877 -14.391   9.137  1.00  0.00     0.011 C
BRANCH   6   7
HETATM    7  C2  UNL     1      30.726 -13.178   9.200  1.00  0.00    -0.022 C
HETATM    8  C1  UNL     1      30.179 -11.976   8.468  1.00  0.00     0.009 C
HETATM    9  C3  UNL     1      30.919 -12.817  10.682  1.00  0.00     0.009 C
ENDBRANCH   6   7
ENDBRANCH   5   6
BRANCH   5  10
HETATM   10  C6  UNL     1      27.478 -14.392   8.280  1.00  0.00     0.124 C
BRANCH  10  11
HETATM   11  N1  UNL     1      26.104 -14.561   8.607  1.00  0.00    -0.374 N
ATOM     12  H1  UNL     1      25.796 -14.788   9.552  1.00  0.00     0.157 HD
BRANCH  11  13
HETATM   13  C7  UNL     1      25.186 -14.395   7.531  1.00  0.00     0.424 C
HETATM   14  N2  UNL     1      23.874 -13.859   7.959  1.00  0.00    -0.029 N
HETATM   15  C8  UNL     1      23.106 -14.035   6.707  1.00  0.00     0.263 C
ATOM     16  H22 UNL     1      23.469 -14.284   8.792  1.00  0.00     0.282 HD
ATOM     17  H21 UNL     1      23.884 -12.915   8.346  1.00  0.00     0.282 HD
HETATM   18  C9  UNL     1      23.833 -15.166   6.020  1.00  0.00     0.200 C
HETATM   19  O1  UNL     1      24.725 -15.613   6.991  1.00  0.00    -0.343 OA
ENDBRANCH  11  13
ENDBRANCH  10  11
ENDBRANCH   5  10
ENDBRANCH   4   5
ENDBRANCH   1   4
BRANCH   1  20
HETATM   20  C11 UNL     1      28.970 -15.474  12.587  1.00  0.00     0.349 C
BRANCH  20  21
HETATM   21  O2  UNL     1      29.502 -14.680  13.629  1.00  0.00    -0.368 OA
ATOM     22  H2  UNL     1      30.093 -15.232  14.128  1.00  0.00     0.212 HD
ENDBRANCH  20  21
BRANCH  20  23
HETATM   23  C12 UNL     1      28.332 -16.659  13.248  1.00  0.00     0.204 C
BRANCH  23  24
HETATM   24  O3  UNL     1      28.185 -16.286  14.636  1.00  0.00    -0.389 OA
ATOM     25  H3  UNL     1      29.052 -16.015  14.915  1.00  0.00     0.210 HD
ENDBRANCH  23  24
BRANCH  23  26
HETATM   26  C13 UNL     1      29.225 -17.878  13.348  1.00  0.00     0.216 C
BRANCH  26  27
HETATM   27  N4  UNL     1      30.559 -17.419  12.844  1.00  0.00    -0.072 N
ATOM     28  H43 UNL     1      30.770 -17.722  11.893  1.00  0.00     0.274 HD
ATOM     29  H42 UNL     1      30.611 -16.417  12.660  1.00  0.00     0.274 HD
ATOM     30  H41 UNL     1      31.229 -17.747  13.541  1.00  0.00     0.274 HD
ENDBRANCH  26  27
BRANCH  26  31
HETATM   31  C14 UNL     1      29.500 -18.343  14.736  1.00  0.00     0.040 C
BRANCH  31  32
HETATM   32  C15 UNL     1      29.001 -19.753  14.973  1.00  0.00    -0.013 C
HETATM   33  C16 UNL     1      28.769 -20.402  13.615  1.00  0.00     0.005 C
HETATM   34  C17 UNL     1      28.339 -21.848  13.823  1.00  0.00     0.000 C
HETATM   35  C18 UNL     1      27.982 -22.105  15.283  1.00  0.00     0.000 C
HETATM   36  C19 UNL     1      29.127 -21.817  16.220  1.00  0.00     0.000 C
HETATM   37  C20 UNL     1      29.964 -20.635  15.700  1.00  0.00     0.005 C
ENDBRANCH  31  32
ENDBRANCH  26  31
ENDBRANCH  23  26
ENDBRANCH  20  23
ENDBRANCH   1  20
TORSDOF 15
ENDMDL