MODEL 1
REMARK VINA RESULT: -9.121592838      0.000      0.000
REMARK  14 active torsions:
REMARK  status: ('A' for Active; 'I' for Inactive)
REMARK    1  A    between atoms: C2_2  and  C3_3
REMARK    2  A    between atoms: C2_2  and  C4_7
REMARK    3  A    between atoms: C3_3  and  S1_4
REMARK       I    between atoms: C4_7  and  N1_9
REMARK    4  A    between atoms: N1_9  and  C5_11
REMARK    5  A    between atoms: C5_11  and  O4_12
REMARK    6  A    between atoms: C5_11  and  N2_14
REMARK    7  A    between atoms: N2_14  and  C6_16
REMARK    8  A    between atoms: C6_16  and  C7_17
REMARK    9  A    between atoms: C6_16  and  C10_24
REMARK   10  A    between atoms: C8_18  and  C9_19
REMARK   11  A    between atoms: C9_19  and  O5_20
REMARK   12  A    between atoms: C9_19  and  O6_22
REMARK   13  A    between atoms: C10_24  and  C11_25
REMARK   14  A    between atoms: C11_25  and  C12_26
ROOT
HETATM    1  C6  UNL     1      26.668 -14.544  10.687  1.00  0.00     0.103 C
ENDROOT
BRANCH   1   2
HETATM    2  N2  UNL     1      26.355 -14.763   9.364  1.00  0.00    -0.373 N
ATOM      3  H2  UNL     1      25.772 -15.577   9.170  1.00  0.00     0.158 HD
BRANCH   2   4
HETATM    4  C5  UNL     1      26.736 -14.008   8.261  1.00  0.00     0.325 C
BRANCH   4   5
HETATM    5  N1  UNL     1      27.877 -13.114   8.600  1.00  0.00    -0.318 N
HETATM    6  C4  UNL     1      29.076 -13.075   7.870  1.00  0.00     0.225 C
HETATM    7  O3  UNL     1      29.216 -13.852   6.863  1.00  0.00    -0.273 OA
ATOM      8  H1  UNL     1      27.783 -12.497   9.406  1.00  0.00     0.166 HD
BRANCH   6   9
HETATM    9  C2  UNL     1      30.213 -12.179   8.187  1.00  0.00     0.088 C
HETATM   10  C1  UNL     1      30.973 -12.743   9.416  1.00  0.00     0.021 C
BRANCH   9  11
HETATM   11  C3  UNL     1      31.236 -12.219   7.088  1.00  0.00     0.170 C
BRANCH  11  12
HETATM   12  S1  UNL     1      31.071 -10.975   5.882  1.00  0.00     0.251 S
HETATM   13  O1  UNL     1      32.437 -10.706   5.270  1.00  0.00    -0.212 OA
HETATM   14  O2  UNL     1      30.631  -9.698   6.554  1.00  0.00    -0.212 OA
ENDBRANCH  11  12
ENDBRANCH   9  11
ENDBRANCH   6   9
ENDBRANCH   4   5
BRANCH   4  15
HETATM   15  O4  UNL     1      25.744 -13.049   7.852  1.00  0.00    -0.360 OA
ATOM     16  H4  UNL     1      25.205 -12.999   8.632  1.00  0.00     0.214 HD
ENDBRANCH   4  15
ENDBRANCH   2   4
ENDBRANCH   1   2
BRANCH   1  17
HETATM   17  C7  UNL     1      25.417 -14.372  11.556  1.00  0.00    -0.002 C
HETATM   18  C8  UNL     1      24.334 -13.829  11.067  1.00  0.00     0.030 C
BRANCH  18  19
HETATM   19  C9  UNL     1      23.059 -13.587  11.744  1.00  0.00     0.278 C
BRANCH  19  20
HETATM   20  O5  UNL     1      22.926 -12.280  12.205  1.00  0.00    -0.368 OA
ATOM     21  H5  UNL     1      22.049 -11.934  12.093  1.00  0.00     0.213 HD
ENDBRANCH  19  20
BRANCH  19  22
HETATM   22  O6  UNL     1      22.801 -14.464  12.793  1.00  0.00    -0.368 OA
ATOM     23  H6  UNL     1      21.890 -14.490  13.058  1.00  0.00     0.213 HD
ENDBRANCH  19  22
ENDBRANCH  18  19
ENDBRANCH   1  17
BRANCH   1  24
HETATM   24  C10 UNL     1      27.553 -15.440  11.468  1.00  0.00     0.029 C
BRANCH  24  25
HETATM   25  C11 UNL     1      28.794 -15.932  10.854  1.00  0.00     0.007 C
BRANCH  25  26
HETATM   26  C12 UNL     1      29.623 -16.799  11.826  1.00  0.00    -0.014 C
HETATM   27  C13 UNL     1      29.636 -16.130  13.126  1.00  0.00     0.004 C
HETATM   28  C14 UNL     1      29.256 -16.914  14.332  1.00  0.00     0.000 C
HETATM   29  C15 UNL     1      29.407 -18.391  14.187  1.00  0.00     0.000 C
HETATM   30  C16 UNL     1      28.597 -18.803  12.995  1.00  0.00     0.000 C
HETATM   31  C17 UNL     1      29.064 -18.176  11.735  1.00  0.00     0.004 C
ENDBRANCH  25  26
ENDBRANCH  24  25
ENDBRANCH   1  24
TORSDOF 14
ENDMDL