MODEL 3
REMARK VINA RESULT: -8.551436509      3.635      6.070
REMARK  12 active torsions:
REMARK  status: ('A' for Active; 'I' for Inactive)
REMARK    1  A    between atoms: O1_2  and  C2_3
REMARK    2  A    between atoms: C2_3  and  C3_5
REMARK    3  A    between atoms: C3_5  and  C4_6
REMARK    4  A    between atoms: C3_5  and  C17_28
REMARK    5  A    between atoms: C4_6  and  C5_7
REMARK    6  A    between atoms: C5_7  and  C6_8
REMARK    7  A    between atoms: C5_7  and  C13_15
REMARK    8  A    between atoms: C6_8  and  C7_9
REMARK    9  A    between atoms: C13_15  and  C14_17
REMARK   10  A    between atoms: C14_17  and  N1_19
REMARK   11  A    between atoms: N1_19  and  N2_20
REMARK   12  A    between atoms: N2_20  and  N3_21
REMARK       I    between atoms: N3_21  and  C16_23
ROOT
HETATM    1  C5  UNL     1      28.535 -14.285   9.898  1.00  0.00     0.059 C
ENDROOT
BRANCH   1   2
HETATM    2  C4  UNL     1      29.281 -13.438   8.876  1.00  0.00     0.038 C
BRANCH   2   3
HETATM    3  C3  UNL     1      30.771 -13.400   9.069  1.00  0.00     0.187 C
BRANCH   3   4
HETATM    4  C2  UNL     1      31.361 -12.646   7.934  1.00  0.00     0.273 C
HETATM    5  O2  UNL     1      30.678 -11.744   7.397  1.00  0.00    -0.264 OA
BRANCH   4   6
HETATM    6  O1  UNL     1      32.629 -12.896   7.446  1.00  0.00    -0.326 OA
HETATM    7  C1  UNL     1      33.011 -12.493   6.154  1.00  0.00     0.213 C
ENDBRANCH   4   6
ENDBRANCH   3   4
BRANCH   3   8
HETATM    8  C17 UNL     1      31.150 -12.670  10.302  1.00  0.00     0.186 C
HETATM    9  O4  UNL     1      30.500 -11.650  10.616  1.00  0.00    -0.647 OA
HETATM   10  O5  UNL     1      32.186 -13.083  11.100  1.00  0.00    -0.647 OA
ENDBRANCH   3   8
ENDBRANCH   2   3
ENDBRANCH   1   2
BRANCH   1  11
HETATM   11  C6  UNL     1      29.368 -15.379  10.401  1.00  0.00     0.017 C
BRANCH  11  12
HETATM   12  C7  UNL     1      29.262 -15.904  11.753  1.00  0.00    -0.014 C
HETATM   13  C8  UNL     1      28.704 -15.168  12.887  1.00  0.00     0.005 C
HETATM   14  C9  UNL     1      28.742 -16.046  14.137  1.00  0.00     0.000 C
HETATM   15  C10 UNL     1      29.567 -17.294  13.978  1.00  0.00     0.000 C
HETATM   16  C11 UNL     1      29.122 -18.128  12.794  1.00  0.00     0.000 C
HETATM   17  C12 UNL     1      28.474 -17.251  11.739  1.00  0.00     0.005 C
ENDBRANCH  11  12
ENDBRANCH   1  11
BRANCH   1  18
HETATM   18  C13 UNL     1      27.327 -14.707   9.132  1.00  0.00     0.151 C
HETATM   19  O3  UNL     1      27.460 -15.260   8.074  1.00  0.00    -0.296 OA
BRANCH  18  20
HETATM   20  C14 UNL     1      25.981 -14.448   9.659  1.00  0.00     0.163 C
HETATM   21  C15 UNL     1      26.000 -13.476  10.834  1.00  0.00     0.037 C
BRANCH  20  22
HETATM   22  N1  UNL     1      25.164 -13.746   8.633  1.00  0.00    -0.114 NA
BRANCH  22  23
HETATM   23  N2  UNL     1      23.838 -13.962   9.001  1.00  0.00    -0.028 NA
BRANCH  23  24
HETATM   24  N3  UNL     1      22.934 -13.605   8.029  1.00  0.00    -0.261 N
HETATM   25  C16 UNL     1      22.718 -14.459   6.923  1.00  0.00     0.198 C
HETATM   26  N4  UNL     1      23.565 -15.367   6.564  1.00  0.00    -0.373 N
HETATM   27  N5  UNL     1      21.520 -14.330   6.158  1.00  0.00    -0.063 NA
ATOM     28  H42 UNL     1      24.420 -15.460   7.111  1.00  0.00     0.158 HD
ATOM     29  H41 UNL     1      23.409 -15.983   5.766  1.00  0.00     0.158 HD
ATOM     30  H3  UNL     1      22.421 -12.728   8.106  1.00  0.00     0.186 HD
ENDBRANCH  23  24
ENDBRANCH  22  23
ENDBRANCH  20  22
ENDBRANCH  18  20
ENDBRANCH   1  18
TORSDOF 12
ENDMDL