MODEL 1
REMARK VINA RESULT: -9.758573680      0.000      0.000
REMARK  16 active torsions:
REMARK  status: ('A' for Active; 'I' for Inactive)
REMARK    1  A    between atoms: C2_2  and  C12_12
REMARK    2  A    between atoms: C3_3  and  C4_4
REMARK    3  A    between atoms: C5_5  and  C6_6
REMARK    4  A    between atoms: C6_6  and  C8_8
REMARK    5  A    between atoms: C8_8  and  C9_9
REMARK    6  A    between atoms: C12_12  and  C14_14
REMARK    7  A    between atoms: C14_14  and  O1_15
REMARK    8  A    between atoms: C14_14  and  C15_17
REMARK    9  A    between atoms: C15_17  and  O2_18
REMARK   10  A    between atoms: C15_17  and  C16_20
REMARK   11  A    between atoms: C16_20  and  O3_21
REMARK   12  A    between atoms: C16_20  and  C17_23
REMARK   13  A    between atoms: C17_23  and  C18_24
REMARK   14  A    between atoms: C18_24  and  O4_25
REMARK   15  A    between atoms: C20_28  and  O5_29
REMARK   16  A    between atoms: C21_32  and  O7_33
ROOT
HETATM    1  C15 UNL     1      29.621 -14.669  10.912  1.00  0.00     0.177 C
ENDROOT
BRANCH   1   2
HETATM    2  C14 UNL     1      29.219 -16.122  11.025  1.00  0.00     0.157 C
BRANCH   2   3
HETATM    3  C12 UNL     1      28.134 -16.404  12.004  1.00  0.00     0.041 C
HETATM    4  C13 UNL     1      27.702 -15.150  12.750  1.00  0.00     0.017 C
BRANCH   3   5
HETATM    5  C2  UNL     1      28.592 -17.356  13.041  1.00  0.00    -0.077 C
HETATM    6  C1  UNL     1      29.084 -16.776  14.357  1.00  0.00     0.044 C
HETATM    7  C3  UNL     1      28.627 -18.645  12.920  1.00  0.00     0.003 C
BRANCH   7   8
HETATM    8  C4  UNL     1      29.117 -19.478  14.002  1.00  0.00    -0.003 C
HETATM    9  C5  UNL     1      28.815 -20.747  14.125  1.00  0.00    -0.022 C
BRANCH   9  10
HETATM   10  C6  UNL     1      29.277 -21.652  15.196  1.00  0.00     0.004 C
HETATM   11  C7  UNL     1      29.557 -20.891  16.462  1.00  0.00     0.014 C
BRANCH  10  12
HETATM   12  C8  UNL     1      28.282 -22.755  15.464  1.00  0.00     0.012 C
BRANCH  12  13
HETATM   13  C9  UNL     1      28.949 -24.095  15.316  1.00  0.00    -0.022 C
HETATM   14  C10 UNL     1      29.936 -24.342  16.458  1.00  0.00     0.009 C
HETATM   15  C11 UNL     1      27.894 -25.181  15.352  1.00  0.00     0.009 C
ENDBRANCH  12  13
ENDBRANCH  10  12
ENDBRANCH   9  10
ENDBRANCH   7   8
ENDBRANCH   3   5
ENDBRANCH   2   3
BRANCH   2  16
HETATM   16  O1  UNL     1      30.372 -16.831  11.442  1.00  0.00    -0.392 OA
ATOM     17  H1  UNL     1      30.686 -16.428  12.243  1.00  0.00     0.210 HD
ENDBRANCH   2  16
ENDBRANCH   1   2
BRANCH   1  18
HETATM   18  O2  UNL     1      30.588 -14.484  11.913  1.00  0.00    -0.390 OA
ATOM     19  H2  UNL     1      31.345 -14.974  11.615  1.00  0.00     0.210 HD
ENDBRANCH   1  18
BRANCH   1  20
HETATM   20  C16 UNL     1      30.187 -14.348   9.549  1.00  0.00     0.165 C
BRANCH  20  21
HETATM   21  O3  UNL     1      31.473 -13.764   9.681  1.00  0.00    -0.392 OA
ATOM     22  H3  UNL     1      32.083 -14.181   9.084  1.00  0.00     0.210 HD
ENDBRANCH  20  21
BRANCH  20  23
HETATM   23  C17 UNL     1      29.307 -13.556   8.672  1.00  0.00     0.063 C
HETATM   24  C19 UNL     1      29.781 -12.099   8.752  1.00  0.00     0.080 C
HETATM   25  C20 UNL     1      30.406 -11.909   7.394  1.00  0.00     0.261 C
HETATM   26  O6  UNL     1      29.530 -12.616   6.570  1.00  0.00    -0.331 OA
HETATM   27  C21 UNL     1      29.550 -13.866   7.222  1.00  0.00     0.273 C
BRANCH  23  28
HETATM   28  C18 UNL     1      27.847 -13.596   8.961  1.00  0.00     0.181 C
BRANCH  28  29
HETATM   29  O4  UNL     1      27.058 -12.848   8.134  1.00  0.00    -0.400 OA
ATOM     30  H4  UNL     1      26.719 -12.042   8.505  1.00  0.00     0.209 HD
ENDBRANCH  28  29
ENDBRANCH  23  28
BRANCH  25  31
HETATM   31  O5  UNL     1      30.522 -10.580   7.025  1.00  0.00    -0.371 OA
ATOM     32  H5  UNL     1      29.955 -10.340   6.301  1.00  0.00     0.212 HD
ENDBRANCH  25  31
BRANCH  27  33
HETATM   33  O7  UNL     1      30.826 -14.368   6.982  1.00  0.00    -0.370 OA
ATOM     34  H7  UNL     1      31.254 -13.952   6.243  1.00  0.00     0.212 HD
ENDBRANCH  27  33
ENDBRANCH  20  23
ENDBRANCH   1  20
TORSDOF 16
ENDMDL