MODEL 3
REMARK VINA RESULT: -8.640732125      1.403      1.935
REMARK  15 active torsions:
REMARK  status: ('A' for Active; 'I' for Inactive)
REMARK    1  A    between atoms: C2_2  and  N1_4
REMARK       I    between atoms: N1_4  and  C4_6
REMARK    2  A    between atoms: C4_6  and  C5_8
REMARK    3  A    between atoms: C5_8  and  C6_9
REMARK    4  A    between atoms: C5_8  and  N2_16
REMARK    5  A    between atoms: C6_9  and  C7_10
REMARK    6  A    between atoms: N2_16  and  C13_18
REMARK    7  A    between atoms: C13_18  and  O2_19
REMARK    8  A    between atoms: C13_18  and  C14_21
REMARK    9  A    between atoms: C14_21  and  C15_23
REMARK   10  A    between atoms: C15_23  and  N3_24
REMARK   11  A    between atoms: N3_24  and  C16_27
REMARK   12  A    between atoms: C16_27  and  C17_28
REMARK   13  A    between atoms: C17_28  and  C18_29
REMARK   14  A    between atoms: C18_29  and  O4_30
REMARK   15  A    between atoms: N4_32  and  O5_34
ROOT
HETATM    1  C13 UNL     1      25.523 -13.910  11.162  1.00  0.00     0.287 C
ENDROOT
BRANCH   1   2
HETATM    2  N2  UNL     1      26.559 -13.616  10.281  1.00  0.00    -0.378 N
ATOM      3  H2  UNL     1      26.804 -12.649  10.067  1.00  0.00     0.157 HD
BRANCH   2   4
HETATM    4  C5  UNL     1      27.288 -14.723   9.671  1.00  0.00     0.172 C
BRANCH   4   5
HETATM    5  C4  UNL     1      27.924 -14.175   8.439  1.00  0.00     0.240 C
HETATM    6  N1  UNL     1      29.179 -13.510   8.470  1.00  0.00    -0.355 N
ATOM      7  H1  UNL     1      29.679 -13.382   9.350  1.00  0.00     0.162 HD
HETATM    8  O1  UNL     1      27.281 -14.337   7.346  1.00  0.00    -0.271 OA
BRANCH   6   9
HETATM    9  C2  UNL     1      29.730 -13.019   7.234  1.00  0.00     0.076 C
HETATM   10  C1  UNL     1      30.615 -13.977   6.498  1.00  0.00     0.032 C
HETATM   11  C3  UNL     1      30.575 -11.769   7.497  1.00  0.00     0.032 C
ENDBRANCH   6   9
ENDBRANCH   4   5
BRANCH   4  12
HETATM   12  C6  UNL     1      28.492 -14.995  10.613  1.00  0.00     0.039 C
BRANCH  12  13
HETATM   13  C7  UNL     1      28.368 -16.341  11.225  1.00  0.00    -0.012 C
HETATM   14  C8  UNL     1      29.639 -17.123  11.263  1.00  0.00     0.005 C
HETATM   15  C9  UNL     1      29.904 -17.673  12.655  1.00  0.00     0.000 C
HETATM   16  C10 UNL     1      30.017 -16.527  13.630  1.00  0.00     0.000 C
HETATM   17  C11 UNL     1      28.749 -15.732  13.617  1.00  0.00     0.000 C
HETATM   18  C12 UNL     1      27.749 -16.241  12.591  1.00  0.00     0.005 C
ENDBRANCH  12  13
ENDBRANCH   4  12
ENDBRANCH   2   4
ENDBRANCH   1   2
BRANCH   1  19
HETATM   19  O2  UNL     1      24.986 -15.169  11.208  1.00  0.00    -0.370 OA
ATOM     20  H2  UNL     1      24.999 -15.670  12.015  1.00  0.00     0.212 HD
ENDBRANCH   1  19
BRANCH   1  21
HETATM   21  C14 UNL     1      24.401 -12.928  11.092  1.00  0.00     0.200 C
HETATM   22  O3  UNL     1      24.647 -11.763  11.397  1.00  0.00    -0.291 OA
BRANCH  21  23
HETATM   23  C15 UNL     1      23.037 -13.307  10.676  1.00  0.00     0.314 C
BRANCH  23  24
HETATM   24  N3  UNL     1      23.163 -14.065   9.398  1.00  0.00    -0.068 N
ATOM     25  H32 UNL     1      24.125 -14.317   9.172  1.00  0.00     0.277 HD
ATOM     26  H31 UNL     1      22.791 -15.014   9.454  1.00  0.00     0.277 HD
BRANCH  24  27
HETATM   27  C16 UNL     1      22.523 -13.256   8.370  1.00  0.00     0.240 C
BRANCH  27  28
HETATM   28  C17 UNL     1      23.269 -13.403   7.046  1.00  0.00     0.113 C
BRANCH  28  29
HETATM   29  C18 UNL     1      22.797 -14.643   6.366  1.00  0.00     0.136 C
HETATM   30  N4  UNL     1      23.488 -15.716   6.480  1.00  0.00    -0.251 N
ATOM     31  H4  UNL     1      23.151 -16.555   6.008  1.00  0.00     0.196 HD
BRANCH  29  32
HETATM   32  O4  UNL     1      21.638 -14.653   5.641  1.00  0.00    -0.348 OA
ATOM     33  H4  UNL     1      21.519 -15.254   4.914  1.00  0.00     0.219 HD
ENDBRANCH  29  32
BRANCH  30  34
HETATM   34  O5  UNL     1      24.656 -15.808   7.199  1.00  0.00    -0.288 OA
ATOM     35  H5  UNL     1      25.457 -16.196   6.868  1.00  0.00     0.244 HD
ENDBRANCH  30  34
ENDBRANCH  28  29
ENDBRANCH  27  28
ENDBRANCH  24  27
ENDBRANCH  23  24
ENDBRANCH  21  23
ENDBRANCH   1  21
TORSDOF 15
ENDMDL