MODEL 2
REMARK VINA RESULT: -8.331280173      1.086      1.176
REMARK  15 active torsions:
REMARK  status: ('A' for Active; 'I' for Inactive)
REMARK    1  A    between atoms: C2_2  and  C14_16
REMARK    2  A    between atoms: C3_3  and  C4_4
REMARK    3  A    between atoms: C4_4  and  C5_5
REMARK    4  A    between atoms: C5_5  and  C6_6
REMARK    5  A    between atoms: C5_5  and  C8_10
REMARK    6  A    between atoms: C6_6  and  C7_7
REMARK    7  A    between atoms: C14_16  and  O3_17
REMARK    8  A    between atoms: C14_16  and  C16_27
REMARK    9  A    between atoms: O3_17  and  C15_18
REMARK   10  A    between atoms: C15_18  and  N2_22
REMARK   11  A    between atoms: N2_22  and  N3_24
REMARK   12  A    between atoms: C16_27  and  O5_29
REMARK   13  A    between atoms: O5_29  and  C17_30
REMARK   14  A    between atoms: C17_30  and  C18_31
REMARK   15  A    between atoms: C18_31  and  O6_32
ROOT
HETATM    1  C14 UNL     1      25.319 -13.686   9.305  1.00  0.00     0.260 C
ENDROOT
BRANCH   1   2
HETATM    2  C2  UNL     1      26.342 -13.921  10.373  1.00  0.00    -0.049 C
HETATM    3  C1  UNL     1      26.199 -15.106  11.237  1.00  0.00     0.046 C
HETATM    4  C3  UNL     1      27.349 -13.102  10.511  1.00  0.00    -0.021 C
BRANCH   4   5
HETATM    5  C4  UNL     1      28.469 -13.164  11.467  1.00  0.00     0.033 C
BRANCH   5   6
HETATM    6  C5  UNL     1      29.578 -14.102  10.972  1.00  0.00     0.003 C
BRANCH   6   7
HETATM    7  C6  UNL     1      30.732 -13.198  10.669  1.00  0.00     0.118 C
BRANCH   7   8
HETATM    8  C7  UNL     1      30.942 -12.831   9.283  1.00  0.00     0.172 C
HETATM    9  O1  UNL     1      31.782 -13.404   8.568  1.00  0.00    -0.648 OA
HETATM   10  O2  UNL     1      30.175 -11.803   8.746  1.00  0.00    -0.648 OA
ENDBRANCH   7   8
ENDBRANCH   6   7
BRANCH   6  11
HETATM   11  C8  UNL     1      29.838 -15.188  11.971  1.00  0.00    -0.010 C
HETATM   12  C9  UNL     1      29.146 -15.017  13.278  1.00  0.00     0.005 C
HETATM   13  C10 UNL     1      28.934 -16.326  14.012  1.00  0.00     0.000 C
HETATM   14  C11 UNL     1      30.012 -17.333  13.698  1.00  0.00     0.000 C
HETATM   15  C12 UNL     1      30.078 -17.652  12.227  1.00  0.00     0.000 C
HETATM   16  C13 UNL     1      29.481 -16.563  11.371  1.00  0.00     0.005 C
ENDBRANCH   6  11
ENDBRANCH   5   6
ENDBRANCH   4   5
ENDBRANCH   1   2
BRANCH   1  17
HETATM   17  O3  UNL     1      24.080 -14.170   9.737  1.00  0.00    -0.301 OA
BRANCH  17  18
HETATM   18  C15 UNL     1      23.225 -13.526  10.570  1.00  0.00     0.232 C
HETATM   19  N1  UNL     1      23.606 -12.357  10.993  1.00  0.00    -0.364 N
ATOM     20  H12 UNL     1      24.511 -12.009  10.676  1.00  0.00     0.159 HD
ATOM     21  H11 UNL     1      22.964 -11.873  11.620  1.00  0.00     0.159 HD
BRANCH  18  22
HETATM   22  N2  UNL     1      21.975 -14.006  11.009  1.00  0.00    -0.272 N
ATOM     23  H2  UNL     1      21.817 -14.133  12.009  1.00  0.00     0.190 HD
BRANCH  22  24
HETATM   24  N3  UNL     1      20.954 -14.311  10.123  1.00  0.00    -0.342 N
ATOM     25  H32 UNL     1      20.715 -13.621   9.411  1.00  0.00     0.176 HD
ATOM     26  H31 UNL     1      20.446 -15.195  10.169  1.00  0.00     0.176 HD
ENDBRANCH  22  24
ENDBRANCH  18  22
ENDBRANCH  17  18
ENDBRANCH   1  17
BRANCH   1  27
HETATM   27  C16 UNL     1      25.706 -14.450   8.058  1.00  0.00     0.293 C
HETATM   28  O4  UNL     1      26.848 -14.296   7.595  1.00  0.00    -0.262 OA
BRANCH  27  29
HETATM   29  O5  UNL     1      24.817 -15.292   7.457  1.00  0.00    -0.317 OA
BRANCH  29  30
HETATM   30  C17 UNL     1      24.019 -14.983   6.353  1.00  0.00     0.205 C
BRANCH  30  31
HETATM   31  C18 UNL     1      22.610 -14.643   6.708  1.00  0.00     0.191 C
BRANCH  31  32
HETATM   32  O6  UNL     1      22.255 -15.445   7.807  1.00  0.00    -0.399 OA
ATOM     33  H6  UNL     1      23.061 -15.702   8.238  1.00  0.00     0.209 HD
ENDBRANCH  31  32
ENDBRANCH  30  31
ENDBRANCH  29  30
ENDBRANCH  27  29
ENDBRANCH   1  27
TORSDOF 15
ENDMDL