MODEL 3
REMARK VINA RESULT: -8.211694565      2.180      2.966
REMARK  14 active torsions:
REMARK  status: ('A' for Active; 'I' for Inactive)
REMARK    1  A    between atoms: C2_2  and  C3_3
REMARK    2  A    between atoms: C3_3  and  C5_5
REMARK    3  A    between atoms: C5_5  and  N1_6
REMARK    4  A    between atoms: C5_5  and  C17_32
REMARK       I    between atoms: N1_6  and  C6_8
REMARK    5  A    between atoms: C6_8  and  C7_10
REMARK    6  A    between atoms: C7_10  and  O2_11
REMARK    7  A    between atoms: C7_10  and  N2_13
REMARK    8  A    between atoms: N2_13  and  C8_16
REMARK    9  A    between atoms: C8_16  and  C9_17
REMARK   10  A    between atoms: C8_16  and  C16_25
REMARK   11  A    between atoms: C9_17  and  O3_18
REMARK   12  A    between atoms: O3_18  and  C10_19
REMARK   13  A    between atoms: C16_25  and  O4_26
REMARK   14  A    between atoms: N3_28  and  O5_30
ROOT
HETATM    1  N2  UNL     1      29.563 -13.443   8.837  1.00  0.00    -0.026 N
ATOM      2  H21 UNL     1      28.637 -13.289   9.237  1.00  0.00     0.281 HD
ATOM      3  H22 UNL     1      29.871 -12.477   8.729  1.00  0.00     0.281 HD
ENDROOT
BRANCH   1   4
HETATM    4  C7  UNL     1      29.454 -14.067   7.575  1.00  0.00     0.412 C
BRANCH   4   5
HETATM    5  C6  UNL     1      30.183 -13.462   6.447  1.00  0.00     0.275 C
HETATM    6  N1  UNL     1      31.133 -14.223   5.729  1.00  0.00    -0.343 N
ATOM      7  H1  UNL     1      31.312 -15.190   6.003  1.00  0.00     0.163 HD
HETATM    8  O1  UNL     1      29.993 -12.280   6.092  1.00  0.00    -0.269 OA
BRANCH   6   9
HETATM    9  C5  UNL     1      31.858 -13.653   4.609  1.00  0.00     0.189 C
BRANCH   9  10
HETATM   10  C3  UNL     1      31.965 -14.656   3.508  1.00  0.00     0.014 C
HETATM   11  C4  UNL     1      32.865 -14.041   2.437  1.00  0.00     0.012 C
BRANCH  10  12
HETATM   12  C2  UNL     1      30.569 -14.850   2.917  1.00  0.00     0.002 C
HETATM   13  C1  UNL     1      30.015 -13.534   2.421  1.00  0.00     0.005 C
ENDBRANCH  10  12
ENDBRANCH   9  10
BRANCH   9  14
HETATM   14  C17 UNL     1      33.249 -13.282   5.116  1.00  0.00     0.197 C
HETATM   15  O6  UNL     1      33.551 -12.039   5.147  1.00  0.00    -0.646 OA
HETATM   16  O7  UNL     1      34.100 -14.268   5.511  1.00  0.00    -0.646 OA
ENDBRANCH   9  14
ENDBRANCH   6   9
ENDBRANCH   4   5
BRANCH   4  17
HETATM   17  O2  UNL     1      28.116 -14.292   7.220  1.00  0.00    -0.363 OA
ATOM     18  H2  UNL     1      27.858 -15.174   7.462  1.00  0.00     0.212 HD
ENDBRANCH   4  17
ENDBRANCH   1   4
BRANCH   1  19
HETATM   19  C8  UNL     1      30.392 -14.123   9.763  1.00  0.00     0.288 C
BRANCH  19  20
HETATM   20  C9  UNL     1      29.745 -15.459  10.147  1.00  0.00     0.209 C
BRANCH  20  21
HETATM   21  O3  UNL     1      29.967 -15.714  11.489  1.00  0.00    -0.383 OA
BRANCH  21  22
HETATM   22  C10 UNL     1      28.861 -16.345  12.046  1.00  0.00     0.121 C
HETATM   23  C11 UNL     1      28.995 -17.798  11.700  1.00  0.00     0.032 C
HETATM   24  C12 UNL     1      28.699 -18.764  12.788  1.00  0.00     0.002 C
HETATM   25  C13 UNL     1      29.299 -18.449  14.121  1.00  0.00     0.000 C
HETATM   26  C14 UNL     1      29.519 -17.003  14.397  1.00  0.00     0.002 C
HETATM   27  C15 UNL     1      28.757 -16.067  13.531  1.00  0.00     0.032 C
ENDBRANCH  21  22
ENDBRANCH  20  21
ENDBRANCH  19  20
BRANCH  19  28
HETATM   28  C16 UNL     1      30.759 -13.345  10.974  1.00  0.00     0.169 C
HETATM   29  N3  UNL     1      29.881 -12.833  11.737  1.00  0.00    -0.249 N
ATOM     30  H3  UNL     1      30.210 -12.310  12.549  1.00  0.00     0.196 HD
BRANCH  28  31
HETATM   31  O4  UNL     1      32.102 -13.163  11.297  1.00  0.00    -0.346 OA
ATOM     32  H4  UNL     1      32.489 -13.668  12.003  1.00  0.00     0.219 HD
ENDBRANCH  28  31
BRANCH  29  33
HETATM   33  O5  UNL     1      28.525 -12.929  11.553  1.00  0.00    -0.288 OA
ATOM     34  H5  UNL     1      27.873 -12.836  12.238  1.00  0.00     0.244 HD
ENDBRANCH  29  33
ENDBRANCH  19  28
ENDBRANCH   1  19
TORSDOF 14
ENDMDL