MODEL 5
REMARK VINA RESULT: -7.979854363      3.404      7.718
REMARK  15 active torsions:
REMARK  status: ('A' for Active; 'I' for Inactive)
REMARK    1  A    between atoms: C2_2  and  C3_3
REMARK    2  A    between atoms: C3_3  and  C4_4
REMARK    3  A    between atoms: C4_4  and  O1_5
REMARK    4  A    between atoms: C4_4  and  C5_7
REMARK    5  A    between atoms: C5_7  and  N1_8
REMARK    6  A    between atoms: C5_7  and  C6_12
REMARK    7  A    between atoms: C6_12  and  O2_13
REMARK    8  A    between atoms: C6_12  and  C7_15
REMARK       I    between atoms: C7_15  and  N2_17
REMARK    9  A    between atoms: N2_17  and  C8_19
REMARK   10  A    between atoms: C8_19  and  C9_20
REMARK   11  A    between atoms: C8_19  and  C13_24
REMARK   12  A    between atoms: C9_20  and  C10_21
REMARK   13  A    between atoms: C13_24  and  N4_29
REMARK   14  A    between atoms: N3_25  and  O4_27
REMARK   15  A    between atoms: N4_29  and  C14_31
ROOT
HETATM    1  C7  UNL     1      28.411 -14.214  12.465  1.00  0.00     0.249 C
HETATM    2  O3  UNL     1      27.386 -13.491  12.668  1.00  0.00    -0.271 OA
HETATM    3  N2  UNL     1      28.993 -14.186  11.131  1.00  0.00    -0.347 N
ATOM      4  H2  UNL     1      29.822 -14.744  10.927  1.00  0.00     0.163 HD
ENDROOT
BRANCH   3   5
HETATM    5  C8  UNL     1      28.403 -13.374  10.100  1.00  0.00     0.154 C
BRANCH   5   6
HETATM    6  C9  UNL     1      27.640 -14.107   9.055  1.00  0.00     0.037 C
BRANCH   6   7
HETATM    7  C10 UNL     1      26.205 -13.790   8.876  1.00  0.00    -0.020 C
HETATM    8  C11 UNL     1      25.318 -14.211  10.017  1.00  0.00     0.009 C
HETATM    9  C12 UNL     1      25.703 -14.557   7.638  1.00  0.00     0.009 C
ENDBRANCH   6   7
ENDBRANCH   5   6
BRANCH   5  10
HETATM   10  C13 UNL     1      29.433 -12.564   9.413  1.00  0.00     0.120 C
HETATM   11  N3  UNL     1      30.374 -12.017  10.045  1.00  0.00    -0.255 N
ATOM     12  H3  UNL     1      30.996 -11.493   9.431  1.00  0.00     0.195 HD
BRANCH  11  13
HETATM   13  O4  UNL     1      30.752 -11.954  11.305  1.00  0.00    -0.288 OA
ATOM     14  H4  UNL     1      31.307 -11.382  11.820  1.00  0.00     0.244 HD
ENDBRANCH  11  13
BRANCH  10  15
HETATM   15  N4  UNL     1      29.341 -12.410   7.973  1.00  0.00    -0.372 N
ATOM     16  H4  UNL     1      28.439 -12.179   7.556  1.00  0.00     0.161 HD
BRANCH  15  17
HETATM   17  C14 UNL     1      30.479 -12.575   7.124  1.00  0.00     0.083 C
HETATM   18  C15 UNL     1      30.509 -13.888   6.383  1.00  0.00     0.025 C
HETATM   19  C16 UNL     1      31.529 -13.847   5.281  1.00  0.00     0.002 C
HETATM   20  C17 UNL     1      32.635 -12.846   5.578  1.00  0.00     0.000 C
HETATM   21  C18 UNL     1      32.097 -11.454   5.692  1.00  0.00     0.002 C
HETATM   22  C19 UNL     1      30.613 -11.469   6.083  1.00  0.00     0.025 C
ENDBRANCH  15  17
ENDBRANCH  10  15
ENDBRANCH   5  10
ENDBRANCH   3   5
BRANCH   1  23
HETATM   23  C6  UNL     1      29.018 -15.055  13.479  1.00  0.00     0.242 C
BRANCH  23  24
HETATM   24  C5  UNL     1      28.446 -16.472  13.634  1.00  0.00     0.249 C
BRANCH  24  25
HETATM   25  C4  UNL     1      29.132 -17.506  12.788  1.00  0.00     0.151 C
BRANCH  25  26
HETATM   26  C3  UNL     1      28.652 -18.933  13.054  1.00  0.00     0.034 C
BRANCH  26  27
HETATM   27  C2  UNL     1      29.288 -19.305  14.404  1.00  0.00    -0.002 C
HETATM   28  C1  UNL     1      29.001 -20.728  14.774  1.00  0.00     0.005 C
ENDBRANCH  26  27
ENDBRANCH  25  26
BRANCH  25  29
HETATM   29  O1  UNL     1      28.623 -17.341  11.428  1.00  0.00    -0.393 OA
ATOM     30  H1  UNL     1      27.832 -16.851  11.621  1.00  0.00     0.210 HD
ENDBRANCH  25  29
ENDBRANCH  24  25
BRANCH  24  31
HETATM   31  N1  UNL     1      27.135 -16.275  12.876  1.00  0.00    -0.070 N
ATOM     32  H13 UNL     1      26.777 -17.106  12.406  1.00  0.00     0.275 HD
ATOM     33  H12 UNL     1      26.311 -16.136  13.461  1.00  0.00     0.275 HD
ATOM     34  H11 UNL     1      27.369 -15.494  12.262  1.00  0.00     0.275 HD
ENDBRANCH  24  31
ENDBRANCH  23  24
BRANCH  23  35
HETATM   35  O2  UNL     1      30.369 -15.304  13.041  1.00  0.00    -0.384 OA
ATOM     36  H2  UNL     1      30.462 -14.712  12.304  1.00  0.00     0.210 HD
ENDBRANCH  23  35
ENDBRANCH   1  23
TORSDOF 15
ENDMDL