MODEL 3
REMARK VINA RESULT: -8.352014907      2.543      3.324
REMARK  7 active torsions:
REMARK  status: ('A' for Active; 'I' for Inactive)
REMARK       I    between atoms: C1_2  and  N1_3
REMARK       I    between atoms: C1_2  and  N3_21
REMARK    1  A    between atoms: N1_3  and  C2_5
REMARK    2  A    between atoms: C2_5  and  C3_6
REMARK    3  A    between atoms: C3_6  and  C4_7
REMARK    4  A    between atoms: C4_7  and  N2_8
REMARK    5  A    between atoms: C7_12  and  C8_13
REMARK    6  A    between atoms: C8_13  and  C9_14
REMARK    7  A    between atoms: N3_21  and  C16_23
ROOT
HETATM    1  C4  UNL     1      -3.226  -6.361  -8.019  1.00  0.00     0.065 C
ENDROOT
BRANCH   1   2
HETATM    2  C3  UNL     1      -4.691  -6.453  -7.881  1.00  0.00     0.064 C
BRANCH   2   3
HETATM    3  C2  UNL     1      -5.503  -6.521  -9.127  1.00  0.00     0.129 C
BRANCH   3   4
HETATM    4  N1  UNL     1      -6.918  -6.481  -8.922  1.00  0.00    -0.343 N
HETATM    5  C1  UNL     1      -7.666  -7.614  -9.426  1.00  0.00     0.316 C
HETATM    6  O1  UNL     1      -7.094  -8.570  -9.999  1.00  0.00    -0.247 OA
HETATM    7  N3  UNL     1      -9.064  -7.663  -9.276  1.00  0.00    -0.339 N
ATOM      8  H3  UNL     1      -9.531  -6.885  -8.810  1.00  0.00     0.164 HD
ATOM      9  H1  UNL     1      -7.373  -5.700  -8.450  1.00  0.00     0.164 HD
BRANCH   7  10
HETATM   10  C16 UNL     1      -9.869  -8.764  -9.753  1.00  0.00     0.086 C
HETATM   11  C17 UNL     1     -10.888  -9.102  -8.712  1.00  0.00     0.025 C
HETATM   12  C18 UNL     1     -12.228  -8.972  -9.373  1.00  0.00     0.002 C
HETATM   13  C19 UNL     1     -12.032  -8.051 -10.563  1.00  0.00     0.002 C
HETATM   14  C20 UNL     1     -10.646  -8.401 -11.008  1.00  0.00     0.025 C
ENDBRANCH   7  10
ENDBRANCH   3   4
ENDBRANCH   2   3
ENDBRANCH   1   2
BRANCH   1  15
HETATM   15  N2  UNL     1      -2.514  -5.314  -7.414  1.00  0.00    -0.372 N
HETATM   16  C5  UNL     1      -3.069  -4.806  -6.188  1.00  0.00     0.153 C
HETATM   17  C6  UNL     1      -2.885  -5.654  -4.987  1.00  0.00     0.188 C
HETATM   18  O2  UNL     1      -2.059  -6.734  -5.104  1.00  0.00    -0.384 OA
HETATM   19  C7  UNL     1      -0.721  -6.487  -5.216  1.00  0.00     0.126 C
HETATM   20  C14 UNL     1      -0.421  -5.301  -6.134  1.00  0.00     0.076 C
HETATM   21  C15 UNL     1      -1.114  -5.470  -7.465  1.00  0.00     0.065 C
BRANCH  19  22
HETATM   22  C8  UNL     1       0.023  -6.259  -3.948  1.00  0.00     0.037 C
BRANCH  22  23
HETATM   23  C9  UNL     1      -0.733  -6.645  -2.706  1.00  0.00    -0.012 C
HETATM   24  C10 UNL     1      -0.933  -5.419  -1.853  1.00  0.00     0.005 C
HETATM   25  C11 UNL     1      -1.276  -6.034  -0.496  1.00  0.00     0.000 C
HETATM   26  C12 UNL     1      -0.596  -7.383  -0.480  1.00  0.00     0.000 C
HETATM   27  C13 UNL     1       0.120  -7.517  -1.808  1.00  0.00     0.005 C
ENDBRANCH  22  23
ENDBRANCH  19  22
ENDBRANCH   1  15
TORSDOF 7
ENDMDL