MODEL 5
REMARK VINA RESULT: -7.185553588      2.979      7.226
REMARK  7 active torsions:
REMARK  status: ('A' for Active; 'I' for Inactive)
REMARK    1  A    between atoms: C2_2  and  C3_3
REMARK    2  A    between atoms: C3_3  and  C4_4
REMARK    3  A    between atoms: C4_4  and  C5_5
REMARK    4  A    between atoms: C5_5  and  C6_6
REMARK    5  A    between atoms: C6_6  and  C7_7
REMARK    6  A    between atoms: N1_13  and  C13_14
REMARK    7  A    between atoms: C13_14  and  C14_15
REMARK       I    between atoms: N3_20  and  C17_21
ROOT
HETATM    1  C7  UNL     1      -0.751  -4.196  -4.812  1.00  0.00     0.080 C
HETATM    2  C8  UNL     1       0.290  -5.297  -4.639  1.00  0.00     0.025 C
HETATM    3  C9  UNL     1      -0.317  -6.448  -3.944  1.00  0.00     0.008 C
HETATM    4  C10 UNL     1      -1.175  -6.161  -2.775  1.00  0.00    -0.001 C
HETATM    5  C11 UNL     1      -0.440  -6.560  -1.493  1.00  0.00     0.011 C
HETATM    6  C12 UNL     1      -1.699  -4.776  -2.670  1.00  0.00     0.122 C
HETATM    7  N1  UNL     1      -1.193  -3.786  -3.544  1.00  0.00    -0.391 N
ENDROOT
BRANCH   7   8
HETATM    8  C13 UNL     1      -0.629  -2.640  -2.909  1.00  0.00     0.110 C
HETATM    9  C15 UNL     1       0.227  -2.985  -1.731  1.00  0.00     0.060 C
HETATM   10  C16 UNL     1       0.759  -1.764  -1.006  1.00  0.00     0.130 C
HETATM   11  N3  UNL     1       1.207  -0.742  -1.893  1.00  0.00    -0.336 N
HETATM   12  C17 UNL     1       2.250   0.183  -1.510  1.00  0.00     0.330 C
HETATM   13  C18 UNL     1       0.659  -0.563  -3.212  1.00  0.00     0.130 C
HETATM   14  N4  UNL     1       2.716   1.202  -2.355  1.00  0.00    -0.040 NA
HETATM   15  O2  UNL     1       2.739   0.050  -0.372  1.00  0.00    -0.251 OA
HETATM   16  C19 UNL     1       0.285  -1.873  -3.846  1.00  0.00     0.060 C
BRANCH   8  17
HETATM   17  C14 UNL     1      -1.739  -1.696  -2.608  1.00  0.00     0.259 C
HETATM   18  N2  UNL     1      -2.387  -1.072  -3.717  1.00  0.00    -0.060 NA
HETATM   19  O1  UNL     1      -2.139  -1.408  -1.446  1.00  0.00    -0.274 OA
ENDBRANCH   8  17
ENDBRANCH   7   8
BRANCH   1  20
HETATM   20  C6  UNL     1      -1.863  -4.847  -5.601  1.00  0.00     0.025 C
BRANCH  20  21
HETATM   21  C5  UNL     1      -1.530  -5.359  -6.947  1.00  0.00     0.002 C
BRANCH  21  22
HETATM   22  C4  UNL     1      -2.627  -6.106  -7.652  1.00  0.00     0.000 C
BRANCH  22  23
HETATM   23  C3  UNL     1      -3.926  -6.075  -6.865  1.00  0.00    -0.000 C
BRANCH  23  24
HETATM   24  C2  UNL     1      -5.025  -6.434  -7.864  1.00  0.00    -0.005 C
HETATM   25  C1  UNL     1      -4.539  -6.445  -9.283  1.00  0.00     0.005 C
ENDBRANCH  23  24
ENDBRANCH  22  23
ENDBRANCH  21  22
ENDBRANCH  20  21
ENDBRANCH   1  20
TORSDOF 7
ENDMDL