MODEL 1
REMARK VINA RESULT: -8.725593567      0.000      0.000
REMARK  9 active torsions:
REMARK  status: ('A' for Active; 'I' for Inactive)
REMARK    1  A    between atoms: C2_2  and  C3_3
REMARK    2  A    between atoms: C3_3  and  N1_4
REMARK    3  A    between atoms: C9_12  and  N3_13
REMARK    4  A    between atoms: N3_13  and  C10_15
REMARK    5  A    between atoms: C10_15  and  C11_16
REMARK    6  A    between atoms: C11_16  and  C12_17
REMARK    7  A    between atoms: C12_17  and  C13_18
REMARK    8  A    between atoms: C13_18  and  C14_19
REMARK    9  A    between atoms: C14_19  and  N4_20
ROOT
HETATM    1  N1  UNL     1      -8.086  -7.672 -10.741  1.00  0.00     0.093 N
HETATM    2  C4  UNL     1      -6.786  -8.215 -10.990  1.00  0.00     0.277 C
HETATM    3  C5  UNL     1      -5.747  -7.262 -10.412  1.00  0.00     0.070 C
HETATM    4  C6  UNL     1      -6.065  -7.021  -9.008  1.00  0.00    -0.036 A
HETATM    5  C7  UNL     1      -5.070  -6.489  -8.185  1.00  0.00    -0.029 A
HETATM    6  C8  UNL     1      -5.358  -6.270  -6.858  1.00  0.00     0.017 A
HETATM    7  N2  UNL     1      -6.558  -6.563  -6.367  1.00  0.00    -0.345 N
ATOM      8  H2  UNL     1      -6.731  -6.388  -5.377  1.00  0.00     0.167 HD
HETATM    9  C9  UNL     1      -7.585  -7.092  -7.128  1.00  0.00     0.110 A
HETATM   10  C15 UNL     1      -7.305  -7.317  -8.489  1.00  0.00     0.021 A
HETATM   11  C16 UNL     1      -8.388  -7.858  -9.331  1.00  0.00     0.315 C
HETATM   12  C17 UNL     1      -4.474  -5.713  -5.795  1.00  0.00     0.057 C
HETATM   13  C18 UNL     1      -3.126  -6.357  -5.777  1.00  0.00     0.006 C
HETATM   14  C19 UNL     1      -2.368  -6.315  -7.056  1.00  0.00     0.001 C
HETATM   15  C20 UNL     1      -2.921  -5.397  -8.102  1.00  0.00     0.005 C
HETATM   16  C21 UNL     1      -3.841  -6.266  -8.981  1.00  0.00     0.041 C
ENDROOT
BRANCH   9  17
HETATM   17  N3  UNL     1      -8.655  -7.344  -6.571  1.00  0.00    -0.376 N
ATOM     18  H3  UNL     1      -8.469  -7.377  -5.569  1.00  0.00     0.161 HD
BRANCH  17  19
HETATM   19  C10 UNL     1      -9.992  -7.598  -6.738  1.00  0.00     0.121 C
BRANCH  19  20
HETATM   20  C11 UNL     1     -10.263  -9.079  -6.396  1.00  0.00     0.020 C
BRANCH  20  21
HETATM   21  C12 UNL     1     -10.675  -9.845  -7.622  1.00  0.00     0.003 C
BRANCH  21  22
HETATM   22  C13 UNL     1     -12.135  -9.592  -7.875  1.00  0.00     0.027 C
BRANCH  22  23
HETATM   23  C14 UNL     1     -12.773 -10.715  -8.631  1.00  0.00     0.229 C
BRANCH  23  24
HETATM   24  N4  UNL     1     -13.869 -10.212  -9.458  1.00  0.00    -0.079 N
ATOM     25  H43 UNL     1     -14.286  -9.368  -9.066  1.00  0.00     0.274 HD
ATOM     26  H42 UNL     1     -13.533  -9.820 -10.338  1.00  0.00     0.274 HD
ATOM     27  H41 UNL     1     -14.563 -10.944  -9.610  1.00  0.00     0.274 HD
ENDBRANCH  23  24
ENDBRANCH  22  23
ENDBRANCH  21  22
ENDBRANCH  20  21
ENDBRANCH  19  20
ENDBRANCH  17  19
ENDBRANCH   9  17
BRANCH   1  28
HETATM   28  C3  UNL     1      -9.143  -8.278 -11.489  1.00  0.00     0.272 C
BRANCH  28  29
HETATM   29  C2  UNL     1     -10.289  -8.774 -10.681  1.00  0.00     0.026 C
HETATM   30  C1  UNL     1     -11.540  -8.041 -11.126  1.00  0.00     0.007 C
ENDBRANCH  28  29
ENDBRANCH   1  28
TORSDOF 9
ENDMDL