MODEL 2
REMARK VINA RESULT: -8.543507892      1.798      2.763
REMARK  7 active torsions:
REMARK  status: ('A' for Active; 'I' for Inactive)
REMARK    1  A    between atoms: C2_2  and  O1_3
REMARK    2  A    between atoms: O1_3  and  C3_4
REMARK    3  A    between atoms: N1_12  and  C11_13
REMARK    4  A    between atoms: C11_13  and  C12_14
REMARK    5  A    between atoms: C12_14  and  C13_15
REMARK    6  A    between atoms: C13_15  and  N2_16
REMARK       I    between atoms: N2_16  and  C14_18
REMARK       I    between atoms: C14_18  and  N3_20
REMARK    7  A    between atoms: N3_20  and  C15_22
ROOT
HETATM    1  C12 UNL     1      -2.654  -6.601  -8.198  1.00  0.00     0.064 C
ENDROOT
BRANCH   1   2
HETATM    2  C11 UNL     1      -1.635  -5.615  -7.685  1.00  0.00     0.060 C
BRANCH   2   3
HETATM    3  N1  UNL     1      -1.353  -5.855  -6.349  1.00  0.00    -0.384 N
HETATM    4  C5  UNL     1      -0.726  -4.813  -5.600  1.00  0.00     0.086 C
HETATM    5  C4  UNL     1       0.072  -5.209  -4.426  1.00  0.00     0.057 C
HETATM    6  C6  UNL     1      -1.881  -3.905  -5.144  1.00  0.00     0.025 C
HETATM    7  C3  UNL     1      -0.301  -6.497  -3.774  1.00  0.00     0.125 C
HETATM    8  C10 UNL     1      -1.066  -7.443  -4.615  1.00  0.00     0.057 C
HETATM    9  C9  UNL     1      -2.046  -6.794  -5.580  1.00  0.00     0.086 C
HETATM   10  C8  UNL     1      -3.142  -6.069  -4.827  1.00  0.00     0.025 C
HETATM   11  C7  UNL     1      -3.186  -4.609  -5.080  1.00  0.00     0.004 C
BRANCH   7  12
HETATM   12  O1  UNL     1      -0.979  -6.335  -2.567  1.00  0.00    -0.386 OA
BRANCH  12  13
HETATM   13  C2  UNL     1      -0.613  -5.152  -1.913  1.00  0.00     0.163 C
HETATM   14  C1  UNL     1      -1.784  -4.433  -1.335  1.00  0.00     0.033 C
ENDBRANCH  12  13
ENDBRANCH   7  12
ENDBRANCH   2   3
ENDBRANCH   1   2
BRANCH   1  15
HETATM   15  C13 UNL     1      -3.942  -5.935  -8.619  1.00  0.00     0.129 C
BRANCH  15  16
HETATM   16  N2  UNL     1      -5.050  -6.730  -8.192  1.00  0.00    -0.343 N
HETATM   17  C14 UNL     1      -6.295  -6.778  -8.879  1.00  0.00     0.316 C
HETATM   18  O2  UNL     1      -6.469  -6.098  -9.919  1.00  0.00    -0.247 OA
HETATM   19  N3  UNL     1      -7.357  -7.587  -8.406  1.00  0.00    -0.339 N
ATOM     20  H3  UNL     1      -7.220  -8.142  -7.562  1.00  0.00     0.164 HD
ATOM     21  H2  UNL     1      -4.942  -7.295  -7.349  1.00  0.00     0.164 HD
BRANCH  19  22
HETATM   22  C15 UNL     1      -8.636  -7.645  -9.095  1.00  0.00     0.086 C
HETATM   23  C16 UNL     1      -8.392  -8.281 -10.444  1.00  0.00     0.025 C
HETATM   24  C17 UNL     1      -9.676  -8.512 -11.203  1.00  0.00     0.002 C
HETATM   25  C18 UNL     1     -10.893  -8.269 -10.332  1.00  0.00     0.000 C
HETATM   26  C19 UNL     1     -10.739  -9.031  -9.035  1.00  0.00     0.002 C
HETATM   27  C20 UNL     1      -9.610  -8.419  -8.257  1.00  0.00     0.025 C
ENDBRANCH  19  22
ENDBRANCH  15  16
ENDBRANCH   1  15
TORSDOF 7
ENDMDL