MODEL 5
REMARK VINA RESULT: -8.661031192      2.605     10.501
REMARK  8 active torsions:
REMARK  status: ('A' for Active; 'I' for Inactive)
REMARK    1  A    between atoms: C1_2  and  C2_3
REMARK       I    between atoms: C1_2  and  N2_16
REMARK    2  A    between atoms: C2_3  and  C3_4
REMARK    3  A    between atoms: C3_4  and  C4_5
REMARK    4  A    between atoms: C4_5  and  C5_6
REMARK    5  A    between atoms: C5_6  and  C6_7
REMARK       I    between atoms: C6_7  and  N1_9
REMARK    6  A    between atoms: N2_16  and  C13_18
REMARK    7  A    between atoms: C13_18  and  N3_20
REMARK    8  A    between atoms: N3_20  and  C14_22
ROOT
HETATM    1  O1  UNL     1      -3.942  -4.620  -5.061  1.00  0.00    -0.273 OA
HETATM    2  C1  UNL     1      -3.588  -5.432  -5.945  1.00  0.00     0.223 C
HETATM    3  N2  UNL     1      -2.222  -5.713  -6.150  1.00  0.00    -0.304 N
ATOM      4  H2  UNL     1      -1.974  -6.380  -6.880  1.00  0.00     0.171 HD
ENDROOT
BRANCH   2   5
HETATM    5  C2  UNL     1      -4.620  -6.095  -6.771  1.00  0.00     0.103 C
BRANCH   5   6
HETATM    6  C3  UNL     1      -4.157  -6.263  -8.188  1.00  0.00     0.010 C
BRANCH   6   7
HETATM    7  C4  UNL     1      -5.271  -6.501  -9.171  1.00  0.00     0.010 C
BRANCH   7   8
HETATM    8  C5  UNL     1      -6.446  -7.224  -8.589  1.00  0.00     0.103 C
BRANCH   8   9
HETATM    9  C6  UNL     1      -7.457  -7.570  -9.613  1.00  0.00     0.219 C
HETATM   10  O2  UNL     1      -7.109  -7.664 -10.812  1.00  0.00    -0.273 OA
HETATM   11  N1  UNL     1      -8.818  -7.803  -9.294  1.00  0.00    -0.352 N
HETATM   12  C7  UNL     1      -9.724  -8.135 -10.376  1.00  0.00     0.125 C
HETATM   13  C12 UNL     1      -9.221  -7.691  -7.898  1.00  0.00     0.125 C
HETATM   14  C8  UNL     1     -10.651  -9.278  -9.997  1.00  0.00     0.020 C
HETATM   15  C9  UNL     1     -11.585  -8.913  -8.891  1.00  0.00     0.002 C
HETATM   16  C10 UNL     1     -11.090  -9.234  -7.520  1.00  0.00     0.002 C
HETATM   17  C11 UNL     1      -9.587  -9.072  -7.428  1.00  0.00     0.020 C
ENDBRANCH   8   9
ENDBRANCH   7   8
ENDBRANCH   6   7
ENDBRANCH   5   6
ENDBRANCH   2   5
BRANCH   3  18
HETATM   18  C13 UNL     1      -1.167  -5.119  -5.398  1.00  0.00     0.174 C
HETATM   19  S1  UNL     1      -0.241  -6.106  -4.495  1.00  0.00    -0.041 SA
BRANCH  18  20
HETATM   20  N3  UNL     1      -0.956  -3.736  -5.445  1.00  0.00    -0.362 N
ATOM     21  H3  UNL     1      -0.714  -3.350  -6.358  1.00  0.00     0.162 HD
BRANCH  20  22
HETATM   22  C14 UNL     1      -1.039  -2.795  -4.364  1.00  0.00     0.083 C
HETATM   23  C15 UNL     1      -1.285  -1.398  -4.848  1.00  0.00     0.025 C
HETATM   24  C16 UNL     1      -0.800  -0.529  -3.698  1.00  0.00     0.002 C
HETATM   25  C17 UNL     1       0.484  -1.222  -3.322  1.00  0.00     0.002 C
HETATM   26  C18 UNL     1       0.197  -2.695  -3.523  1.00  0.00     0.025 C
ENDBRANCH  20  22
ENDBRANCH  18  20
ENDBRANCH   3  18
TORSDOF 8
ENDMDL