MODEL 1
REMARK VINA RESULT: -7.255287625      0.000      0.000
REMARK  7 active torsions:
REMARK  status: ('A' for Active; 'I' for Inactive)
REMARK    1  A    between atoms: C2_2  and  C3_3
REMARK    2  A    between atoms: C3_3  and  N1_4
REMARK       I    between atoms: N1_4  and  C4_6
REMARK       I    between atoms: C4_6  and  N2_8
REMARK    3  A    between atoms: N2_8  and  C5_9
REMARK    4  A    between atoms: N2_8  and  C14_20
REMARK    5  A    between atoms: C5_9  and  C6_10
REMARK    6  A    between atoms: C9_13  and  C10_14
REMARK    7  A    between atoms: C10_14  and  C11_15
ROOT
HETATM    1  N1  UNL     1      -3.286  -5.450  -5.288  1.00  0.00    -0.343 N
ATOM      2  H1  UNL     1      -2.549  -6.094  -5.576  1.00  0.00     0.164 HD
HETATM    3  C4  UNL     1      -2.936  -4.278  -4.575  1.00  0.00     0.318 C
HETATM    4  O1  UNL     1      -3.841  -3.503  -4.235  1.00  0.00    -0.247 OA
HETATM    5  N2  UNL     1      -1.586  -3.959  -4.240  1.00  0.00    -0.328 N
ENDROOT
BRANCH   5   6
HETATM    6  C5  UNL     1      -0.543  -4.893  -4.585  1.00  0.00     0.132 C
BRANCH   6   7
HETATM    7  C6  UNL     1      -0.210  -5.949  -3.602  1.00  0.00     0.004 C
HETATM    8  C7  UNL     1      -0.017  -7.233  -4.428  1.00  0.00     0.006 C
HETATM    9  C8  UNL     1      -1.321  -7.996  -4.414  1.00  0.00     0.005 C
HETATM   10  C9  UNL     1      -1.629  -8.581  -3.063  1.00  0.00    -0.006 C
HETATM   11  C12 UNL     1      -1.140  -7.643  -2.003  1.00  0.00     0.005 C
HETATM   12  C13 UNL     1      -1.275  -6.243  -2.582  1.00  0.00     0.006 C
BRANCH  10  13
HETATM   13  C10 UNL     1      -1.016  -9.958  -2.944  1.00  0.00     0.104 C
BRANCH  13  14
HETATM   14  C11 UNL     1      -1.482 -10.816  -4.037  1.00  0.00     0.231 C
HETATM   15  N3  UNL     1      -0.614 -11.350  -5.016  1.00  0.00    -0.062 NA
HETATM   16  O2  UNL     1      -2.718 -11.096  -4.113  1.00  0.00    -0.277 OA
ENDBRANCH  13  14
ENDBRANCH  10  13
ENDBRANCH   6   7
ENDBRANCH   5   6
BRANCH   5  17
HETATM   17  C14 UNL     1      -1.214  -2.761  -3.551  1.00  0.00     0.098 C
HETATM   18  C15 UNL     1       0.119  -2.735  -2.919  1.00  0.00     0.027 C
HETATM   19  C16 UNL     1       0.685  -1.365  -2.695  1.00  0.00     0.012 C
HETATM   20  C17 UNL     1      -0.261  -0.371  -2.092  1.00  0.00     0.074 C
HETATM   21  S1  UNL     1      -1.582  -0.127  -3.350  1.00  0.00    -0.167 SA
HETATM   22  C18 UNL     1      -1.339  -1.541  -4.490  1.00  0.00     0.099 C
ENDBRANCH   5  17
BRANCH   1  23
HETATM   23  C3  UNL     1      -4.658  -5.762  -5.620  1.00  0.00     0.124 C
BRANCH  23  24
HETATM   24  C2  UNL     1      -4.811  -6.171  -7.061  1.00  0.00     0.015 C
HETATM   25  C1  UNL     1      -3.458  -6.194  -7.744  1.00  0.00     0.006 C
ENDBRANCH  23  24
ENDBRANCH   1  23
TORSDOF 7
ENDMDL