MODEL 4
REMARK VINA RESULT: -7.328632286      2.229      5.968
REMARK  8 active torsions:
REMARK  status: ('A' for Active; 'I' for Inactive)
REMARK    1  A    between atoms: C3_6  and  C4_7
REMARK    2  A    between atoms: C4_7  and  C5_8
REMARK    3  A    between atoms: C5_8  and  O2_9
REMARK    4  A    between atoms: N2_11  and  C6_12
REMARK    5  A    between atoms: C6_12  and  C7_13
REMARK    6  A    between atoms: C7_13  and  C8_14
REMARK    7  A    between atoms: C14_20  and  C15_21
REMARK    8  A    between atoms: C15_21  and  C16_22
ROOT
HETATM    1  O1  UNL     1      -0.195  -5.011  -7.102  1.00  0.00    -0.267 OA
HETATM    2  C1  UNL     1      -0.596  -4.959  -5.915  1.00  0.00     0.258 C
HETATM    3  N1  UNL     1      -0.028  -4.036  -4.997  1.00  0.00    -0.355 N
ATOM      4  H1  UNL     1       0.440  -3.201  -5.347  1.00  0.00     0.162 HD
HETATM    5  C2  UNL     1      -0.105  -4.271  -3.545  1.00  0.00     0.143 C
HETATM    6  C3  UNL     1      -0.562  -5.679  -3.301  1.00  0.00     0.083 C
HETATM    7  N2  UNL     1      -1.692  -6.115  -4.033  1.00  0.00    -0.276 NA
HETATM    8  C14 UNL     1      -1.674  -5.849  -5.417  1.00  0.00     0.057 C
ENDROOT
BRANCH   7   9
HETATM    9  C6  UNL     1      -2.118  -7.418  -3.684  1.00  0.00     0.096 C
BRANCH   9  10
HETATM   10  C7  UNL     1      -1.447  -8.556  -4.409  1.00  0.00     0.019 C
BRANCH  10  11
HETATM   11  C8  UNL     1      -1.679  -9.860  -3.690  1.00  0.00    -0.013 C
HETATM   12  C9  UNL     1      -0.862  -9.894  -2.390  1.00  0.00     0.005 C
HETATM   13  C10 UNL     1      -1.435 -11.034  -1.575  1.00  0.00     0.000 C
HETATM   14  C11 UNL     1      -1.391 -12.340  -2.290  1.00  0.00     0.000 C
HETATM   15  C12 UNL     1      -1.762 -12.300  -3.726  1.00  0.00     0.000 C
HETATM   16  C13 UNL     1      -1.303 -11.072  -4.465  1.00  0.00     0.005 C
ENDBRANCH  10  11
ENDBRANCH   9  10
ENDBRANCH   7   9
BRANCH   6  17
HETATM   17  C4  UNL     1      -0.560  -6.005  -1.874  1.00  0.00     0.047 C
BRANCH  17  18
HETATM   18  C5  UNL     1      -1.193  -5.076  -0.912  1.00  0.00     0.165 C
BRANCH  18  19
HETATM   19  O2  UNL     1      -2.483  -4.706  -1.108  1.00  0.00    -0.401 OA
ATOM     20  H2  UNL     1      -3.157  -5.066  -0.543  1.00  0.00     0.209 HD
ENDBRANCH  18  19
ENDBRANCH  17  18
ENDBRANCH   6  17
BRANCH   8  21
HETATM   21  C15 UNL     1      -2.997  -5.584  -6.000  1.00  0.00     0.061 C
BRANCH  21  22
HETATM   22  C16 UNL     1      -3.639  -6.548  -6.902  1.00  0.00    -0.009 C
HETATM   23  C17 UNL     1      -5.123  -6.142  -7.094  1.00  0.00     0.005 C
HETATM   24  C18 UNL     1      -5.758  -6.971  -8.159  1.00  0.00     0.000 C
HETATM   25  C19 UNL     1      -5.248  -6.458  -9.499  1.00  0.00     0.000 C
HETATM   26  C20 UNL     1      -3.911  -5.797  -9.265  1.00  0.00     0.000 C
HETATM   27  C21 UNL     1      -3.084  -6.630  -8.291  1.00  0.00     0.005 C
ENDBRANCH  21  22
ENDBRANCH   8  21
TORSDOF 8
ENDMDL