MODEL 1
REMARK VINA RESULT: -8.600669638      0.000      0.000
REMARK  9 active torsions:
REMARK  status: ('A' for Active; 'I' for Inactive)
REMARK    1  A    between atoms: C3_3  and  C4_4
REMARK    2  A    between atoms: C9_9  and  N1_10
REMARK       I    between atoms: N1_10  and  C10_12
REMARK    3  A    between atoms: C10_12  and  C11_14
REMARK    4  A    between atoms: C11_14  and  N2_15
REMARK    5  A    between atoms: C11_14  and  C12_19
REMARK    6  A    between atoms: C12_19  and  C13_20
REMARK    7  A    between atoms: C13_20  and  C14_21
REMARK    8  A    between atoms: C14_21  and  C15_22
REMARK    9  A    between atoms: C15_22  and  O2_23
ROOT
HETATM    1  C1  UNL     1      -1.312 -10.001  -4.459  1.00  0.00     0.012 C
HETATM    2  C2  UNL     1      -1.434  -9.017  -3.751  1.00  0.00    -0.117 C
HETATM    3  C3  UNL     1      -1.572  -7.843  -2.887  1.00  0.00     0.102 C
ENDROOT
BRANCH   3   4
HETATM    4  C4  UNL     1      -1.555  -6.594  -3.765  1.00  0.00    -0.027 C
HETATM    5  C5  UNL     1      -0.166  -6.506  -4.351  1.00  0.00     0.015 C
HETATM    6  C6  UNL     1      -0.050  -5.267  -5.217  1.00  0.00    -0.013 C
HETATM    7  C7  UNL     1      -0.681  -5.588  -6.539  1.00  0.00     0.007 C
HETATM    8  C19 UNL     1      -0.570  -4.034  -4.567  1.00  0.00     0.009 C
HETATM    9  C8  UNL     1      -2.100  -5.139  -6.668  1.00  0.00     0.031 C
HETATM   10  C9  UNL     1      -2.985  -5.477  -5.534  1.00  0.00     0.034 C
HETATM   11  C17 UNL     1      -3.013  -4.286  -4.596  1.00  0.00     0.035 C
HETATM   12  C21 UNL     1      -2.604  -6.740  -4.803  1.00  0.00     0.041 C
HETATM   13  C18 UNL     1      -1.790  -4.185  -3.734  1.00  0.00    -0.011 C
HETATM   14  C20 UNL     1      -1.730  -5.421  -2.865  1.00  0.00     0.015 C
BRANCH  10  15
HETATM   15  N1  UNL     1      -4.332  -5.680  -6.015  1.00  0.00    -0.350 N
HETATM   16  C10 UNL     1      -4.693  -6.187  -7.287  1.00  0.00     0.248 C
HETATM   17  O1  UNL     1      -3.800  -6.505  -8.101  1.00  0.00    -0.271 OA
ATOM     18  H1  UNL     1      -5.092  -5.437  -5.380  1.00  0.00     0.163 HD
BRANCH  16  19
HETATM   19  C11 UNL     1      -6.100  -6.365  -7.713  1.00  0.00     0.274 C
BRANCH  19  20
HETATM   20  N2  UNL     1      -6.955  -6.852  -6.666  1.00  0.00    -0.067 N
ATOM     21  H23 UNL     1      -6.951  -6.215  -5.869  1.00  0.00     0.275 HD
ATOM     22  H22 UNL     1      -7.936  -6.779  -6.935  1.00  0.00     0.275 HD
ATOM     23  H21 UNL     1      -6.731  -7.803  -6.371  1.00  0.00     0.275 HD
ENDBRANCH  19  20
BRANCH  19  24
HETATM   24  C12 UNL     1      -6.196  -7.365  -8.873  1.00  0.00     0.042 C
BRANCH  24  25
HETATM   25  C13 UNL     1      -7.318  -6.865  -9.781  1.00  0.00     0.004 C
BRANCH  25  26
HETATM   26  C14 UNL     1      -8.285  -8.025  -9.999  1.00  0.00     0.026 C
BRANCH  26  27
HETATM   27  C15 UNL     1      -9.355  -8.034  -8.955  1.00  0.00     0.167 C
BRANCH  27  28
HETATM   28  O2  UNL     1      -8.985  -8.792  -7.877  1.00  0.00    -0.396 OA
HETATM   29  C16 UNL     1      -9.935  -8.939  -6.905  1.00  0.00     0.201 C
ENDBRANCH  27  28
ENDBRANCH  26  27
ENDBRANCH  25  26
ENDBRANCH  24  25
ENDBRANCH  19  24
ENDBRANCH  16  19
ENDBRANCH  10  15
ENDBRANCH   3   4
TORSDOF 9
ENDMDL