MODEL 1
REMARK VINA RESULT: -7.859771853      0.000      0.000
REMARK  7 active torsions:
REMARK  status: ('A' for Active; 'I' for Inactive)
REMARK    1  A    between atoms: N1_2  and  C2_5
REMARK    2  A    between atoms: C2_5  and  C3_6
REMARK    3  A    between atoms: C3_6  and  C4_7
REMARK    4  A    between atoms: C4_7  and  N2_8
REMARK       I    between atoms: N2_8  and  C5_10
REMARK    5  A    between atoms: C5_10  and  C6_12
REMARK    6  A    between atoms: C6_12  and  C7_13
REMARK    7  A    between atoms: C6_12  and  N3_18
ROOT
HETATM    1  C6  UNL     1      -1.908  -4.870  -5.470  1.00  0.00     0.318 C
ENDROOT
BRANCH   1   2
HETATM    2  C5  UNL     1      -2.224  -3.464  -4.934  1.00  0.00     0.251 C
HETATM    3  N2  UNL     1      -1.303  -2.449  -5.198  1.00  0.00    -0.359 N
ATOM      4  H2  UNL     1      -0.465  -2.683  -5.731  1.00  0.00     0.162 HD
HETATM    5  O1  UNL     1      -3.266  -3.287  -4.296  1.00  0.00    -0.271 OA
BRANCH   3   6
HETATM    6  C4  UNL     1      -1.476  -1.076  -4.753  1.00  0.00     0.124 C
BRANCH   6   7
HETATM    7  C3  UNL     1      -0.230  -0.544  -4.095  1.00  0.00     0.047 C
BRANCH   7   8
HETATM    8  C2  UNL     1       0.251  -1.626  -3.134  1.00  0.00     0.233 C
BRANCH   8   9
HETATM    9  N1  UNL     1       1.616  -1.995  -3.359  1.00  0.00    -0.079 N
HETATM   10  C1  UNL     1       2.524  -1.242  -2.505  1.00  0.00     0.266 C
ATOM     11  H12 UNL     1       1.870  -1.904  -4.343  1.00  0.00     0.276 HD
ATOM     12  H11 UNL     1       1.753  -3.000  -3.253  1.00  0.00     0.276 HD
ENDBRANCH   8   9
ENDBRANCH   7   8
ENDBRANCH   6   7
ENDBRANCH   3   6
ENDBRANCH   1   2
BRANCH   1  13
HETATM   13  C7  UNL     1      -2.976  -5.074  -6.474  1.00  0.00     0.028 C
HETATM   14  C8  UNL     1      -2.382  -5.733  -7.727  1.00  0.00     0.007 C
HETATM   15  C9  UNL     1      -3.599  -6.198  -8.513  1.00  0.00     0.000 C
HETATM   16  C10 UNL     1      -4.738  -6.315  -7.529  1.00  0.00     0.000 C
HETATM   17  C11 UNL     1      -4.164  -5.897  -6.161  1.00  0.00     0.007 C
ENDBRANCH   1  13
BRANCH   1  18
HETATM   18  N3  UNL     1      -1.967  -5.756  -4.303  1.00  0.00     0.102 N
HETATM   19  C12 UNL     1      -0.813  -5.421  -3.430  1.00  0.00     0.274 C
HETATM   20  C13 UNL     1      -0.198  -6.590  -2.757  1.00  0.00     0.040 C
HETATM   21  C14 UNL     1      -1.128  -7.677  -2.338  1.00  0.00    -0.037 C
HETATM   22  C15 UNL     1      -1.831  -7.279  -1.056  1.00  0.00     0.010 C
HETATM   23  C19 UNL     1      -0.280  -8.927  -2.089  1.00  0.00     0.010 C
HETATM   24  C20 UNL     1      -2.104  -7.998  -3.417  1.00  0.00     0.040 C
HETATM   25  C16 UNL     1      -2.394  -8.491  -0.340  1.00  0.00     0.001 C
HETATM   26  C17 UNL     1      -1.251  -9.309   0.194  1.00  0.00     0.000 C
HETATM   27  C18 UNL     1       0.005  -9.095  -0.612  1.00  0.00     0.001 C
HETATM   28  C21 UNL     1      -1.724  -7.138  -4.646  1.00  0.00     0.274 C
ENDBRANCH   1  18
TORSDOF 7
ENDMDL