MODEL 1
REMARK VINA RESULT: -8.447395568      0.000      0.000
REMARK  8 active torsions:
REMARK  status: ('A' for Active; 'I' for Inactive)
REMARK    1  A    between atoms: C2_2  and  C3_3
REMARK    2  A    between atoms: C3_3  and  N1_4
REMARK    3  A    between atoms: C10_11  and  C11_12
REMARK    4  A    between atoms: C11_12  and  C12_13
REMARK       I    between atoms: C12_13  and  N2_15
REMARK    5  A    between atoms: N2_15  and  C13_17
REMARK    6  A    between atoms: C13_17  and  C14_18
REMARK    7  A    between atoms: C14_18  and  C15_19
REMARK    8  A    between atoms: C15_19  and  C16_20
ROOT
HETATM    1  C12 UNL     1      -4.629  -6.149  -7.695  1.00  0.00     0.217 C
HETATM    2  O1  UNL     1      -3.942  -5.863  -8.680  1.00  0.00    -0.274 OA
HETATM    3  N2  UNL     1      -5.964  -6.607  -7.839  1.00  0.00    -0.361 N
ATOM      4  H2  UNL     1      -6.496  -6.840  -7.000  1.00  0.00     0.162 HD
ENDROOT
BRANCH   1   5
HETATM    5  C11 UNL     1      -4.084  -6.022  -6.346  1.00  0.00     0.108 C
BRANCH   5   6
HETATM    6  C10 UNL     1      -2.846  -5.177  -6.204  1.00  0.00     0.001 C
HETATM    7  C8  UNL     1      -1.631  -5.963  -6.480  1.00  0.00     0.004 C
HETATM    8  C7  UNL     1      -0.746  -6.166  -5.247  1.00  0.00     0.067 C
HETATM    9  C9  UNL     1      -0.792  -5.471  -7.634  1.00  0.00     0.012 C
HETATM   10  N1  UNL     1      -1.674  -6.373  -4.154  1.00  0.00    -0.283 NA
HETATM   11  C6  UNL     1       0.060  -4.957  -4.907  1.00  0.00     0.022 C
HETATM   12  C4  UNL     1      -2.003  -5.029  -3.818  1.00  0.00     0.063 C
HETATM   13  C5  UNL     1      -0.763  -4.183  -3.886  1.00  0.00     0.022 C
HETATM   14  C21 UNL     1      -2.951  -4.500  -4.869  1.00  0.00     0.025 C
BRANCH  10  15
HETATM   15  C3  UNL     1      -1.253  -7.249  -3.139  1.00  0.00     0.059 C
BRANCH  15  16
HETATM   16  C2  UNL     1      -1.788  -8.614  -3.144  1.00  0.00     0.001 C
HETATM   17  C1  UNL     1      -1.444  -9.527  -4.048  1.00  0.00     0.012 C
ENDBRANCH  15  16
ENDBRANCH  10  15
ENDBRANCH   5   6
ENDBRANCH   1   5
BRANCH   3  18
HETATM   18  C13 UNL     1      -6.593  -6.756  -9.111  1.00  0.00     0.122 C
BRANCH  18  19
HETATM   19  C14 UNL     1      -6.949  -8.201  -9.332  1.00  0.00     0.020 C
BRANCH  19  20
HETATM   20  C15 UNL     1      -8.297  -8.317 -10.000  1.00  0.00     0.008 C
BRANCH  20  21
HETATM   21  C16 UNL     1      -9.445  -7.849  -9.167  1.00  0.00     0.011 C
HETATM   22  C17 UNL     1      -9.380  -8.607  -7.853  1.00  0.00     0.008 C
HETATM   23  C18 UNL     1     -10.706  -9.242  -7.531  1.00  0.00     0.028 C
HETATM   24  C19 UNL     1     -11.070 -10.175  -8.656  1.00  0.00     0.232 C
HETATM   25  N3  UNL     1     -11.165  -9.460  -9.901  1.00  0.00    -0.075 N
HETATM   26  C20 UNL     1     -10.793  -8.080  -9.770  1.00  0.00     0.237 C
ATOM     27  H32 UNL     1     -10.621  -9.920 -10.631  1.00  0.00     0.277 HD
ATOM     28  H31 UNL     1     -12.096  -9.553 -10.307  1.00  0.00     0.277 HD
ENDBRANCH  20  21
ENDBRANCH  19  20
ENDBRANCH  18  19
ENDBRANCH   3  18
TORSDOF 8
ENDMDL