MODEL 4
REMARK VINA RESULT: -6.425462364      2.269      3.546
REMARK  6 active torsions:
REMARK  status: ('A' for Active; 'I' for Inactive)
REMARK    1  A    between atoms: N1_2  and  C2_5
REMARK    2  A    between atoms: C2_5  and  C3_6
REMARK    3  A    between atoms: C7_10  and  N2_11
REMARK    4  A    between atoms: N3_15  and  C11_16
REMARK    5  A    between atoms: C11_16  and  C12_17
REMARK    6  A    between atoms: C12_17  and  O1_18
ROOT
HETATM    1  N2  UNL     1      -4.949  -6.257  -8.374  1.00  0.00     0.095 N
HETATM    2  C8  UNL     1      -5.171  -6.654  -9.713  1.00  0.00     0.275 C
HETATM    3  C9  UNL     1      -6.625  -6.831 -10.078  1.00  0.00     0.060 C
HETATM    4  C10 UNL     1      -7.152  -8.164  -9.572  1.00  0.00     0.274 C
HETATM    5  N3  UNL     1      -7.692  -8.064  -8.255  1.00  0.00     0.092 N
HETATM    6  C13 UNL     1      -7.166  -6.930  -7.498  1.00  0.00     0.302 C
HETATM    7  C14 UNL     1      -5.687  -7.014  -7.386  1.00  0.00     0.303 C
ENDROOT
BRANCH   1   8
HETATM    8  C7  UNL     1      -3.577  -6.324  -7.993  1.00  0.00     0.228 C
HETATM    9  C3  UNL     1      -3.152  -5.242  -7.029  1.00  0.00     0.045 C
HETATM   10  C4  UNL     1      -1.673  -5.560  -6.914  1.00  0.00     0.008 C
HETATM   11  C5  UNL     1      -1.298  -5.699  -8.385  1.00  0.00     0.003 C
HETATM   12  C6  UNL     1      -2.570  -6.203  -9.084  1.00  0.00     0.036 C
BRANCH   9  13
HETATM   13  C2  UNL     1      -3.859  -5.370  -5.708  1.00  0.00     0.238 C
BRANCH  13  14
HETATM   14  N1  UNL     1      -2.903  -5.242  -4.634  1.00  0.00    -0.079 N
HETATM   15  C1  UNL     1      -2.814  -3.838  -4.278  1.00  0.00     0.267 C
ATOM     16  H12 UNL     1      -1.996  -5.649  -4.862  1.00  0.00     0.276 HD
ATOM     17  H11 UNL     1      -3.124  -5.838  -3.836  1.00  0.00     0.276 HD
ENDBRANCH  13  14
ENDBRANCH   9  13
ENDBRANCH   1   8
BRANCH   5  18
HETATM   18  C11 UNL     1      -9.118  -8.059  -8.193  1.00  0.00     0.298 C
BRANCH  18  19
HETATM   19  C12 UNL     1      -9.689  -8.933  -7.123  1.00  0.00     0.194 C
BRANCH  19  20
HETATM   20  O1  UNL     1     -11.089  -8.945  -7.282  1.00  0.00    -0.399 OA
ATOM     21  H1  UNL     1     -11.312  -9.697  -7.819  1.00  0.00     0.209 HD
ENDBRANCH  19  20
ENDBRANCH  18  19
ENDBRANCH   5  18
TORSDOF 6
ENDMDL