MODEL 5
REMARK VINA RESULT: -6.479164760      1.793      2.700
REMARK  7 active torsions:
REMARK  status: ('A' for Active; 'I' for Inactive)
REMARK    1  A    between atoms: O1_1  and  C1_3
REMARK    2  A    between atoms: C1_3  and  C2_4
REMARK    3  A    between atoms: C2_4  and  C3_5
REMARK    4  A    between atoms: C3_5  and  N1_6
REMARK    5  A    between atoms: N2_9  and  C6_10
REMARK    6  A    between atoms: C13_17  and  C14_18
REMARK    7  A    between atoms: C14_18  and  O2_19
ROOT
HETATM    1  N1  UNL     1      -1.057  -4.409  -3.325  1.00  0.00    -0.382 N
HETATM    2  C4  UNL     1      -2.075  -3.713  -3.959  1.00  0.00     0.103 C
HETATM    3  C5  UNL     1      -2.988  -4.477  -4.860  1.00  0.00     0.102 C
HETATM    4  N2  UNL     1      -2.320  -5.039  -5.962  1.00  0.00    -0.384 N
HETATM    5  C11 UNL     1      -1.027  -4.493  -6.247  1.00  0.00     0.125 C
HETATM    6  C12 UNL     1      -0.042  -5.287  -5.440  1.00  0.00     0.047 C
HETATM    7  C13 UNL     1      -0.144  -5.227  -3.983  1.00  0.00     0.108 C
ENDROOT
BRANCH   1   8
HETATM    8  C3  UNL     1      -0.535  -3.758  -2.137  1.00  0.00     0.125 C
BRANCH   8   9
HETATM    9  C2  UNL     1      -0.534  -2.252  -2.362  1.00  0.00     0.046 C
BRANCH   9  10
HETATM   10  C1  UNL     1       0.895  -1.780  -2.586  1.00  0.00     0.165 C
BRANCH  10  11
HETATM   11  O1  UNL     1       1.280  -2.023  -3.907  1.00  0.00    -0.401 OA
ATOM     12  H1  UNL     1       1.328  -2.959  -4.066  1.00  0.00     0.209 HD
ENDBRANCH  10  11
ENDBRANCH   9  10
ENDBRANCH   8   9
ENDBRANCH   1   8
BRANCH   7  13
HETATM   13  C14 UNL     1      -0.225  -6.653  -3.408  1.00  0.00     0.189 C
BRANCH  13  14
HETATM   14  O2  UNL     1       0.145  -7.562  -4.424  1.00  0.00    -0.399 OA
ATOM     15  H2  UNL     1      -0.616  -7.729  -4.967  1.00  0.00     0.209 HD
ENDBRANCH  13  14
ENDBRANCH   7  13
BRANCH   4  16
HETATM   16  C6  UNL     1      -3.003  -5.375  -7.115  1.00  0.00     0.083 C
HETATM   17  C7  UNL     1      -2.292  -6.050  -8.229  1.00  0.00     0.025 C
HETATM   18  C8  UNL     1      -3.458  -6.301  -9.198  1.00  0.00     0.002 C
HETATM   19  C9  UNL     1      -4.713  -6.333  -8.352  1.00  0.00     0.002 C
HETATM   20  C10 UNL     1      -4.193  -6.316  -6.911  1.00  0.00     0.025 C
ENDBRANCH   4  16
TORSDOF 7
ENDMDL