MODEL 2
REMARK VINA RESULT: -6.796466583      0.516      4.775
REMARK  6 active torsions:
REMARK  status: ('A' for Active; 'I' for Inactive)
REMARK    1  A    between atoms: C2_2  and  C3_3
REMARK    2  A    between atoms: C3_3  and  N1_4
REMARK    3  A    between atoms: N1_4  and  C4_6
REMARK    4  A    between atoms: C5_9  and  N3_10
REMARK    5  A    between atoms: C10_17  and  N5_18
REMARK    6  A    between atoms: N5_18  and  C11_20
ROOT
HETATM    1  C4  UNL     1      -1.578  -4.916  -3.603  1.00  0.00     0.707 A
HETATM    2  N2  UNL     1      -2.205  -5.609  -4.565  1.00  0.00    -0.021 N
ATOM      3  H2  UNL     1      -2.503  -6.568  -4.381  1.00  0.00     0.203 HD
HETATM    4  C5  UNL     1      -2.446  -5.059  -5.765  1.00  0.00     0.709 A
HETATM    5  N4  UNL     1      -2.043  -3.794  -5.974  1.00  0.00    -0.021 N
ATOM      6  H4  UNL     1      -2.223  -3.370  -6.884  1.00  0.00     0.203 HD
HETATM    7  C10 UNL     1      -1.419  -3.072  -5.049  1.00  0.00     0.707 A
HETATM    8  N6  UNL     1      -1.182  -3.634  -3.849  1.00  0.00    -0.021 N
ATOM      9  H6  UNL     1      -0.705  -3.100  -3.123  1.00  0.00     0.203 HD
ENDROOT
BRANCH   1  10
HETATM   10  N1  UNL     1      -1.325  -5.401  -2.437  1.00  0.00    -0.222 N
ATOM     11  H1  UNL     1      -1.129  -4.761  -1.667  1.00  0.00     0.178 HD
BRANCH  10  12
HETATM   12  C3  UNL     1      -1.311  -6.824  -2.187  1.00  0.00     0.164 C
BRANCH  12  13
HETATM   13  C2  UNL     1       0.083  -7.334  -2.283  1.00  0.00    -0.017 C
HETATM   14  C1  UNL     1       0.609  -8.083  -1.327  1.00  0.00     0.008 C
ENDBRANCH  12  13
ENDBRANCH  10  12
ENDBRANCH   1  10
BRANCH   4  15
HETATM   15  N3  UNL     1      -3.113  -5.784  -6.805  1.00  0.00    -0.217 N
HETATM   16  C6  UNL     1      -2.491  -6.242  -8.029  1.00  0.00     0.141 C
HETATM   17  C7  UNL     1      -3.610  -5.943  -9.036  1.00  0.00     0.022 C
HETATM   18  C8  UNL     1      -4.807  -6.487  -8.299  1.00  0.00     0.022 C
HETATM   19  C9  UNL     1      -4.499  -6.192  -6.844  1.00  0.00     0.141 C
ENDBRANCH   4  15
BRANCH   7  20
HETATM   20  N5  UNL     1      -1.025  -1.851  -5.240  1.00  0.00    -0.220 N
ATOM     21  H5  UNL     1      -0.482  -1.653  -6.080  1.00  0.00     0.178 HD
BRANCH  20  22
HETATM   22  C11 UNL     1      -1.302  -0.767  -4.353  1.00  0.00     0.099 A
HETATM   23  C12 UNL     1      -0.244  -0.046  -3.618  1.00  0.00     0.028 A
HETATM   24  C13 UNL     1      -0.768   0.587  -4.852  1.00  0.00     0.028 A
ENDBRANCH  20  22
ENDBRANCH   7  20
TORSDOF 6
ENDMDL