MODEL 5
REMARK VINA RESULT: -7.657965090      1.051      1.564
REMARK  6 active torsions:
REMARK  status: ('A' for Active; 'I' for Inactive)
REMARK    1  A    between atoms: C1_1  and  C2_2
REMARK    2  A    between atoms: C1_1  and  C8_16
REMARK    3  A    between atoms: C2_2  and  N1_3
REMARK    4  A    between atoms: N1_3  and  C3_5
REMARK    5  A    between atoms: C4_8  and  C5_9
REMARK    6  A    between atoms: C8_16  and  N5_17
ROOT
HETATM    1  C3  UNL     1      -7.057  -7.696  -9.215  1.00  0.00     0.694 A
HETATM    2  N2  UNL     1      -8.333  -7.540  -8.807  1.00  0.00    -0.178 N
ATOM      3  H2  UNL     1      -8.634  -6.922  -8.054  1.00  0.00     0.185 HD
HETATM    4  C4  UNL     1      -9.146  -8.315  -9.537  1.00  0.00     0.116 A
HETATM    5  N3  UNL     1      -8.362  -8.964 -10.414  1.00  0.00    -0.274 N
ATOM      6  H3  UNL     1      -8.680  -9.633 -11.114  1.00  0.00     0.189 HD
HETATM    7  N4  UNL     1      -7.104  -8.588 -10.218  1.00  0.00    -0.131 N
ATOM      8  H4  UNL     1      -6.299  -8.924 -10.745  1.00  0.00     0.205 HD
ENDROOT
BRANCH   1   9
HETATM    9  N1  UNL     1      -6.021  -7.084  -8.711  1.00  0.00    -0.225 N
ATOM     10  H1  UNL     1      -5.905  -6.989  -7.703  1.00  0.00     0.177 HD
BRANCH   9  11
HETATM   11  C2  UNL     1      -5.044  -6.545  -9.628  1.00  0.00     0.140 C
BRANCH  11  12
HETATM   12  C1  UNL     1      -3.728  -6.344  -8.866  1.00  0.00     0.050 C
BRANCH  12  13
HETATM   13  C8  UNL     1      -4.103  -6.126  -7.424  1.00  0.00     0.274 C
BRANCH  13  14
HETATM   14  N5  UNL     1      -3.007  -5.645  -6.622  1.00  0.00     0.092 N
HETATM   15  C9  UNL     1      -1.863  -5.492  -7.485  1.00  0.00     0.298 C
HETATM   16  C10 UNL     1      -0.589  -5.224  -6.727  1.00  0.00     0.198 C
HETATM   17  O1  UNL     1      -0.384  -6.114  -5.690  1.00  0.00    -0.388 OA
HETATM   18  C11 UNL     1      -1.446  -6.251  -4.837  1.00  0.00     0.198 C
HETATM   19  C12 UNL     1      -2.755  -6.546  -5.517  1.00  0.00     0.298 C
ENDBRANCH  13  14
ENDBRANCH  12  13
ENDBRANCH  11  12
ENDBRANCH   9  11
ENDBRANCH   1   9
BRANCH   4  20
HETATM   20  C5  UNL     1     -10.639  -8.437  -9.404  1.00  0.00     0.055 A
HETATM   21  C6  UNL     1     -11.335  -9.453 -10.285  1.00  0.00     0.013 A
HETATM   22  C7  UNL     1     -11.107  -9.817  -8.846  1.00  0.00     0.013 A
ENDBRANCH   4  20
TORSDOF 6
ENDMDL