MODEL 3
REMARK VINA RESULT: -7.471031410      2.973      7.790
REMARK  6 active torsions:
REMARK  status: ('A' for Active; 'I' for Inactive)
REMARK    1  A    between atoms: N1_2  and  C2_3
REMARK    2  A    between atoms: N1_2  and  C10_17
REMARK    3  A    between atoms: C2_3  and  C3_4
REMARK    4  A    between atoms: C3_4  and  O1_5
REMARK    5  A    between atoms: C3_4  and  C4_7
REMARK    6  A    between atoms: C4_7  and  N2_8
ROOT
HETATM    1  C3  UNL     1      -3.241  -5.422  -8.093  1.00  0.00     0.164 C
ENDROOT
BRANCH   1   2
HETATM    2  C2  UNL     1      -2.377  -6.456  -7.429  1.00  0.00     0.305 C
BRANCH   2   3
HETATM    3  N1  UNL     1      -2.439  -6.337  -6.015  1.00  0.00     0.093 N
HETATM    4  C1  UNL     1      -3.238  -5.258  -5.561  1.00  0.00     0.310 C
BRANCH   3   5
HETATM    5  C10 UNL     1      -1.144  -6.473  -5.441  1.00  0.00     0.248 C
HETATM    6  C11 UNL     1      -0.210  -5.339  -5.793  1.00  0.00     0.064 C
HETATM    7  C12 UNL     1       0.037  -4.692  -4.461  1.00  0.00     0.170 C
HETATM    8  O2  UNL     1      -0.231  -5.612  -3.473  1.00  0.00    -0.389 OA
HETATM    9  C13 UNL     1      -1.171  -6.511  -3.927  1.00  0.00     0.203 C
ENDBRANCH   3   5
ENDBRANCH   2   3
ENDBRANCH   1   2
BRANCH   1  10
HETATM   10  O1  UNL     1      -2.508  -4.615  -8.947  1.00  0.00    -0.392 OA
ATOM     11  H1  UNL     1      -2.468  -4.978  -9.824  1.00  0.00     0.210 HD
ENDBRANCH   1  10
BRANCH   1  12
HETATM   12  C4  UNL     1      -4.247  -6.167  -8.965  1.00  0.00     0.154 C
BRANCH  12  13
HETATM   13  N2  UNL     1      -5.338  -6.677  -8.210  1.00  0.00    -0.378 N
HETATM   14  C5  UNL     1      -6.282  -7.352  -8.759  1.00  0.00     0.072 C
HETATM   15  C6  UNL     1      -6.333  -7.669 -10.208  1.00  0.00     0.076 C
HETATM   16  N3  UNL     1      -7.359  -7.829  -7.952  1.00  0.00    -0.380 N
HETATM   17  C7  UNL     1      -7.411  -8.686 -10.441  1.00  0.00     0.009 C
HETATM   18  C8  UNL     1      -8.726  -8.123  -9.952  1.00  0.00     0.020 C
HETATM   19  C9  UNL     1      -8.717  -7.948  -8.443  1.00  0.00     0.121 C
ATOM     20  H3  UNL     1      -7.164  -8.097  -6.988  1.00  0.00     0.160 HD
ATOM     21  H2  UNL     1      -5.371  -6.501  -7.207  1.00  0.00     0.160 HD
ENDBRANCH  12  13
ENDBRANCH   1  12
TORSDOF 6
ENDMDL