MODEL 3
REMARK VINA RESULT: -7.027455890      0.345      1.161
REMARK  5 active torsions:
REMARK  status: ('A' for Active; 'I' for Inactive)
REMARK    1  A    between atoms: O1_1  and  C1_3
REMARK    2  A    between atoms: C1_3  and  C2_4
REMARK    3  A    between atoms: C1_3  and  C10_15
REMARK    4  A    between atoms: C2_4  and  C3_5
REMARK    5  A    between atoms: C10_15  and  N2_16
ROOT
HETATM    1  C2  UNL     1      -2.445  -6.513  -7.597  1.00  0.00     0.040 C
ENDROOT
BRANCH   1   2
HETATM    2  C1  UNL     1      -3.621  -6.434  -8.512  1.00  0.00     0.136 C
BRANCH   2   3
HETATM    3  O1  UNL     1      -3.408  -5.273  -9.325  1.00  0.00    -0.394 OA
ATOM      4  H1  UNL     1      -2.607  -4.874  -9.006  1.00  0.00     0.210 HD
ENDBRANCH   2   3
BRANCH   2   5
HETATM    5  C10 UNL     1      -4.911  -6.315  -7.798  1.00  0.00     0.148 C
BRANCH   5   6
HETATM    6  N2  UNL     1      -6.045  -6.786  -8.562  1.00  0.00    -0.406 N
HETATM    7  C11 UNL     1      -5.773  -7.659  -9.640  1.00  0.00     0.143 C
HETATM    8  C12 UNL     1      -7.009  -7.581 -10.559  1.00  0.00     0.187 C
HETATM    9  O2  UNL     1      -8.159  -7.858  -9.858  1.00  0.00    -0.388 OA
HETATM   10  C13 UNL     1      -7.960  -8.209  -8.534  1.00  0.00     0.187 C
HETATM   11  C14 UNL     1      -7.184  -7.138  -7.766  1.00  0.00     0.143 C
ENDBRANCH   5   6
ENDBRANCH   2   5
ENDBRANCH   1   2
BRANCH   1  12
HETATM   12  C3  UNL     1      -2.414  -5.707  -6.368  1.00  0.00     0.021 C
HETATM   13  C4  UNL     1      -1.270  -4.803  -6.116  1.00  0.00     0.039 C
HETATM   14  C5  UNL     1      -1.040  -4.927  -4.608  1.00  0.00     0.186 C
HETATM   15  C6  UNL     1       0.074  -5.883  -4.393  1.00  0.00     0.033 C
HETATM   16  N1  UNL     1      -2.264  -5.473  -4.087  1.00  0.00    -0.066 N
HETATM   17  C7  UNL     1      -0.290  -7.325  -4.319  1.00  0.00     0.004 C
HETATM   18  C8  UNL     1      -1.608  -7.660  -4.960  1.00  0.00     0.033 C
HETATM   19  C9  UNL     1      -2.528  -6.509  -5.099  1.00  0.00     0.190 C
ATOM     20  H12 UNL     1      -2.234  -5.793  -3.119  1.00  0.00     0.278 HD
ATOM     21  H11 UNL     1      -3.018  -4.806  -3.926  1.00  0.00     0.278 HD
ENDBRANCH   1  12
TORSDOF 5
ENDMDL