MODEL 5
REMARK VINA RESULT: -6.205586175      1.755      6.581
REMARK  7 active torsions:
REMARK  status: ('A' for Active; 'I' for Inactive)
REMARK    1  A    between atoms: C5_5  and  C6_6
REMARK    2  A    between atoms: C6_6  and  C7_7
REMARK    3  A    between atoms: C7_7  and  N1_8
REMARK    4  A    between atoms: C10_11  and  O1_12
REMARK    5  A    between atoms: N2_16  and  C13_17
REMARK    6  A    between atoms: C13_17  and  C14_18
REMARK    7  A    between atoms: C14_18  and  O2_19
ROOT
HETATM    1  C1  UNL     1      -6.616  -8.101 -10.404  1.00  0.00     0.032 C
HETATM    2  C2  UNL     1      -6.571  -6.827  -9.583  1.00  0.00     0.075 C
HETATM    3  C3  UNL     1      -5.337  -6.065 -10.019  1.00  0.00     0.025 C
HETATM    4  C4  UNL     1      -4.137  -6.857  -9.540  1.00  0.00     0.008 C
HETATM    5  C5  UNL     1      -4.071  -6.681  -8.032  1.00  0.00     0.005 C
HETATM    6  C12 UNL     1      -5.466  -6.445  -7.472  1.00  0.00     0.122 C
HETATM    7  N2  UNL     1      -6.433  -7.188  -8.217  1.00  0.00    -0.406 N
ENDROOT
BRANCH   5   8
HETATM    8  C6  UNL     1      -3.308  -5.370  -7.800  1.00  0.00     0.036 C
BRANCH   8   9
HETATM    9  C7  UNL     1      -1.982  -5.744  -7.218  1.00  0.00     0.273 C
BRANCH   9  10
HETATM   10  N1  UNL     1      -1.619  -4.908  -6.110  1.00  0.00     0.091 N
HETATM   11  C8  UNL     1      -0.311  -5.345  -5.641  1.00  0.00     0.275 C
HETATM   12  C9  UNL     1      -0.627  -6.717  -5.081  1.00  0.00     0.064 C
HETATM   13  C10 UNL     1      -2.072  -6.676  -4.680  1.00  0.00     0.148 C
HETATM   14  C11 UNL     1      -2.432  -5.226  -4.929  1.00  0.00     0.303 C
BRANCH  13  15
HETATM   15  O1  UNL     1      -2.158  -6.991  -3.311  1.00  0.00    -0.394 OA
ATOM     16  H1  UNL     1      -2.882  -6.502  -2.939  1.00  0.00     0.210 HD
ENDBRANCH  13  15
ENDBRANCH   9  10
ENDBRANCH   8   9
ENDBRANCH   5   8
BRANCH   7  17
HETATM   17  C13 UNL     1      -7.640  -7.485  -7.524  1.00  0.00     0.143 C
BRANCH  17  18
HETATM   18  C14 UNL     1      -8.759  -7.964  -8.403  1.00  0.00     0.183 C
BRANCH  18  19
HETATM   19  O2  UNL     1      -8.981  -9.326  -8.219  1.00  0.00    -0.399 OA
ATOM     20  H2  UNL     1      -9.263  -9.733  -9.029  1.00  0.00     0.209 HD
ENDBRANCH  18  19
ENDBRANCH  17  18
ENDBRANCH   7  17
TORSDOF 7
ENDMDL