MODEL 2
REMARK VINA RESULT: -8.019270880      0.661      1.142
REMARK  6 active torsions:
REMARK  status: ('A' for Active; 'I' for Inactive)
REMARK    1  A    between atoms: C2_2  and  C3_3
REMARK    2  A    between atoms: C3_3  and  N1_4
REMARK    3  A    between atoms: N1_4  and  C4_6
REMARK    4  A    between atoms: C5_9  and  N3_10
REMARK    5  A    between atoms: N4_13  and  C8_14
REMARK    6  A    between atoms: C8_14  and  C9_15
ROOT
HETATM    1  C4  UNL     1      -8.022  -7.447  -8.188  1.00  0.00     0.708 A
HETATM    2  N2  UNL     1      -7.008  -6.977  -7.417  1.00  0.00    -0.020 N
ATOM      3  H2  UNL     1      -7.072  -6.790  -6.416  1.00  0.00     0.203 HD
HETATM    4  C5  UNL     1      -5.904  -6.794  -8.168  1.00  0.00     0.710 A
HETATM    5  N5  UNL     1      -6.288  -7.166  -9.410  1.00  0.00    -0.117 N
ATOM      6  H5  UNL     1      -5.682  -7.148 -10.229  1.00  0.00     0.206 HD
HETATM    7  N6  UNL     1      -7.551  -7.556  -9.425  1.00  0.00    -0.117 N
ATOM      8  H6  UNL     1      -8.070  -7.883 -10.239  1.00  0.00     0.206 HD
ENDROOT
BRANCH   4   9
HETATM    9  N3  UNL     1      -4.618  -6.313  -7.761  1.00  0.00    -0.213 N
HETATM   10  C6  UNL     1      -3.619  -6.149  -8.764  1.00  0.00     0.171 C
HETATM   11  C7  UNL     1      -2.254  -5.837  -8.258  1.00  0.00     0.292 C
HETATM   12  N4  UNL     1      -2.168  -5.552  -6.873  1.00  0.00     0.091 N
HETATM   13  C11 UNL     1      -2.971  -6.407  -6.037  1.00  0.00     0.292 C
HETATM   14  C12 UNL     1      -4.425  -6.028  -6.353  1.00  0.00     0.171 C
BRANCH  12  15
HETATM   15  C8  UNL     1      -0.832  -5.353  -6.435  1.00  0.00     0.272 C
BRANCH  15  16
HETATM   16  C9  UNL     1      -0.424  -6.096  -5.208  1.00  0.00     0.026 C
HETATM   17  C10 UNL     1       0.121  -5.074  -4.204  1.00  0.00     0.007 C
ENDBRANCH  15  16
ENDBRANCH  12  15
ENDBRANCH   4   9
BRANCH   1  18
HETATM   18  N1  UNL     1      -9.217  -7.729  -7.770  1.00  0.00    -0.221 N
ATOM     19  H1  UNL     1      -9.682  -7.092  -7.123  1.00  0.00     0.178 HD
BRANCH  18  20
HETATM   20  C3  UNL     1      -9.897  -8.909  -8.193  1.00  0.00     0.164 C
BRANCH  20  21
HETATM   21  C2  UNL     1     -10.912  -8.655  -9.261  1.00  0.00    -0.017 C
HETATM   22  C1  UNL     1     -10.638  -8.950 -10.513  1.00  0.00     0.008 C
ENDBRANCH  20  21
ENDBRANCH  18  20
ENDBRANCH   1  18
TORSDOF 6
ENDMDL