MODEL 2
REMARK VINA RESULT: -7.090780266      1.744      7.293
REMARK  6 active torsions:
REMARK  status: ('A' for Active; 'I' for Inactive)
REMARK    1  A    between atoms: O1_1  and  C1_3
REMARK    2  A    between atoms: N1_10  and  C8_11
REMARK    3  A    between atoms: C8_11  and  C9_12
REMARK    4  A    between atoms: C9_12  and  N2_13
REMARK    5  A    between atoms: N2_13  and  C10_15
REMARK    6  A    between atoms: C10_15  and  C11_16
ROOT
HETATM    1  C1  UNL     1      -9.294  -8.851  -8.359  1.00  0.00     0.126 A
HETATM    2  C2  UNL     1      -8.743  -7.856  -7.393  1.00  0.00     0.057 A
HETATM    3  C3  UNL     1      -8.139  -7.070  -8.524  1.00  0.00     0.092 A
HETATM    4  C4  UNL     1      -8.632  -8.122  -9.486  1.00  0.00     0.037 A
HETATM    5  C5  UNL     1      -7.454  -8.887 -10.097  1.00  0.00     0.011 C
HETATM    6  C6  UNL     1      -6.556  -7.850 -10.719  1.00  0.00     0.020 C
HETATM    7  C7  UNL     1      -6.023  -6.890  -9.686  1.00  0.00     0.122 C
HETATM    8  N1  UNL     1      -6.732  -7.011  -8.461  1.00  0.00    -0.387 N
ENDROOT
BRANCH   8   9
HETATM    9  C8  UNL     1      -6.101  -6.665  -7.283  1.00  0.00     0.077 C
BRANCH   9  10
HETATM   10  C9  UNL     1      -4.667  -6.280  -7.259  1.00  0.00     0.158 C
BRANCH  10  11
HETATM   11  N2  UNL     1      -4.237  -5.894  -5.943  1.00  0.00    -0.414 N
ATOM     12  H2  UNL     1      -4.814  -6.041  -5.115  1.00  0.00     0.153 HD
BRANCH  11  13
HETATM   13  C10 UNL     1      -2.948  -5.292  -5.875  1.00  0.00     0.145 C
BRANCH  13  14
HETATM   14  C11 UNL     1      -1.806  -6.080  -6.395  1.00  0.00     0.138 C
HETATM   15  C12 UNL     1      -0.567  -5.217  -6.492  1.00  0.00     0.035 C
HETATM   16  C13 UNL     1       0.049  -5.276  -5.116  1.00  0.00     0.029 C
HETATM   17  C14 UNL     1      -0.658  -6.485  -4.525  1.00  0.00     0.168 C
HETATM   18  O2  UNL     1      -1.392  -7.083  -5.515  1.00  0.00    -0.384 OA
ENDBRANCH  13  14
ENDBRANCH  11  13
ENDBRANCH  10  11
ENDBRANCH   9  10
ENDBRANCH   8   9
BRANCH   1  19
HETATM   19  O1  UNL     1     -10.709  -8.850  -8.472  1.00  0.00    -0.395 OA
ATOM     20  H1  UNL     1     -11.080  -9.644  -8.840  1.00  0.00     0.210 HD
ENDBRANCH   1  19
TORSDOF 6
ENDMDL