MODEL 2
REMARK VINA RESULT: -6.828861292      2.221      5.581
REMARK  6 active torsions:
REMARK  status: ('A' for Active; 'I' for Inactive)
REMARK    1  A    between atoms: C2_2  and  C3_3
REMARK    2  A    between atoms: C3_3  and  C4_4
REMARK    3  A    between atoms: C4_4  and  C5_5
REMARK    4  A    between atoms: N1_7  and  C7_8
REMARK    5  A    between atoms: C12_16  and  C13_17
REMARK    6  A    between atoms: C13_17  and  O2_18
ROOT
HETATM    1  C5  UNL     1      -2.664  -5.500  -6.281  1.00  0.00     0.140 C
HETATM    2  C6  UNL     1      -2.344  -6.838  -5.642  1.00  0.00     0.149 C
HETATM    3  N1  UNL     1      -1.761  -6.591  -4.363  1.00  0.00    -0.395 N
HETATM    4  C11 UNL     1      -1.067  -5.362  -4.237  1.00  0.00     0.151 C
HETATM    5  C12 UNL     1      -2.080  -4.251  -4.427  1.00  0.00     0.163 C
HETATM    6  O3  UNL     1      -3.087  -4.633  -5.280  1.00  0.00    -0.375 OA
ENDROOT
BRANCH   3   7
HETATM    7  C7  UNL     1      -1.186  -7.698  -3.702  1.00  0.00     0.173 C
HETATM    8  C8  UNL     1      -1.497  -9.037  -4.366  1.00  0.00     0.054 C
HETATM    9  C9  UNL     1      -0.966  -9.987  -3.282  1.00  0.00     0.125 C
HETATM   10  N2  UNL     1      -1.284  -9.287  -2.036  1.00  0.00    -0.359 N
HETATM   11  C10 UNL     1      -1.626  -7.933  -2.337  1.00  0.00     0.240 C
ATOM     12  H2  UNL     1      -1.264  -9.700  -1.103  1.00  0.00     0.162 HD
HETATM   13  O1  UNL     1      -2.195  -7.200  -1.491  1.00  0.00    -0.271 OA
ENDBRANCH   3   7
BRANCH   1  14
HETATM   14  C4  UNL     1      -3.869  -5.738  -7.199  1.00  0.00     0.037 C
BRANCH  14  15
HETATM   15  C3  UNL     1      -3.457  -6.330  -8.503  1.00  0.00     0.029 C
BRANCH  15  16
HETATM   16  C2  UNL     1      -4.631  -6.538  -9.381  1.00  0.00    -0.037 C
HETATM   17  C1  UNL     1      -5.800  -6.805  -8.881  1.00  0.00     0.007 C
ENDBRANCH  15  16
ENDBRANCH  14  15
ENDBRANCH   1  14
BRANCH   5  18
HETATM   18  C13 UNL     1      -1.334  -3.025  -4.901  1.00  0.00     0.197 C
BRANCH  18  19
HETATM   19  O2  UNL     1      -2.231  -2.135  -5.474  1.00  0.00    -0.398 OA
ATOM     20  H2  UNL     1      -1.820  -1.709  -6.217  1.00  0.00     0.209 HD
ENDBRANCH  18  19
ENDBRANCH   5  18
TORSDOF 6
ENDMDL