MODEL 4
REMARK VINA RESULT: -7.180762681      3.274      7.427
REMARK  4 active torsions:
REMARK  status: ('A' for Active; 'I' for Inactive)
REMARK    1  A    between atoms: C2_2  and  C3_3
REMARK    2  A    between atoms: C3_3  and  C4_4
REMARK    3  A    between atoms: C4_4  and  N1_5
REMARK       I    between atoms: C5_7  and  N2_8
REMARK       I    between atoms: C5_7  and  N7_25
REMARK    4  A    between atoms: N2_8  and  C6_10
ROOT
HETATM    1  C6  UNL     1      28.544  65.079  10.317  1.00  0.00     0.165 A
HETATM    2  N3  UNL     1      29.565  65.076  11.191  1.00  0.00    -0.282 N
ATOM      3  H3  UNL     1      29.500  64.730  12.149  1.00  0.00     0.188 HD
HETATM    4  N4  UNL     1      30.651  65.570  10.661  1.00  0.00    -0.292 N
ATOM      5  H4  UNL     1      31.550  65.668  11.134  1.00  0.00     0.187 HD
HETATM    6  C7  UNL     1      30.397  65.928   9.393  1.00  0.00     0.147 A
HETATM    7  C8  UNL     1      31.147  66.493   8.372  1.00  0.00     0.281 A
HETATM    8  O1  UNL     1      32.365  66.761   8.616  1.00  0.00    -0.265 OA
HETATM    9  N5  UNL     1      30.621  66.753   7.161  1.00  0.00    -0.269 N
HETATM   10  C9  UNL     1      31.408  67.341   6.105  1.00  0.00     0.164 C
HETATM   11  C10 UNL     1      29.321  66.448   6.955  1.00  0.00     0.329 A
HETATM   12  O2  UNL     1      28.795  66.679   5.830  1.00  0.00    -0.246 OA
HETATM   13  N6  UNL     1      28.574  65.900   7.933  1.00  0.00    -0.303 N
ATOM     14  H6  UNL     1      27.597  65.685   7.736  1.00  0.00     0.171 HD
HETATM   15  C11 UNL     1      29.058  65.622   9.157  1.00  0.00     0.116 A
ENDROOT
BRANCH   1  16
HETATM   16  N2  UNL     1      27.336  64.686  10.446  1.00  0.00    -0.173 N
HETATM   17  C5  UNL     1      26.644  64.571  11.661  1.00  0.00     0.675 C
HETATM   18  N1  UNL     1      25.895  65.497  12.095  1.00  0.00    -0.226 N
HETATM   19  N7  UNL     1      26.792  63.384  12.417  1.00  0.00    -0.231 N
ATOM     20  H1  UNL     1      25.822  66.332  11.514  1.00  0.00     0.177 HD
HETATM   21  C12 UNL     1      27.507  63.307  13.672  1.00  0.00     0.165 C
ATOM     22  H7  UNL     1      26.368  62.530  12.056  1.00  0.00     0.177 HD
ATOM     23  H2  UNL     1      26.832  64.435   9.595  1.00  0.00     0.186 HD
BRANCH  18  24
HETATM   24  C4  UNL     1      25.146  65.497  13.307  1.00  0.00     0.138 C
BRANCH  24  25
HETATM   25  C3  UNL     1      23.708  65.093  13.130  1.00  0.00     0.020 C
BRANCH  25  26
HETATM   26  C2  UNL     1      23.394  63.765  13.760  1.00  0.00    -0.003 C
HETATM   27  C1  UNL     1      22.235  63.801  14.696  1.00  0.00     0.005 C
ENDBRANCH  25  26
ENDBRANCH  24  25
ENDBRANCH  18  24
ENDBRANCH   1  16
TORSDOF 4
ENDMDL