MODEL 5
REMARK VINA RESULT: -7.739302743      3.013      6.500
REMARK  7 active torsions:
REMARK  status: ('A' for Active; 'I' for Inactive)
REMARK    1  A    between atoms: N1_2  and  C2_4
REMARK    2  A    between atoms: C3_7  and  N3_8
REMARK    3  A    between atoms: N3_8  and  C4_10
REMARK    4  A    between atoms: C11_21  and  N6_22
REMARK    5  A    between atoms: N6_22  and  C12_24
REMARK    6  A    between atoms: C12_24  and  C13_25
REMARK    7  A    between atoms: C13_25  and  O1_26
ROOT
HETATM    1  C2  UNL     1      27.587  65.769   8.228  1.00  0.00     0.706 A
HETATM    2  N2  UNL     1      27.893  65.461   9.521  1.00  0.00    -0.021 N
ATOM      3  H2  UNL     1      27.148  65.442  10.219  1.00  0.00     0.203 HD
HETATM    4  C3  UNL     1      29.151  65.182   9.897  1.00  0.00     0.713 A
HETATM    5  N5  UNL     1      30.105  65.215   8.950  1.00  0.00    -0.021 N
ATOM      6  H5  UNL     1      31.068  65.006   9.215  1.00  0.00     0.203 HD
HETATM    7  C11 UNL     1      29.835  65.516   7.659  1.00  0.00     0.707 A
HETATM    8  N7  UNL     1      28.567  65.794   7.304  1.00  0.00    -0.022 N
ATOM      9  H7  UNL     1      28.348  66.023   6.334  1.00  0.00     0.203 HD
ENDROOT
BRANCH   4  10
HETATM   10  N3  UNL     1      29.465  64.866  11.221  1.00  0.00    -0.175 N
ATOM     11  H3  UNL     1      30.108  64.085  11.352  1.00  0.00     0.186 HD
BRANCH  10  12
HETATM   12  C4  UNL     1      29.055  65.424  12.272  1.00  0.00     0.121 A
HETATM   13  C5  UNL     1      28.346  64.718  13.214  1.00  0.00     0.056 A
HETATM   14  C6  UNL     1      27.879  65.302  14.384  1.00  0.00    -0.057 A
HETATM   15  C7  UNL     1      27.110  64.542  15.406  1.00  0.00     0.048 C
HETATM   16  C8  UNL     1      28.135  66.628  14.609  1.00  0.00     0.031 A
HETATM   17  C9  UNL     1      28.851  67.322  13.649  1.00  0.00     0.007 A
HETATM   18  C10 UNL     1      29.136  68.756  13.876  1.00  0.00     0.068 C
HETATM   19  N4  UNL     1      29.296  66.721  12.511  1.00  0.00    -0.346 N
ATOM     20  H4  UNL     1      29.820  67.268  11.829  1.00  0.00     0.167 HD
ENDBRANCH  10  12
ENDBRANCH   4  10
BRANCH   1  21
HETATM   21  N1  UNL     1      26.374  66.034   7.887  1.00  0.00    -0.229 N
HETATM   22  C1  UNL     1      25.404  64.991   7.783  1.00  0.00     0.165 C
ATOM     23  H1  UNL     1      26.103  66.997   7.688  1.00  0.00     0.177 HD
ENDBRANCH   1  21
BRANCH   7  24
HETATM   24  N6  UNL     1      30.736  65.555   6.735  1.00  0.00    -0.223 N
ATOM     25  H6  UNL     1      30.947  64.741   6.157  1.00  0.00     0.177 HD
BRANCH  24  26
HETATM   26  C12 UNL     1      31.432  66.815   6.559  1.00  0.00     0.164 C
BRANCH  26  27
HETATM   27  C13 UNL     1      32.463  67.013   7.653  1.00  0.00     0.184 C
BRANCH  27  28
HETATM   28  O1  UNL     1      33.540  66.175   7.369  1.00  0.00    -0.399 OA
ATOM     29  H1  UNL     1      34.296  66.727   7.204  1.00  0.00     0.209 HD
ENDBRANCH  27  28
ENDBRANCH  26  27
ENDBRANCH  24  26
ENDBRANCH   7  24
TORSDOF 7
ENDMDL