MODEL 1
REMARK VINA RESULT: -6.432918712      0.000      0.000
REMARK  5 active torsions:
REMARK  status: ('A' for Active; 'I' for Inactive)
REMARK       I    between atoms: C2_2  and  N1_4
REMARK       I    between atoms: C3_6  and  N3_8
REMARK    1  A    between atoms: N3_8  and  C4_10
REMARK    2  A    between atoms: C4_10  and  C5_11
REMARK    3  A    between atoms: C4_10  and  C8_20
REMARK       I    between atoms: C5_11  and  N4_13
REMARK    4  A    between atoms: N4_13  and  C6_15
REMARK    5  A    between atoms: C6_15  and  C7_17
ROOT
HETATM    1  C4  UNL     1      25.569  64.835   9.796  1.00  0.00     0.180 C
ENDROOT
BRANCH   1   2
HETATM    2  N3  UNL     1      26.815  65.457  10.195  1.00  0.00    -0.351 N
HETATM    3  C3  UNL     1      28.012  65.383   9.472  1.00  0.00     0.191 C
HETATM    4  N1  UNL     1      28.158  65.993   8.319  1.00  0.00    -0.302 N
HETATM    5  N2  UNL     1      29.096  64.637  10.028  1.00  0.00    -0.063 NA
HETATM    6  C2  UNL     1      29.415  65.869   7.681  1.00  0.00     0.220 C
ATOM      7  H1  UNL     1      27.399  66.531   7.901  1.00  0.00     0.171 HD
HETATM    8  C1  UNL     1      29.507  65.507   6.260  1.00  0.00     0.117 C
HETATM    9  O1  UNL     1      30.462  66.079   8.370  1.00  0.00    -0.274 OA
ATOM     10  H3  UNL     1      26.821  65.989  11.065  1.00  0.00     0.163 HD
ENDBRANCH   1   2
BRANCH   1  11
HETATM   11  C5  UNL     1      24.628  66.034   9.708  1.00  0.00     0.246 C
HETATM   12  O2  UNL     1      25.140  67.064   9.129  1.00  0.00    -0.271 OA
HETATM   13  N4  UNL     1      23.327  66.110  10.181  1.00  0.00    -0.311 N
ATOM     14  H4  UNL     1      22.998  65.263  10.645  1.00  0.00     0.170 HD
BRANCH  13  15
HETATM   15  C6  UNL     1      22.382  67.146  10.135  1.00  0.00     0.180 C
HETATM   16  S1  UNL     1      22.627  68.369  11.282  1.00  0.00    -0.053 SA
BRANCH  15  17
HETATM   17  C7  UNL     1      21.249  67.351   9.295  1.00  0.00     0.238 C
HETATM   18  O3  UNL     1      21.094  66.527   8.306  1.00  0.00    -0.642 OA
HETATM   19  O4  UNL     1      20.277  68.312   9.382  1.00  0.00    -0.642 OA
ENDBRANCH  15  17
ENDBRANCH  13  15
ENDBRANCH   1  11
BRANCH   1  20
HETATM   20  C8  UNL     1      25.077  63.792  10.697  1.00  0.00     0.009 C
HETATM   21  C9  UNL     1      25.121  62.438   9.971  1.00  0.00     0.012 C
HETATM   22  C10 UNL     1      25.803  63.578  11.983  1.00  0.00     0.012 C
ENDBRANCH   1  20
TORSDOF 5
ENDMDL