MODEL 3
REMARK VINA RESULT: -7.142383752      3.146      4.756
REMARK  6 active torsions:
REMARK  status: ('A' for Active; 'I' for Inactive)
REMARK    1  A    between atoms: C3_3  and  N1_4
REMARK    2  A    between atoms: N1_4  and  C4_6
REMARK    3  A    between atoms: C8_16  and  C9_17
REMARK    4  A    between atoms: C10_18  and  C11_19
REMARK    5  A    between atoms: C11_19  and  C12_20
REMARK    6  A    between atoms: C12_20  and  O3_21
ROOT
HETATM    1  C1  UNL     1      33.048  66.966   8.032  1.00  0.00     0.014 C
HETATM    2  C2  UNL     1      32.077  66.848   7.332  1.00  0.00    -0.097 C
HETATM    3  C3  UNL     1      30.869  66.712   6.491  1.00  0.00     0.231 C
ENDROOT
BRANCH   3   4
HETATM    4  N1  UNL     1      30.225  65.492   6.877  1.00  0.00    -0.216 N
ATOM      5  H1  UNL     1      30.416  64.631   6.365  1.00  0.00     0.178 HD
BRANCH   4   6
HETATM    6  C4  UNL     1      29.409  65.482   7.865  1.00  0.00     0.682 A
HETATM    7  N2  UNL     1      29.855  65.090   9.067  1.00  0.00    -0.155 N
HETATM    8  C5  UNL     1      29.020  65.064  10.142  1.00  0.00     0.277 A
ATOM      9  H2  UNL     1      30.829  64.807   9.177  1.00  0.00     0.187 HD
HETATM   10  O1  UNL     1      29.410  64.701  11.282  1.00  0.00    -0.266 OA
HETATM   11  C6  UNL     1      27.723  65.460   9.917  1.00  0.00     0.128 A
HETATM   12  C7  UNL     1      26.838  65.453  10.970  1.00  0.00     0.264 A
HETATM   13  C14 UNL     1      27.259  65.866   8.675  1.00  0.00     0.073 A
HETATM   14  O2  UNL     1      27.265  65.083  12.092  1.00  0.00    -0.267 OA
HETATM   15  N3  UNL     1      25.538  65.836  10.798  1.00  0.00    -0.315 N
HETATM   16  C8  UNL     1      25.063  66.234   9.609  1.00  0.00     0.091 A
ATOM     17  H3  UNL     1      24.909  65.820  11.600  1.00  0.00     0.170 HD
HETATM   18  C13 UNL     1      25.946  66.244   8.546  1.00  0.00     0.070 A
HETATM   19  N4  UNL     1      28.134  65.868   7.651  1.00  0.00    -0.191 N
ATOM     20  H4  UNL     1      27.835  66.160   6.720  1.00  0.00     0.184 HD
BRANCH  16  21
HETATM   21  C9  UNL     1      23.685  66.638   9.437  1.00  0.00    -0.049 C
HETATM   22  C10 UNL     1      22.536  66.967   9.273  1.00  0.00    -0.098 C
BRANCH  22  23
HETATM   23  C11 UNL     1      21.136  67.351   9.095  1.00  0.00     0.120 C
BRANCH  23  24
HETATM   24  C12 UNL     1      20.297  66.972  10.298  1.00  0.00     0.176 C
BRANCH  24  25
HETATM   25  O3  UNL     1      19.503  65.872   9.911  1.00  0.00    -0.400 OA
ATOM     26  H3  UNL     1      18.611  66.072  10.169  1.00  0.00     0.209 HD
ENDBRANCH  24  25
ENDBRANCH  23  24
ENDBRANCH  22  23
ENDBRANCH  16  21
ENDBRANCH   4   6
ENDBRANCH   3   4
TORSDOF 6
ENDMDL