MODEL 3
REMARK VINA RESULT: -6.754376149      1.276      3.350
REMARK  7 active torsions:
REMARK  status: ('A' for Active; 'I' for Inactive)
REMARK    1  A    between atoms: C2_2  and  N1_3
REMARK    2  A    between atoms: N1_3  and  C3_5
REMARK    3  A    between atoms: C4_8  and  N3_9
REMARK    4  A    between atoms: N3_9  and  C5_11
REMARK    5  A    between atoms: C5_11  and  N4_13
REMARK    6  A    between atoms: N4_13  and  C6_15
REMARK    7  A    between atoms: C6_15  and  C7_16
ROOT
HETATM    1  C3  UNL     1      30.037  65.852  10.005  1.00  0.00     0.695 C
HETATM    2  N2  UNL     1      28.904  66.300   9.421  1.00  0.00    -0.022 N
ATOM      3  H2  UNL     1      28.106  66.413  10.047  1.00  0.00     0.203 HD
HETATM    4  C4  UNL     1      28.675  66.619   8.134  1.00  0.00     0.702 C
HETATM    5  N5  UNL     1      29.596  66.819   7.184  1.00  0.00    -0.151 N
ATOM      6  H5  UNL     1      29.229  67.015   6.253  1.00  0.00     0.188 HD
HETATM    7  C10 UNL     1      30.960  66.796   7.285  1.00  0.00     0.328 C
HETATM    8  O1  UNL     1      31.603  66.997   6.231  1.00  0.00    -0.261 OA
HETATM    9  C11 UNL     1      31.710  66.577   8.419  1.00  0.00     0.328 C
HETATM   10  O2  UNL     1      32.933  66.863   8.382  1.00  0.00    -0.261 OA
HETATM   11  N6  UNL     1      31.311  66.082   9.601  1.00  0.00    -0.151 N
ATOM     12  H6  UNL     1      32.047  65.853  10.269  1.00  0.00     0.188 HD
ENDROOT
BRANCH   4  13
HETATM   13  N3  UNL     1      27.441  66.736   7.827  1.00  0.00    -0.166 N
ATOM     14  H3  UNL     1      27.201  67.233   6.969  1.00  0.00     0.186 HD
BRANCH  13  15
HETATM   15  C5  UNL     1      26.382  66.208   8.621  1.00  0.00     0.186 C
HETATM   16  S1  UNL     1      25.687  67.080   9.810  1.00  0.00    -0.040 SA
BRANCH  15  17
HETATM   17  N4  UNL     1      25.932  64.896   8.361  1.00  0.00    -0.366 N
ATOM     18  H4  UNL     1      26.309  64.361   7.579  1.00  0.00     0.161 HD
BRANCH  17  19
HETATM   19  C6  UNL     1      24.928  64.330   9.228  1.00  0.00     0.126 C
BRANCH  19  20
HETATM   20  C7  UNL     1      25.478  63.325  10.195  1.00  0.00    -0.005 C
HETATM   21  C8  UNL     1      25.014  61.942   9.722  1.00  0.00     0.011 C
HETATM   22  C9  UNL     1      25.004  63.493  11.593  1.00  0.00     0.011 C
ENDBRANCH  19  20
ENDBRANCH  17  19
ENDBRANCH  15  17
ENDBRANCH  13  15
ENDBRANCH   4  13
BRANCH   1  23
HETATM   23  N1  UNL     1      29.891  65.131  11.054  1.00  0.00    -0.226 N
ATOM     24  H1  UNL     1      30.700  64.700  11.499  1.00  0.00     0.177 HD
BRANCH  23  25
HETATM   25  C2  UNL     1      28.571  64.938  11.597  1.00  0.00     0.133 C
HETATM   26  C1  UNL     1      28.778  64.423  13.028  1.00  0.00     0.027 C
ENDBRANCH  23  25
ENDBRANCH   1  23
TORSDOF 7
ENDMDL