MODEL 1
REMARK VINA RESULT: -7.611974424      0.000      0.000
REMARK  4 active torsions:
REMARK  status: ('A' for Active; 'I' for Inactive)
REMARK    1  A    between atoms: C4_9  and  C5_10
REMARK    2  A    between atoms: N3_11  and  O2_12
REMARK    3  A    between atoms: N3_11  and  C6_14
REMARK    4  A    between atoms: C6_14  and  C8_16
ROOT
HETATM    1  C5  UNL     1      29.548  65.883   9.717  1.00  0.00     0.149 C
HETATM    2  N3  UNL     1      28.616  66.555  10.223  1.00  0.00    -0.261 N
ENDROOT
BRANCH   2   3
HETATM    3  O2  UNL     1      28.326  67.819   9.854  1.00  0.00    -0.287 OA
ATOM      4  H2  UNL     1      28.397  68.133   8.960  1.00  0.00     0.244 HD
ENDBRANCH   2   3
BRANCH   2   5
HETATM    5  C6  UNL     1      27.776  65.987  11.306  1.00  0.00     0.150 C
HETATM    6  C7  UNL     1      26.998  67.113  11.956  1.00  0.00     0.040 C
BRANCH   5   7
HETATM    7  C8  UNL     1      26.933  64.888  10.803  1.00  0.00     0.057 A
HETATM    8  C9  UNL     1      27.013  63.597  11.328  1.00  0.00     0.023 A
HETATM    9  C10 UNL     1      27.939  63.282  12.427  1.00  0.00     0.069 C
HETATM   10  N4  UNL     1      26.260  62.590  10.865  1.00  0.00    -0.312 N
HETATM   11  C11 UNL     1      25.375  62.784   9.850  1.00  0.00     0.327 A
ATOM     12  H4  UNL     1      26.352  61.663  11.280  1.00  0.00     0.170 HD
HETATM   13  O3  UNL     1      24.697  61.811   9.455  1.00  0.00    -0.247 OA
HETATM   14  N5  UNL     1      25.260  64.006   9.308  1.00  0.00    -0.275 N
HETATM   15  C12 UNL     1      26.023  65.015   9.782  1.00  0.00     0.259 A
ATOM     16  H5  UNL     1      24.603  64.172   8.546  1.00  0.00     0.173 HD
HETATM   17  O4  UNL     1      25.868  66.132   9.230  1.00  0.00    -0.267 OA
ENDBRANCH   5   7
ENDBRANCH   2   5
BRANCH   1  18
HETATM   18  C4  UNL     1      30.434  66.358   8.677  1.00  0.00     0.076 A
HETATM   19  C2  UNL     1      31.840  66.437   8.767  1.00  0.00     0.038 A
HETATM   20  C1  UNL     1      32.630  66.050   9.955  1.00  0.00     0.070 C
HETATM   21  N1  UNL     1      32.327  66.913   7.625  1.00  0.00    -0.310 N
HETATM   22  C3  UNL     1      31.287  67.135   6.824  1.00  0.00     0.325 A
ATOM     23  H1  UNL     1      33.310  67.076   7.406  1.00  0.00     0.170 HD
HETATM   24  O1  UNL     1      31.383  67.593   5.643  1.00  0.00    -0.247 OA
HETATM   25  N2  UNL     1      30.144  66.805   7.446  1.00  0.00    -0.306 N
ATOM     26  H2  UNL     1      29.209  66.881   7.047  1.00  0.00     0.171 HD
ENDBRANCH   1  18
TORSDOF 4
ENDMDL