MODEL 3
REMARK VINA RESULT: -7.409021687      1.898      4.765
REMARK  4 active torsions:
REMARK  status: ('A' for Active; 'I' for Inactive)
REMARK    1  A    between atoms: C3_5  and  C4_6
REMARK    2  A    between atoms: C4_6  and  C5_7
REMARK    3  A    between atoms: C6_10  and  C7_11
REMARK    4  A    between atoms: C7_11  and  C9_16
ROOT
HETATM    1  C7  UNL     1      27.796  66.332  10.165  1.00  0.00     0.072 C
HETATM    2  N3  UNL     1      27.442  67.505  10.315  1.00  0.00    -0.292 N
ATOM      3  H3  UNL     1      27.976  68.051   9.639  1.00  0.00     0.178 HD
HETATM    4  C8  UNL     1      26.704  68.339  10.941  1.00  0.00     0.182 C
HETATM    5  N4  UNL     1      26.053  69.108  11.494  1.00  0.00    -0.172 NA
ENDROOT
BRANCH   1   6
HETATM    6  C6  UNL     1      27.302  65.199  10.902  1.00  0.00     0.027 A
HETATM    7  C3  UNL     1      26.105  64.529  11.026  1.00  0.00     0.050 A
HETATM    8  N1  UNL     1      25.911  63.971  12.207  1.00  0.00    -0.356 N
HETATM    9  C2  UNL     1      26.975  64.217  12.985  1.00  0.00     0.030 A
ATOM     10  H1  UNL     1      25.086  63.439  12.484  1.00  0.00     0.166 HD
HETATM   11  C1  UNL     1      27.148  63.814  14.230  1.00  0.00     0.043 C
HETATM   12  C13 UNL     1      27.850  64.970  12.226  1.00  0.00    -0.021 A
HETATM   13  C14 UNL     1      29.022  65.605  12.861  1.00  0.00     0.051 C
BRANCH   7  14
HETATM   14  C4  UNL     1      25.273  64.410   9.977  1.00  0.00     0.101 C
BRANCH  14  15
HETATM   15  C5  UNL     1      24.969  63.206   9.280  1.00  0.00     0.256 C
HETATM   16  N2  UNL     1      25.359  61.903   9.604  1.00  0.00    -0.058 NA
HETATM   17  O1  UNL     1      24.239  63.331   8.213  1.00  0.00    -0.272 OA
ENDBRANCH  14  15
ENDBRANCH   7  14
ENDBRANCH   1   6
BRANCH   1  18
HETATM   18  C9  UNL     1      28.651  66.162   8.926  1.00  0.00     0.085 A
HETATM   19  C10 UNL     1      28.189  65.847   7.679  1.00  0.00     0.040 A
HETATM   20  C11 UNL     1      26.775  65.924   7.190  1.00  0.00     0.071 C
HETATM   21  N5  UNL     1      29.221  65.444   6.931  1.00  0.00    -0.301 N
HETATM   22  N6  UNL     1      30.319  65.482   7.633  1.00  0.00    -0.266 N
ATOM     23  H5  UNL     1      29.159  65.151   5.956  1.00  0.00     0.186 HD
HETATM   24  C12 UNL     1      29.998  65.924   8.887  1.00  0.00     0.274 A
ATOM     25  H6  UNL     1      31.251  65.228   7.306  1.00  0.00     0.190 HD
HETATM   26  O2  UNL     1      30.917  66.016   9.729  1.00  0.00    -0.266 OA
ENDBRANCH   1  18
TORSDOF 4
ENDMDL