MODEL 2
REMARK VINA RESULT: -6.739535799      1.394      1.521
REMARK  6 active torsions:
REMARK  status: ('A' for Active; 'I' for Inactive)
REMARK    1  A    between atoms: C2_2  and  N1_3
REMARK    2  A    between atoms: N1_3  and  C3_5
REMARK    3  A    between atoms: C4_8  and  N3_9
REMARK    4  A    between atoms: C9_18  and  C10_19
REMARK    5  A    between atoms: C10_19  and  C11_20
REMARK    6  A    between atoms: C11_20  and  O1_21
ROOT
HETATM    1  C3  UNL     1      28.923  66.369   8.568  1.00  0.00     0.133 A
HETATM    2  N2  UNL     1      30.279  66.333   8.651  1.00  0.00    -0.176 N
ATOM      3  H2  UNL     1      30.829  66.641   7.849  1.00  0.00     0.186 HD
HETATM    4  C4  UNL     1      30.922  65.905   9.751  1.00  0.00     0.680 A
HETATM    5  N4  UNL     1      30.188  65.502  10.797  1.00  0.00    -0.175 N
ATOM      6  H4  UNL     1      30.666  65.175  11.637  1.00  0.00     0.186 HD
HETATM    7  C6  UNL     1      28.847  65.513  10.777  1.00  0.00     0.139 A
HETATM    8  C7  UNL     1      28.191  65.956   9.641  1.00  0.00     0.078 A
HETATM    9  C8  UNL     1      26.792  65.963   9.637  1.00  0.00     0.072 A
HETATM   10  N5  UNL     1      26.155  66.433   8.461  1.00  0.00    -0.101 NA
HETATM   11  C9  UNL     1      26.057  65.541  10.735  1.00  0.00    -0.008 A
HETATM   12  C12 UNL     1      26.791  65.118  11.820  1.00  0.00     0.017 A
HETATM   13  C13 UNL     1      26.087  64.631  13.016  1.00  0.00     0.069 C
HETATM   14  N6  UNL     1      28.140  65.099  11.857  1.00  0.00    -0.340 N
HETATM   15  C14 UNL     1      28.834  64.652  13.069  1.00  0.00     0.158 C
ENDROOT
BRANCH   1  16
HETATM   16  N1  UNL     1      28.325  66.784   7.511  1.00  0.00    -0.375 N
ATOM     17  H1  UNL     1      27.433  67.274   7.577  1.00  0.00     0.161 HD
BRANCH  16  18
HETATM   18  C2  UNL     1      28.940  66.544   6.224  1.00  0.00     0.116 C
HETATM   19  C1  UNL     1      29.233  65.067   6.018  1.00  0.00     0.026 C
ENDBRANCH  16  18
ENDBRANCH   1  16
BRANCH   4  20
HETATM   20  N3  UNL     1      32.221  65.880   9.806  1.00  0.00    -0.230 N
HETATM   21  C5  UNL     1      32.971  66.632   8.824  1.00  0.00     0.165 C
ATOM     22  H3  UNL     1      32.701  65.341  10.527  1.00  0.00     0.177 HD
ENDBRANCH   4  20
BRANCH  11  23
HETATM   23  C10 UNL     1      24.603  65.536  10.752  1.00  0.00     0.068 C
BRANCH  23  24
HETATM   24  C11 UNL     1      23.910  66.828  10.962  1.00  0.00     0.168 C
BRANCH  24  25
HETATM   25  O1  UNL     1      23.685  67.619   9.881  1.00  0.00    -0.401 OA
ATOM     26  H1  UNL     1      23.774  68.559   9.986  1.00  0.00     0.209 HD
ENDBRANCH  24  25
ENDBRANCH  23  24
ENDBRANCH  11  23
TORSDOF 6
ENDMDL