MODEL 2
REMARK VINA RESULT: -7.607366670      1.325      2.421
REMARK  5 active torsions:
REMARK  status: ('A' for Active; 'I' for Inactive)
REMARK    1  A    between atoms: C2_2  and  C3_3
REMARK       I    between atoms: C3_3  and  N1_5
REMARK    2  A    between atoms: C5_10  and  C6_11
REMARK    3  A    between atoms: C6_11  and  N4_15
REMARK    4  A    between atoms: N4_15  and  C7_17
REMARK    5  A    between atoms: C7_17  and  C8_18
ROOT
HETATM    1  C8  UNL     1      26.421  64.584  14.621  1.00  0.00    -0.087 C
HETATM    2  C9  UNL     1      26.553  65.084  15.711  1.00  0.00    -0.109 C
HETATM    3  C10 UNL     1      26.696  65.676  17.048  1.00  0.00     0.112 C
ENDROOT
BRANCH   1   4
HETATM    4  C7  UNL     1      26.252  63.957  13.310  1.00  0.00     0.215 C
BRANCH   4   5
HETATM    5  N4  UNL     1      27.530  63.442  12.809  1.00  0.00    -0.364 N
ATOM      6  H4  UNL     1      27.630  62.443  12.628  1.00  0.00     0.162 HD
BRANCH   5   7
HETATM    7  C6  UNL     1      28.619  64.297  12.573  1.00  0.00     0.123 C
HETATM    8  N3  UNL     1      29.639  64.143  13.377  1.00  0.00    -0.384 N
ATOM      9  H32 UNL     1      30.429  64.763  13.206  1.00  0.00     0.157 HD
ATOM     10  H31 UNL     1      29.601  63.461  14.136  1.00  0.00     0.157 HD
BRANCH   7  11
HETATM   11  C5  UNL     1      28.671  65.261  11.501  1.00  0.00     0.089 C
HETATM   12  N2  UNL     1      29.168  64.779  10.312  1.00  0.00    -0.334 N
HETATM   13  C4  UNL     1      28.933  65.336   9.084  1.00  0.00     0.178 C
ATOM     14  H2  UNL     1      29.756  63.947  10.348  1.00  0.00     0.168 HD
HETATM   15  N1  UNL     1      29.733  64.988   8.157  1.00  0.00    -0.305 N
HETATM   16  C14 UNL     1      27.931  66.227   8.754  1.00  0.00     0.292 C
HETATM   17  C3  UNL     1      29.737  65.391   6.812  1.00  0.00     0.246 C
ATOM     18  H1  UNL     1      30.465  64.330   8.425  1.00  0.00     0.170 HD
HETATM   19  O1  UNL     1      29.277  64.620   5.911  1.00  0.00    -0.268 OA
HETATM   20  N5  UNL     1      27.375  67.204   9.531  1.00  0.00    -0.287 N
HETATM   21  O3  UNL     1      27.492  66.104   7.589  1.00  0.00    -0.264 OA
HETATM   22  C13 UNL     1      27.452  67.312  10.892  1.00  0.00     0.256 C
ATOM     23  H5  UNL     1      26.846  67.928   9.045  1.00  0.00     0.172 HD
HETATM   24  C11 UNL     1      28.207  66.523  11.772  1.00  0.00     0.037 C
HETATM   25  O2  UNL     1      26.783  68.209  11.435  1.00  0.00    -0.267 OA
HETATM   26  C12 UNL     1      28.562  67.089  13.072  1.00  0.00     0.056 C
BRANCH  17  27
HETATM   27  C2  UNL     1      30.253  66.680   6.357  1.00  0.00     0.064 C
HETATM   28  C1  UNL     1      31.447  67.125   6.671  1.00  0.00     0.017 C
ENDBRANCH  17  27
ENDBRANCH   7  11
ENDBRANCH   5   7
ENDBRANCH   4   5
ENDBRANCH   1   4
TORSDOF 5
ENDMDL