MODEL 5
REMARK VINA RESULT: -6.451562705      1.837      2.086
REMARK  3 active torsions:
REMARK  status: ('A' for Active; 'I' for Inactive)
REMARK    1  A    between atoms: C6_13  and  N4_14
REMARK    2  A    between atoms: N4_14  and  O2_16
REMARK    3  A    between atoms: C10_23  and  N6_24
ROOT
HETATM    1  C1  UNL     1      28.624  65.855   6.070  1.00  0.00     0.161 C
HETATM    2  N1  UNL     1      29.151  65.934   7.437  1.00  0.00    -0.303 N
HETATM    3  C2  UNL     1      30.529  66.245   7.519  1.00  0.00     0.328 A
HETATM    4  O1  UNL     1      31.232  66.436   6.466  1.00  0.00    -0.246 OA
HETATM    5  N2  UNL     1      31.160  66.351   8.777  1.00  0.00    -0.296 N
ATOM      6  H2  UNL     1      32.152  66.573   8.866  1.00  0.00     0.172 HD
HETATM    7  C3  UNL     1      30.352  66.133   9.892  1.00  0.00     0.114 A
HETATM    8  N3  UNL     1      30.931  66.193  11.051  1.00  0.00    -0.386 N
ATOM      9  H31 UNL     1      30.340  66.034  11.867  1.00  0.00     0.157 HD
ATOM     10  H32 UNL     1      31.930  66.399  11.055  1.00  0.00     0.157 HD
HETATM   11  C4  UNL     1      28.886  65.831   9.887  1.00  0.00     0.137 A
HETATM   12  C5  UNL     1      28.294  66.787  10.865  1.00  0.00     0.077 C
HETATM   13  C6  UNL     1      28.557  66.261  12.267  1.00  0.00     0.180 C
HETATM   14  C8  UNL     1      28.916  64.867  12.021  1.00  0.00     0.239 C
HETATM   15  O3  UNL     1      29.276  63.978  12.847  1.00  0.00    -0.272 OA
HETATM   16  N5  UNL     1      28.815  64.552  10.611  1.00  0.00    -0.338 N
ATOM     17  H5  UNL     1      28.714  63.624  10.199  1.00  0.00     0.164 HD
HETATM   18  C9  UNL     1      28.267  65.701   8.576  1.00  0.00     0.075 A
HETATM   19  C10 UNL     1      27.038  65.420   8.259  1.00  0.00     0.229 C
ENDROOT
BRANCH  13  20
HETATM   20  N4  UNL     1      27.353  66.359  13.116  1.00  0.00    -0.190 NA
HETATM   21  C7  UNL     1      26.470  67.283  12.429  1.00  0.00     0.144 C
BRANCH  20  22
HETATM   22  O2  UNL     1      26.771  65.131  13.050  1.00  0.00    -0.313 OA
ATOM     23  H2  UNL     1      25.836  65.300  13.041  1.00  0.00     0.237 HD
ENDBRANCH  20  22
ENDBRANCH  13  20
BRANCH  19  24
HETATM   24  N6  UNL     1      25.831  65.121   8.847  1.00  0.00    -0.057 N
HETATM   25  C11 UNL     1      24.893  64.535   7.794  1.00  0.00     0.277 C
HETATM   26  C12 UNL     1      25.674  64.213   9.907  1.00  0.00     0.277 C
HETATM   27  C13 UNL     1      25.044  66.344   9.156  1.00  0.00     0.277 C
ENDBRANCH  19  24
TORSDOF 3
ENDMDL