MODEL 3
REMARK VINA RESULT: -6.849806319      1.970      2.480
REMARK  5 active torsions:
REMARK  status: ('A' for Active; 'I' for Inactive)
REMARK    1  A    between atoms: C2_2  and  N1_3
REMARK       I    between atoms: C3_5  and  N3_7
REMARK       I    between atoms: C4_9  and  N5_11
REMARK    2  A    between atoms: N5_11  and  N6_13
REMARK    3  A    between atoms: N6_13  and  C5_15
REMARK    4  A    between atoms: C5_15  and  C6_17
REMARK    5  A    between atoms: C6_17  and  C7_18
ROOT
HETATM    1  N6  UNL     1      26.938  67.333  12.779  1.00  0.00    -0.291 N
ATOM      2  H6  UNL     1      27.516  67.675  13.547  1.00  0.00     0.187 HD
ENDROOT
BRANCH   1   3
HETATM    3  N5  UNL     1      27.220  67.763  11.484  1.00  0.00    -0.273 N
HETATM    4  C4  UNL     1      28.183  67.128  10.653  1.00  0.00     0.209 C
HETATM    5  N3  UNL     1      27.867  66.833   9.436  1.00  0.00    -0.304 N
HETATM    6  N4  UNL     1      29.459  66.847  11.217  1.00  0.00    -0.062 NA
HETATM    7  C3  UNL     1      28.835  66.203   8.625  1.00  0.00     0.190 C
ATOM      8  H3  UNL     1      26.940  67.051   9.069  1.00  0.00     0.171 HD
HETATM    9  N1  UNL     1      29.378  66.837   7.681  1.00  0.00    -0.365 N
HETATM   10  N2  UNL     1      29.184  64.866   8.888  1.00  0.00    -0.063 NA
ATOM     11  H1  UNL     1      29.080  67.803   7.547  1.00  0.00     0.162 HD
ATOM     12  H5  UNL     1      26.713  68.569  11.117  1.00  0.00     0.189 HD
BRANCH   9  13
HETATM   13  C2  UNL     1      30.375  66.335   6.775  1.00  0.00     0.118 C
HETATM   14  C1  UNL     1      31.762  66.837   7.087  1.00  0.00     0.026 C
ENDBRANCH   9  13
ENDBRANCH   1   3
BRANCH   1  15
HETATM   15  C5  UNL     1      25.883  66.442  13.065  1.00  0.00     0.095 C
HETATM   16  S1  UNL     1      24.419  67.127  13.328  1.00  0.00    -0.064 SA
BRANCH  15  17
HETATM   17  C6  UNL     1      25.967  65.002  13.147  1.00  0.00     0.111 C
BRANCH  17  18
HETATM   18  C7  UNL     1      25.962  64.219  11.910  1.00  0.00     0.091 C
HETATM   19  C8  UNL     1      27.290  63.444  11.854  1.00  0.00     0.049 C
HETATM   20  C9  UNL     1      24.888  63.231  11.700  1.00  0.00     0.166 C
HETATM   21  N7  UNL     1      25.128  62.859  10.312  1.00  0.00    -0.329 N
HETATM   22  C10 UNL     1      24.886  61.587   9.694  1.00  0.00     0.155 C
HETATM   23  C11 UNL     1      25.659  64.046   9.714  1.00  0.00     0.363 C
HETATM   24  O1  UNL     1      25.852  64.224   8.477  1.00  0.00    -0.238 OA
HETATM   25  O2  UNL     1      25.932  64.981  10.716  1.00  0.00    -0.291 OA
ENDBRANCH  17  18
ENDBRANCH  15  17
ENDBRANCH   1  15
TORSDOF 5
ENDMDL