MODEL 1
REMARK VINA RESULT: -7.165325569      0.000      0.000
REMARK  8 active torsions:
REMARK  status: ('A' for Active; 'I' for Inactive)
REMARK    1  A    between atoms: C2_2  and  N1_3
REMARK    2  A    between atoms: N1_3  and  C3_5
REMARK    3  A    between atoms: C3_5  and  N2_7
REMARK    4  A    between atoms: N2_7  and  C4_9
REMARK    5  A    between atoms: C5_14  and  N5_15
REMARK       I    between atoms: N5_15  and  C6_16
REMARK    6  A    between atoms: C6_16  and  C7_18
REMARK    7  A    between atoms: C7_18  and  N6_20
REMARK    8  A    between atoms: C7_18  and  C9_24
ROOT
HETATM    1  C4  UNL     1      28.100  64.017  12.514  1.00  0.00     0.704 A
HETATM    2  N3  UNL     1      29.378  64.535  12.519  1.00  0.00    -0.128 N
ATOM      3  H3  UNL     1      30.015  64.513  13.316  1.00  0.00     0.205 HD
HETATM    4  N4  UNL     1      29.654  65.056  11.361  1.00  0.00    -0.244 N
ATOM      5  H4  UNL     1      30.528  65.506  11.091  1.00  0.00     0.191 HD
HETATM    6  C5  UNL     1      28.543  64.885  10.569  1.00  0.00     0.294 A
HETATM    7  N7  UNL     1      27.579  64.230  11.314  1.00  0.00    -0.142 N
HETATM    8  C11 UNL     1      26.253  63.873  10.798  1.00  0.00     0.180 C
ENDROOT
BRANCH   6   9
HETATM    9  N5  UNL     1      28.433  65.242   9.429  1.00  0.00    -0.331 NA
HETATM   10  C6  UNL     1      28.327  65.633   8.182  1.00  0.00     0.330 C
HETATM   11  O1  UNL     1      27.175  65.907   7.672  1.00  0.00    -0.254 OA
BRANCH  10  12
HETATM   12  C7  UNL     1      29.529  65.793   7.255  1.00  0.00     0.213 C
HETATM   13  C8  UNL     1      29.058  66.668   6.123  1.00  0.00     0.058 C
BRANCH  12  14
HETATM   14  N6  UNL     1      29.854  64.513   6.746  1.00  0.00    -0.061 N
ATOM     15  H63 UNL     1      29.425  63.755   7.277  1.00  0.00     0.275 HD
ATOM     16  H62 UNL     1      29.409  64.317   5.849  1.00  0.00     0.275 HD
ATOM     17  H61 UNL     1      30.871  64.444   6.708  1.00  0.00     0.275 HD
ENDBRANCH  12  14
BRANCH  12  18
HETATM   18  C9  UNL     1      30.588  66.432   8.099  1.00  0.00     0.045 C
HETATM   19  C10 UNL     1      31.818  66.826   7.345  1.00  0.00     0.008 C
ENDBRANCH  12  18
ENDBRANCH  10  12
ENDBRANCH   6   9
BRANCH   1  20
HETATM   20  N2  UNL     1      27.614  63.456  13.542  1.00  0.00    -0.165 N
ATOM     21  H2  UNL     1      27.865  62.471  13.640  1.00  0.00     0.186 HD
BRANCH  20  22
HETATM   22  C3  UNL     1      26.804  63.940  14.550  1.00  0.00     0.186 C
HETATM   23  S1  UNL     1      25.373  64.652  14.210  1.00  0.00    -0.040 SA
BRANCH  22  24
HETATM   24  N1  UNL     1      27.177  63.827  15.935  1.00  0.00    -0.367 N
ATOM     25  H1  UNL     1      27.909  63.182  16.234  1.00  0.00     0.161 HD
BRANCH  24  26
HETATM   26  C2  UNL     1      26.476  64.659  16.887  1.00  0.00     0.117 C
HETATM   27  C1  UNL     1      27.446  65.693  17.394  1.00  0.00     0.026 C
ENDBRANCH  24  26
ENDBRANCH  22  24
ENDBRANCH  20  22
ENDBRANCH   1  20
TORSDOF 8
ENDMDL