MODEL 5
REMARK VINA RESULT: -7.180862310      2.780      3.534
REMARK  5 active torsions:
REMARK  status: ('A' for Active; 'I' for Inactive)
REMARK    1  A    between atoms: O1_2  and  C2_3
REMARK    2  A    between atoms: C2_3  and  C5_6
REMARK    3  A    between atoms: C8_12  and  C9_13
REMARK    4  A    between atoms: C9_13  and  C10_14
REMARK    5  A    between atoms: C12_21  and  O4_22
ROOT
HETATM    1  C5  UNL     1      24.948  64.810  12.582  1.00  0.00     0.040 C
HETATM    2  C6  UNL     1      25.527  65.171  11.498  1.00  0.00     0.040 A
HETATM    3  N1  UNL     1      25.278  64.383  10.378  1.00  0.00    -0.323 N
ATOM      4  H1  UNL     1      24.660  63.578  10.474  1.00  0.00     0.169 HD
HETATM    5  C7  UNL     1      25.816  64.638   9.180  1.00  0.00     0.256 A
HETATM    6  O2  UNL     1      25.566  63.898   8.180  1.00  0.00    -0.267 OA
HETATM    7  C8  UNL     1      26.656  65.708   8.981  1.00  0.00     0.035 A
HETATM    8  C13 UNL     1      26.937  66.519  10.050  1.00  0.00     0.026 A
HETATM    9  C14 UNL     1      26.355  66.222  11.298  1.00  0.00    -0.034 A
HETATM   10  C15 UNL     1      26.728  67.145  12.366  1.00  0.00     0.050 C
ENDROOT
BRANCH   7  11
HETATM   11  C9  UNL     1      27.193  65.971   7.805  1.00  0.00     0.051 C
BRANCH  11  12
HETATM   12  C10 UNL     1      28.620  66.116   7.629  1.00  0.00     0.088 A
HETATM   13  N2  UNL     1      29.178  67.068   6.846  1.00  0.00    -0.305 N
HETATM   14  C11 UNL     1      30.509  66.919   6.909  1.00  0.00     0.326 A
ATOM     15  H2  UNL     1      28.677  67.773   6.304  1.00  0.00     0.171 HD
HETATM   16  O3  UNL     1      31.336  67.652   6.289  1.00  0.00    -0.247 OA
HETATM   17  N3  UNL     1      30.819  65.875   7.727  1.00  0.00    -0.287 N
HETATM   18  C12 UNL     1      29.660  65.387   8.167  1.00  0.00     0.171 A
ATOM     19  H3  UNL     1      31.753  65.535   7.958  1.00  0.00     0.172 HD
BRANCH  18  20
HETATM   20  O4  UNL     1      29.522  64.311   9.030  1.00  0.00    -0.344 OA
ATOM     21  H4  UNL     1      28.902  63.598   8.924  1.00  0.00     0.219 HD
ENDBRANCH  18  20
ENDBRANCH  11  12
ENDBRANCH   7  11
BRANCH   1  22
HETATM   22  C2  UNL     1      24.814  65.188  13.979  1.00  0.00     0.073 C
HETATM   23  C3  UNL     1      23.833  64.252  14.656  1.00  0.00     0.050 C
HETATM   24  C4  UNL     1      23.985  66.559  14.031  1.00  0.00     0.050 C
BRANCH  22  25
HETATM   25  O1  UNL     1      25.956  65.440  14.677  1.00  0.00    -0.382 OA
HETATM   26  C1  UNL     1      26.748  64.348  14.918  1.00  0.00     0.202 C
ENDBRANCH  22  25
ENDBRANCH   1  22
TORSDOF 5
ENDMDL