MODEL 3
REMARK VINA RESULT: -7.106610908      1.722      2.091
REMARK  3 active torsions:
REMARK  status: ('A' for Active; 'I' for Inactive)
REMARK    1  A    between atoms: C2_2  and  C3_3
REMARK    2  A    between atoms: C3_3  and  N1_4
REMARK       I    between atoms: N1_4  and  C5_6
REMARK       I    between atoms: C5_6  and  N2_8
REMARK       I    between atoms: N2_8  and  C6_10
REMARK       I    between atoms: N4_12  and  C7_14
REMARK       I    between atoms: C7_14  and  N5_16
REMARK    3  A    between atoms: N5_16  and  N6_17
ROOT
HETATM    1  N1  UNL     1      29.069  65.874   8.334  1.00  0.00    -0.335 N
HETATM    2  C4  UNL     1      29.300  66.681   9.532  1.00  0.00     0.154 C
HETATM    3  C5  UNL     1      27.792  65.276   8.199  1.00  0.00     0.324 C
HETATM    4  O1  UNL     1      27.534  64.624   7.179  1.00  0.00    -0.247 OA
HETATM    5  N2  UNL     1      26.809  65.414   9.213  1.00  0.00    -0.282 N
ATOM      6  H2  UNL     1      27.040  65.946  10.051  1.00  0.00     0.173 HD
HETATM    7  C6  UNL     1      25.536  64.846   9.106  1.00  0.00     0.201 C
HETATM    8  N3  UNL     1      25.274  64.105   7.871  1.00  0.00    -0.063 NA
HETATM    9  N4  UNL     1      24.579  64.869   9.911  1.00  0.00    -0.269 N
ATOM     10  H4  UNL     1      23.741  64.375   9.603  1.00  0.00     0.174 HD
HETATM   11  C7  UNL     1      24.483  65.491  11.209  1.00  0.00     0.418 C
HETATM   12  O2  UNL     1      25.380  66.350  11.462  1.00  0.00    -0.228 OA
HETATM   13  N5  UNL     1      23.436  65.085  12.015  1.00  0.00    -0.262 NA
ENDROOT
BRANCH  13  14
HETATM   14  N6  UNL     1      22.485  64.715  12.749  1.00  0.00    -0.193 N
HETATM   15  C8  UNL     1      21.592  65.117  13.531  1.00  0.00     0.245 C
HETATM   16  N7  UNL     1      20.688  64.173  14.159  1.00  0.00    -0.344 N
HETATM   17  O3  UNL     1      21.200  66.354  14.002  1.00  0.00    -0.318 OA
HETATM   18  C9  UNL     1      20.259  64.764  15.414  1.00  0.00     0.048 C
ATOM     19  H7  UNL     1      20.407  63.265  13.789  1.00  0.00     0.164 HD
HETATM   20  C10 UNL     1      18.836  64.299  15.650  1.00  0.00     0.040 C
HETATM   21  C11 UNL     1      21.188  64.410  16.530  1.00  0.00     0.040 C
HETATM   22  C12 UNL     1      20.339  66.240  15.113  1.00  0.00     0.209 C
ATOM     23  H6  UNL     1      22.410  63.700  12.682  1.00  0.00     0.206 HD
ENDBRANCH  13  14
BRANCH   1  24
HETATM   24  C3  UNL     1      30.051  65.687   7.324  1.00  0.00     0.153 C
BRANCH  24  25
HETATM   25  C2  UNL     1      31.007  66.796   7.151  1.00  0.00    -0.017 C
HETATM   26  C1  UNL     1      32.267  66.823   7.468  1.00  0.00     0.008 C
ENDBRANCH  24  25
ENDBRANCH   1  24
TORSDOF 3
ENDMDL