MODEL 4
REMARK VINA RESULT: -6.672566499      3.611      4.707
REMARK  6 active torsions:
REMARK  status: ('A' for Active; 'I' for Inactive)
REMARK    1  A    between atoms: C3_5  and  C4_6
REMARK    2  A    between atoms: C4_6  and  C5_7
REMARK    3  A    between atoms: C6_9  and  N2_10
REMARK    4  A    between atoms: C8_15  and  O1_16
REMARK    5  A    between atoms: C10_19  and  C11_20
REMARK    6  A    between atoms: C11_20  and  N4_22
ROOT
HETATM    1  C1  UNL     1      25.576  68.591  11.775  1.00  0.00     0.043 C
HETATM    2  C2  UNL     1      25.492  67.695  10.791  1.00  0.00     0.031 A
HETATM    3  N1  UNL     1      26.485  67.310   9.934  1.00  0.00    -0.356 N
ATOM      4  H1  UNL     1      27.422  67.714   9.929  1.00  0.00     0.166 HD
HETATM    5  C3  UNL     1      26.083  66.335   9.101  1.00  0.00     0.034 A
HETATM    6  C9  UNL     1      24.755  66.092   9.469  1.00  0.00     0.041 A
HETATM    7  C10 UNL     1      24.397  66.905  10.481  1.00  0.00    -0.006 A
ENDROOT
BRANCH   5   8
HETATM    8  C4  UNL     1      26.720  65.740   8.126  1.00  0.00     0.053 C
BRANCH   8   9
HETATM    9  C5  UNL     1      28.167  65.777   7.959  1.00  0.00     0.061 A
HETATM   10  S1  UNL     1      29.128  66.584   6.830  1.00  0.00    -0.050 SA
HETATM   11  C6  UNL     1      30.673  66.091   7.365  1.00  0.00     0.146 A
HETATM   12  N3  UNL     1      30.389  65.317   8.409  1.00  0.00    -0.316 N
HETATM   13  C8  UNL     1      29.123  65.146   8.717  1.00  0.00     0.159 A
ATOM     14  H3  UNL     1      31.129  64.871   8.951  1.00  0.00     0.170 HD
BRANCH  11  15
HETATM   15  N2  UNL     1      31.853  66.418   6.858  1.00  0.00    -0.375 N
HETATM   16  C7  UNL     1      32.931  66.737   7.849  1.00  0.00     0.148 C
ATOM     17  H2  UNL     1      32.019  66.451   5.851  1.00  0.00     0.161 HD
ENDBRANCH  11  15
BRANCH  13  18
HETATM   18  O1  UNL     1      28.672  64.332   9.810  1.00  0.00    -0.345 OA
ATOM     19  H1  UNL     1      29.320  64.055  10.447  1.00  0.00     0.219 HD
ENDBRANCH  13  18
ENDBRANCH   8   9
ENDBRANCH   5   8
BRANCH   7  20
HETATM   20  C11 UNL     1      23.043  67.185  11.085  1.00  0.00     0.144 C
HETATM   21  C12 UNL     1      22.751  66.154  12.211  1.00  0.00     0.040 C
BRANCH  20  22
HETATM   22  N4  UNL     1      22.065  66.892  10.008  1.00  0.00    -0.228 N
HETATM   23  N5  UNL     1      21.484  66.368   8.885  1.00  0.00    -0.243 N
HETATM   24  C13 UNL     1      20.715  67.257   9.590  1.00  0.00     0.356 A
ATOM     25  H5  UNL     1      21.566  65.747   8.081  1.00  0.00     0.192 HD
HETATM   26  O2  UNL     1      19.623  67.885   9.714  1.00  0.00    -0.244 OA
ENDBRANCH  20  22
ENDBRANCH   7  20
TORSDOF 6
ENDMDL