MODEL 4
REMARK VINA RESULT: -5.964646885      1.913      5.457
REMARK  5 active torsions:
REMARK  status: ('A' for Active; 'I' for Inactive)
REMARK    1  A    between atoms: N1_2  and  C3_4
REMARK    2  A    between atoms: C3_4  and  C4_5
REMARK    3  A    between atoms: C4_5  and  N2_6
REMARK    4  A    between atoms: N2_6  and  C5_8
REMARK    5  A    between atoms: C5_8  and  N3_10
ROOT
HETATM    1  N3  UNL     1      27.451  65.006  10.423  1.00  0.00    -0.330 N
HETATM    2  C6  UNL     1      28.132  64.575  11.658  1.00  0.00     0.128 C
HETATM    3  C7  UNL     1      28.494  65.827  12.473  1.00  0.00     0.020 C
HETATM    4  C8  UNL     1      27.912  66.998  11.675  1.00  0.00     0.006 C
HETATM    5  C9  UNL     1      28.658  67.014  10.352  1.00  0.00     0.056 C
HETATM    6  C10 UNL     1      28.366  65.730   9.529  1.00  0.00     0.124 C
HETATM    7  C11 UNL     1      29.678  64.985   9.514  1.00  0.00     0.167 C
HETATM    8  N4  UNL     1      30.495  65.145   8.366  1.00  0.00    -0.416 N
ATOM      9  H4  UNL     1      30.738  64.336   7.793  1.00  0.00     0.153 HD
HETATM   10  C12 UNL     1      30.971  66.426   8.020  1.00  0.00     0.133 C
HETATM   11  C13 UNL     1      30.065  67.158   7.053  1.00  0.00     0.139 C
HETATM   12  N5  UNL     1      29.217  66.266   6.324  1.00  0.00    -0.385 N
ATOM     13  H5  UNL     1      29.311  66.144   5.316  1.00  0.00     0.160 HD
HETATM   14  C14 UNL     1      28.230  65.553   7.076  1.00  0.00     0.173 C
HETATM   15  N6  UNL     1      27.912  66.150   8.292  1.00  0.00    -0.358 N
ATOM     16  H6  UNL     1      27.295  66.961   8.270  1.00  0.00     0.162 HD
ENDROOT
BRANCH   1  17
HETATM   17  C5  UNL     1      26.110  64.738  10.227  1.00  0.00     0.171 C
HETATM   18  S1  UNL     1      25.621  63.202  10.762  1.00  0.00    -0.041 SA
BRANCH  17  19
HETATM   19  N2  UNL     1      25.057  65.430   9.638  1.00  0.00    -0.365 N
ATOM     20  H2  UNL     1      24.483  64.834   9.040  1.00  0.00     0.161 HD
BRANCH  19  21
HETATM   21  C4  UNL     1      24.596  66.763   9.672  1.00  0.00     0.152 C
BRANCH  21  22
HETATM   22  C3  UNL     1      23.424  66.842  10.681  1.00  0.00     0.290 C
BRANCH  22  23
HETATM   23  N1  UNL     1      23.797  67.802  11.680  1.00  0.00     0.081 N
HETATM   24  C1  UNL     1      24.383  67.248  12.863  1.00  0.00     0.309 C
HETATM   25  C2  UNL     1      24.658  68.813  11.124  1.00  0.00     0.309 C
ENDBRANCH  22  23
ENDBRANCH  21  22
ENDBRANCH  19  21
ENDBRANCH  17  19
ENDBRANCH   1  17
TORSDOF 5
ENDMDL