MODEL 3
REMARK VINA RESULT: -6.871224227      2.290      7.579
REMARK  4 active torsions:
REMARK  status: ('A' for Active; 'I' for Inactive)
REMARK       I    between atoms: N1_2  and  C3_4
REMARK       I    between atoms: C3_4  and  N2_6
REMARK    1  A    between atoms: N2_6  and  N3_8
REMARK       I    between atoms: N3_8  and  C4_10
REMARK    2  A    between atoms: C4_10  and  C5_12
REMARK    3  A    between atoms: C5_12  and  N4_13
REMARK       I    between atoms: N4_13  and  C6_15
REMARK    4  A    between atoms: C6_15  and  C7_17
ROOT
HETATM    1  N4  UNL     1      25.568  65.333  10.538  1.00  0.00    -0.352 N
ATOM      2  H4  UNL     1      26.520  65.186  10.871  1.00  0.00     0.162 HD
HETATM    3  C6  UNL     1      24.509  65.550  11.444  1.00  0.00     0.224 C
HETATM    4  O3  UNL     1      23.359  65.728  11.017  1.00  0.00    -0.273 OA
ENDROOT
BRANCH   1   5
HETATM    5  C5  UNL     1      25.269  65.325   9.124  1.00  0.00     0.227 C
BRANCH   5   6
HETATM    6  C4  UNL     1      26.519  65.444   8.362  1.00  0.00     0.253 C
HETATM    7  N3  UNL     1      27.415  66.499   8.674  1.00  0.00    -0.265 N
ATOM      8  H3  UNL     1      27.200  67.167   9.415  1.00  0.00     0.190 HD
HETATM    9  O2  UNL     1      26.771  64.621   7.456  1.00  0.00    -0.270 OA
BRANCH   7  10
HETATM   10  N2  UNL     1      28.595  66.599   7.944  1.00  0.00    -0.249 N
HETATM   11  C3  UNL     1      29.831  66.504   8.635  1.00  0.00     0.336 C
HETATM   12  N1  UNL     1      31.036  66.606   7.892  1.00  0.00    -0.342 N
HETATM   13  O1  UNL     1      29.841  66.331   9.888  1.00  0.00    -0.245 OA
HETATM   14  C1  UNL     1      32.290  66.509   8.605  1.00  0.00     0.154 C
HETATM   15  C2  UNL     1      30.982  66.799   6.467  1.00  0.00     0.154 C
ATOM     16  H2  UNL     1      28.572  66.737   6.934  1.00  0.00     0.192 HD
ENDBRANCH   7  10
ENDBRANCH   5   6
ENDBRANCH   1   5
BRANCH   3  17
HETATM   17  C7  UNL     1      24.819  65.559  12.877  1.00  0.00     0.115 C
HETATM   18  C8  UNL     1      26.317  65.751  13.036  1.00  0.00     0.054 C
HETATM   19  C9  UNL     1      26.625  65.083  14.354  1.00  0.00     0.120 C
HETATM   20  C10 UNL     1      27.911  64.332  14.249  1.00  0.00     0.046 C
HETATM   21  C11 UNL     1      26.790  66.189  15.398  1.00  0.00     0.046 C
HETATM   22  N5  UNL     1      25.521  64.217  14.691  1.00  0.00    -0.058 N
HETATM   23  C12 UNL     1      24.531  64.311  13.633  1.00  0.00     0.131 C
ATOM     24  H52 UNL     1      25.814  63.257  14.871  1.00  0.00     0.279 HD
ATOM     25  H51 UNL     1      25.132  64.418  15.613  1.00  0.00     0.279 HD
HETATM   26  C13 UNL     1      23.181  64.467  14.313  1.00  0.00     0.046 C
HETATM   27  C14 UNL     1      24.510  63.046  12.852  1.00  0.00     0.046 C
ENDBRANCH   3  17
TORSDOF 4
ENDMDL