MODEL 2
REMARK VINA RESULT: -7.046996079      2.253      6.431
REMARK  4 active torsions:
REMARK  status: ('A' for Active; 'I' for Inactive)
REMARK    1  A    between atoms: O1_2  and  C2_3
REMARK    2  A    between atoms: C2_3  and  C3_4
REMARK    3  A    between atoms: C3_4  and  N1_5
REMARK    4  A    between atoms: N1_5  and  C4_7
ROOT
HETATM    1  C4  UNL     1      27.552  66.026   7.804  1.00  0.00     0.681 A
HETATM    2  N2  UNL     1      26.482  65.324   7.405  1.00  0.00    -0.154 N
ATOM      3  H2  UNL     1      26.247  65.321   6.411  1.00  0.00     0.187 HD
HETATM    4  C5  UNL     1      25.695  64.616   8.253  1.00  0.00     0.288 A
HETATM    5  O2  UNL     1      24.694  63.961   7.860  1.00  0.00    -0.265 OA
HETATM    6  C6  UNL     1      26.010  64.620   9.586  1.00  0.00     0.130 A
HETATM    7  N3  UNL     1      25.473  64.053  10.674  1.00  0.00    -0.352 N
ATOM      8  H3  UNL     1      24.645  63.457  10.678  1.00  0.00     0.166 HD
HETATM    9  C7  UNL     1      26.210  64.396  11.789  1.00  0.00     0.030 A
HETATM   10  C8  UNL     1      27.238  65.201  11.389  1.00  0.00     0.084 A
HETATM   11  C9  UNL     1      27.108  65.338  10.010  1.00  0.00     0.099 A
HETATM   12  N4  UNL     1      27.853  66.025   9.111  1.00  0.00    -0.188 N
ATOM     13  H4  UNL     1      28.663  66.553   9.436  1.00  0.00     0.184 HD
HETATM   14  C10 UNL     1      28.198  65.704  12.353  1.00  0.00     0.256 C
HETATM   15  O3  UNL     1      29.150  66.438  12.057  1.00  0.00    -0.267 OA
HETATM   16  N5  UNL     1      28.050  65.337  13.740  1.00  0.00    -0.348 N
ATOM     17  H5  UNL     1      28.450  65.905  14.488  1.00  0.00     0.163 HD
HETATM   18  C11 UNL     1      27.297  64.111  14.027  1.00  0.00     0.031 C
HETATM   19  C12 UNL     1      26.904  64.170  15.487  1.00  0.00     0.038 C
HETATM   20  C13 UNL     1      28.122  62.886  13.703  1.00  0.00     0.038 C
HETATM   21  C14 UNL     1      26.043  64.059  13.213  1.00  0.00     0.088 C
ENDROOT
BRANCH   1  22
HETATM   22  N1  UNL     1      28.235  66.663   6.934  1.00  0.00    -0.224 N
ATOM     23  H1  UNL     1      27.962  67.622   6.718  1.00  0.00     0.177 HD
BRANCH  22  24
HETATM   24  C3  UNL     1      29.375  66.106   6.233  1.00  0.00     0.164 C
BRANCH  24  25
HETATM   25  C2  UNL     1      30.586  66.873   6.706  1.00  0.00     0.187 C
BRANCH  25  26
HETATM   26  O1  UNL     1      30.949  66.626   8.016  1.00  0.00    -0.394 OA
HETATM   27  C1  UNL     1      32.311  66.693   8.178  1.00  0.00     0.201 C
ENDBRANCH  25  26
ENDBRANCH  24  25
ENDBRANCH  22  24
ENDBRANCH   1  22
TORSDOF 4
ENDMDL