MODEL 4
REMARK VINA RESULT: -8.014567410      3.223      7.002
REMARK  4 active torsions:
REMARK  status: ('A' for Active; 'I' for Inactive)
REMARK    1  A    between atoms: C4_8  and  N3_9
REMARK       I    between atoms: N3_9  and  C5_11
REMARK    2  A    between atoms: C8_20  and  C9_21
REMARK    3  A    between atoms: C9_21  and  C10_22
REMARK    4  A    between atoms: C10_22  and  N7_23
ROOT
HETATM    1  C1  UNL     1      24.995  63.407   9.490  1.00  0.00     0.068 C
HETATM    2  C2  UNL     1      25.624  63.806  10.766  1.00  0.00     0.014 A
HETATM    3  N1  UNL     1      25.356  63.300  11.988  1.00  0.00    -0.345 N
ATOM      4  H1  UNL     1      24.672  62.567  12.176  1.00  0.00     0.167 HD
HETATM    5  C3  UNL     1      26.113  63.895  12.919  1.00  0.00     0.133 A
HETATM    6  N2  UNL     1      26.242  63.771  14.270  1.00  0.00    -0.175 N
ATOM      7  H2  UNL     1      25.671  63.094  14.776  1.00  0.00     0.186 HD
HETATM    8  C4  UNL     1      27.112  64.534  14.931  1.00  0.00     0.686 A
HETATM    9  N6  UNL     1      27.862  65.423  14.266  1.00  0.00    -0.201 N
ATOM     10  H6  UNL     1      28.522  65.996  14.791  1.00  0.00     0.183 HD
HETATM   11  C6  UNL     1      27.780  65.591  12.931  1.00  0.00     0.122 A
HETATM   12  C7  UNL     1      26.892  64.817  12.240  1.00  0.00     0.033 A
HETATM   13  C8  UNL     1      26.596  64.773  10.887  1.00  0.00    -0.019 A
ENDROOT
BRANCH  13  14
HETATM   14  C9  UNL     1      27.201  65.603   9.790  1.00  0.00     0.061 C
BRANCH  14  15
HETATM   15  C10 UNL     1      28.609  65.142   9.520  1.00  0.00     0.132 C
BRANCH  15  16
HETATM   16  N7  UNL     1      29.298  66.132   8.737  1.00  0.00    -0.333 N
HETATM   17  C11 UNL     1      28.620  66.955   7.749  1.00  0.00     0.136 C
HETATM   18  C12 UNL     1      29.269  66.675   6.410  1.00  0.00     0.123 C
HETATM   19  C13 UNL     1      30.718  67.030   6.544  1.00  0.00     0.229 C
HETATM   20  O1  UNL     1      31.370  67.535   5.587  1.00  0.00    -0.273 OA
HETATM   21  N8  UNL     1      31.432  66.817   7.755  1.00  0.00    -0.274 N
HETATM   22  C14 UNL     1      32.850  67.050   7.881  1.00  0.00     0.164 C
HETATM   23  C15 UNL     1      30.706  66.353   8.894  1.00  0.00     0.326 C
HETATM   24  O2  UNL     1      31.254  66.137  10.006  1.00  0.00    -0.247 OA
ENDBRANCH  15  16
ENDBRANCH  14  15
ENDBRANCH  13  14
BRANCH   8  25
HETATM   25  N3  UNL     1      27.240  64.426  16.191  1.00  0.00    -0.164 N
HETATM   26  C5  UNL     1      26.870  65.507  17.025  1.00  0.00     0.200 C
HETATM   27  N4  UNL     1      25.623  65.637  17.317  1.00  0.00    -0.373 N
HETATM   28  N5  UNL     1      27.872  66.390  17.502  1.00  0.00    -0.063 NA
ATOM     29  H42 UNL     1      24.903  65.002  16.975  1.00  0.00     0.158 HD
ATOM     30  H41 UNL     1      25.357  66.417  17.919  1.00  0.00     0.158 HD
ATOM     31  H3  UNL     1      27.607  63.565  16.598  1.00  0.00     0.187 HD
ENDBRANCH   8  25
TORSDOF 4
ENDMDL