MODEL 1
REMARK VINA RESULT: -8.575317691      0.000      0.000
REMARK  4 active torsions:
REMARK  status: ('A' for Active; 'I' for Inactive)
REMARK    1  A    between atoms: N2_5  and  C3_6
REMARK    2  A    between atoms: C8_14  and  C9_15
REMARK    3  A    between atoms: C9_15  and  C10_16
REMARK    4  A    between atoms: C13_21  and  C14_22
ROOT
HETATM    1  C10 UNL     1      25.288  64.800  10.055  1.00  0.00     0.043 A
HETATM    2  N4  UNL     1      25.201  63.788   9.188  1.00  0.00    -0.365 N
ATOM      3  H4  UNL     1      25.282  63.862   8.173  1.00  0.00     0.165 HD
HETATM    4  C11 UNL     1      24.990  62.669   9.870  1.00  0.00     0.089 A
HETATM    5  C12 UNL     1      24.935  62.927  11.222  1.00  0.00     0.030 A
HETATM    6  C13 UNL     1      25.126  64.299  11.356  1.00  0.00    -0.007 A
ENDROOT
BRANCH   1   7
HETATM    7  C9  UNL     1      25.512  66.203   9.760  1.00  0.00     0.050 C
BRANCH   7   8
HETATM    8  C8  UNL     1      26.758  66.657   9.615  1.00  0.00     0.063 A
HETATM    9  C2  UNL     1      27.427  67.537  10.435  1.00  0.00     0.055 A
HETATM   10  C1  UNL     1      26.938  68.085  11.525  1.00  0.00     0.045 C
HETATM   11  N1  UNL     1      28.672  67.714   9.902  1.00  0.00    -0.291 N
HETATM   12  N2  UNL     1      28.823  67.003   8.802  1.00  0.00    -0.218 N
ATOM     13  H1  UNL     1      29.390  68.317  10.302  1.00  0.00     0.187 HD
HETATM   14  C7  UNL     1      27.660  66.353   8.616  1.00  0.00     0.279 A
HETATM   15  O1  UNL     1      27.460  65.580   7.649  1.00  0.00    -0.265 OA
BRANCH  12  16
HETATM   16  C3  UNL     1      30.003  66.946   7.976  1.00  0.00     0.076 A
HETATM   17  C4  UNL     1      30.065  67.125   6.613  1.00  0.00     0.050 A
HETATM   18  C5  UNL     1      31.413  66.982   6.270  1.00  0.00     0.090 A
HETATM   19  N3  UNL     1      32.142  66.728   7.360  1.00  0.00    -0.373 N
HETATM   20  C6  UNL     1      31.267  66.707   8.408  1.00  0.00     0.119 A
ATOM     21  H3  UNL     1      33.150  66.580   7.401  1.00  0.00     0.164 HD
ENDBRANCH  12  16
ENDBRANCH   7   8
ENDBRANCH   1   7
BRANCH   6  22
HETATM   22  C14 UNL     1      25.137  65.092  12.566  1.00  0.00     0.027 C
HETATM   23  C15 UNL     1      25.984  64.996  13.566  1.00  0.00     0.019 C
HETATM   24  C16 UNL     1      25.966  65.844  14.828  1.00  0.00     0.147 C
HETATM   25  C18 UNL     1      27.136  64.131  13.775  1.00  0.00     0.254 C
HETATM   26  C17 UNL     1      26.460  64.832  15.841  1.00  0.00     0.228 C
HETATM   27  O2  UNL     1      26.068  64.766  17.005  1.00  0.00    -0.273 OA
HETATM   28  N5  UNL     1      27.435  64.023  15.149  1.00  0.00    -0.293 N
ATOM     29  H5  UNL     1      28.189  63.481  15.570  1.00  0.00     0.172 HD
HETATM   30  O3  UNL     1      27.790  63.555  12.879  1.00  0.00    -0.268 OA
ENDBRANCH   6  22
TORSDOF 4
ENDMDL