MODEL 1
REMARK VINA RESULT: -8.599272827      0.000      0.000
REMARK  6 active torsions:
REMARK  status: ('A' for Active; 'I' for Inactive)
REMARK       I    between atoms: C2_2  and  N1_4
REMARK    1  A    between atoms: N1_4  and  C3_6
REMARK    2  A    between atoms: C3_6  and  C4_7
REMARK    3  A    between atoms: C4_7  and  N2_8
REMARK    4  A    between atoms: N3_12  and  C8_13
REMARK    5  A    between atoms: C8_13  and  O2_14
REMARK    6  A    between atoms: C8_13  and  N4_16
ROOT
HETATM    1  C8  UNL     1      27.798  65.926   9.640  1.00  0.00     0.217 C
ENDROOT
BRANCH   1   2
HETATM    2  N3  UNL     1      27.769  66.650  10.841  1.00  0.00    -0.346 N
HETATM    3  C7  UNL     1      26.879  67.742  11.117  1.00  0.00     0.128 C
HETATM    4  C6  UNL     1      25.773  67.200  12.035  1.00  0.00     0.050 C
HETATM    5  C5  UNL     1      26.488  66.790  13.310  1.00  0.00     0.274 C
HETATM    6  N2  UNL     1      26.810  65.390  13.179  1.00  0.00     0.091 N
HETATM    7  C16 UNL     1      28.190  65.243  12.838  1.00  0.00     0.292 C
HETATM    8  C15 UNL     1      28.741  66.207  11.868  1.00  0.00     0.156 C
BRANCH   6   9
HETATM    9  C4  UNL     1      26.598  64.667  14.425  1.00  0.00     0.292 C
BRANCH   9  10
HETATM   10  C3  UNL     1      25.934  65.497  15.468  1.00  0.00     0.152 C
BRANCH  10  11
HETATM   11  N1  UNL     1      24.761  64.814  15.956  1.00  0.00    -0.360 N
HETATM   12  C2  UNL     1      24.268  64.841  17.275  1.00  0.00     0.213 C
HETATM   13  C1  UNL     1      23.033  64.083  17.624  1.00  0.00     0.117 C
HETATM   14  O1  UNL     1      24.846  65.489  18.155  1.00  0.00    -0.274 OA
ATOM     15  H1  UNL     1      24.238  64.256  15.280  1.00  0.00     0.162 HD
ENDBRANCH  10  11
ENDBRANCH   9  10
ENDBRANCH   6   9
ENDBRANCH   1   2
BRANCH   1  16
HETATM   16  O2  UNL     1      26.939  64.920   9.659  1.00  0.00    -0.332 OA
ATOM     17  H2  UNL     1      26.936  64.449   8.835  1.00  0.00     0.220 HD
ENDBRANCH   1  16
BRANCH   1  18
HETATM   18  N4  UNL     1      28.547  66.071   8.468  1.00  0.00    -0.343 N
HETATM   19  C9  UNL     1      28.140  66.707   7.240  1.00  0.00     0.133 C
HETATM   20  C10 UNL     1      29.090  66.436   6.073  1.00  0.00     0.079 C
HETATM   21  C11 UNL     1      30.443  66.864   6.497  1.00  0.00     0.039 A
HETATM   22  N5  UNL     1      31.430  67.612   6.000  1.00  0.00    -0.303 N
HETATM   23  C13 UNL     1      30.837  66.369   7.741  1.00  0.00     0.029 A
HETATM   24  N6  UNL     1      32.413  67.605   6.876  1.00  0.00    -0.285 N
ATOM     25  H5  UNL     1      31.424  68.102   5.105  1.00  0.00     0.186 HD
HETATM   26  C12 UNL     1      32.093  66.857   7.957  1.00  0.00     0.123 A
ATOM     27  H6  UNL     1      33.298  68.098   6.756  1.00  0.00     0.188 HD
HETATM   28  N7  UNL     1      32.855  66.662   8.982  1.00  0.00    -0.384 N
ATOM     29  H72 UNL     1      33.794  67.026   9.143  1.00  0.00     0.157 HD
ATOM     30  H71 UNL     1      32.615  66.098   9.797  1.00  0.00     0.157 HD
HETATM   31  C14 UNL     1      29.931  65.506   8.530  1.00  0.00     0.171 C
ENDBRANCH   1  18
TORSDOF 6
ENDMDL