MODEL 5
REMARK VINA RESULT: -8.207302053      3.142      4.290
REMARK  3 active torsions:
REMARK  status: ('A' for Active; 'I' for Inactive)
REMARK    1  A    between atoms: C6_9  and  C7_10
REMARK       I    between atoms: C7_10  and  N2_12
REMARK    2  A    between atoms: N2_12  and  C8_14
REMARK    3  A    between atoms: C8_14  and  C9_15
REMARK       I    between atoms: C9_15  and  N3_17
ROOT
HETATM    1  C7  UNL     1      25.269  65.868  10.851  1.00  0.00     0.252 C
HETATM    2  O2  UNL     1      25.188  65.798   9.599  1.00  0.00    -0.270 OA
HETATM    3  N2  UNL     1      26.391  65.253  11.473  1.00  0.00    -0.350 N
ATOM      4  H2  UNL     1      26.489  65.291  12.488  1.00  0.00     0.163 HD
ENDROOT
BRANCH   3   5
HETATM    5  C8  UNL     1      27.394  64.574  10.678  1.00  0.00     0.227 C
BRANCH   5   6
HETATM    6  C9  UNL     1      28.736  65.192  10.853  1.00  0.00     0.253 C
HETATM    7  O3  UNL     1      29.367  64.910  11.893  1.00  0.00    -0.270 OA
HETATM    8  N3  UNL     1      29.301  66.067   9.900  1.00  0.00    -0.264 N
HETATM    9  C10 UNL     1      28.579  66.409   8.678  1.00  0.00     0.148 C
HETATM   10  N4  UNL     1      30.614  66.572  10.221  1.00  0.00    -0.136 NA
HETATM   11  C11 UNL     1      28.618  65.479   7.557  1.00  0.00     0.025 C
HETATM   12  C12 UNL     1      29.225  65.775   6.224  1.00  0.00     0.028 C
HETATM   13  C13 UNL     1      29.831  67.104   5.985  1.00  0.00    -0.031 C
HETATM   14  C14 UNL     1      31.186  67.477   6.313  1.00  0.00    -0.031 C
HETATM   15  C15 UNL     1      32.216  66.608   6.909  1.00  0.00     0.028 C
HETATM   16  C16 UNL     1      32.483  66.910   8.426  1.00  0.00     0.021 C
HETATM   17  C17 UNL     1      31.205  66.542   8.968  1.00  0.00     0.135 C
ENDBRANCH   5   6
ENDBRANCH   3   5
BRANCH   1  18
HETATM   18  C6  UNL     1      24.231  66.568  11.638  1.00  0.00     0.245 C
HETATM   19  C5  UNL     1      24.474  67.957  11.797  1.00  0.00    -0.148 C
HETATM   20  C4  UNL     1      24.955  69.196  12.163  1.00  0.00     0.084 C
HETATM   21  C3  UNL     1      24.026  70.241  11.462  1.00  0.00     0.031 C
HETATM   22  C2  UNL     1      22.600  69.891  11.403  1.00  0.00     0.125 C
HETATM   23  N1  UNL     1      22.104  68.966  10.392  1.00  0.00    -0.343 N
HETATM   24  C1  UNL     1      22.100  67.497  10.304  1.00  0.00     0.317 C
ATOM     25  H1  UNL     1      21.676  69.427   9.589  1.00  0.00     0.164 HD
HETATM   26  O1  UNL     1      21.146  67.061   9.611  1.00  0.00    -0.247 OA
HETATM   27  N5  UNL     1      22.968  66.461  10.851  1.00  0.00    -0.320 N
ATOM     28  H5  UNL     1      22.660  65.507  10.665  1.00  0.00     0.166 HD
ENDBRANCH   1  18
TORSDOF 3
ENDMDL