MODEL 4
REMARK VINA RESULT: -7.933708591      2.277      2.443
REMARK  4 active torsions:
REMARK  status: ('A' for Active; 'I' for Inactive)
REMARK       I    between atoms: N2_5  and  C4_6
REMARK       I    between atoms: C4_6  and  N3_8
REMARK    1  A    between atoms: N3_8  and  N4_10
REMARK       I    between atoms: N4_10  and  C5_12
REMARK    2  A    between atoms: C5_12  and  C6_14
REMARK    3  A    between atoms: C6_14  and  N5_15
REMARK    4  A    between atoms: C6_14  and  C8_19
REMARK       I    between atoms: N5_15  and  C7_16
ROOT
HETATM    1  N4  UNL     1      26.901  65.542  11.927  1.00  0.00    -0.263 N
ATOM      2  H4  UNL     1      26.629  64.584  11.710  1.00  0.00     0.190 HD
HETATM    3  C5  UNL     1      27.552  66.190  10.910  1.00  0.00     0.272 C
HETATM    4  O2  UNL     1      27.941  67.369  10.983  1.00  0.00    -0.268 OA
ENDROOT
BRANCH   3   5
HETATM    5  C6  UNL     1      27.802  65.407   9.629  1.00  0.00     0.265 C
BRANCH   5   6
HETATM    6  N5  UNL     1      26.564  65.118   9.059  1.00  0.00    -0.384 NA
HETATM    7  C7  UNL     1      25.372  64.839   8.509  1.00  0.00     0.401 C
HETATM    8  N6  UNL     1      24.146  65.171   9.215  1.00  0.00    -0.025 NA
HETATM    9  O3  UNL     1      25.172  64.284   7.368  1.00  0.00    -0.234 OA
ENDBRANCH   5   6
BRANCH   5  10
HETATM   10  C8  UNL     1      28.733  66.197   8.722  1.00  0.00     0.031 C
HETATM   11  C9  UNL     1      30.119  65.665   8.911  1.00  0.00     0.008 C
HETATM   12  C10 UNL     1      31.183  66.714   8.780  1.00  0.00     0.001 C
HETATM   13  C11 UNL     1      31.529  67.058   7.366  1.00  0.00     0.000 C
HETATM   14  C12 UNL     1      30.606  66.444   6.368  1.00  0.00     0.000 C
HETATM   15  C13 UNL     1      29.217  66.956   6.348  1.00  0.00     0.001 C
HETATM   16  C14 UNL     1      28.269  66.445   7.368  1.00  0.00     0.008 C
ENDBRANCH   5  10
ENDBRANCH   3   5
BRANCH   1  17
HETATM   17  N3  UNL     1      26.552  65.955  13.180  1.00  0.00    -0.249 N
HETATM   18  C4  UNL     1      26.652  65.335  14.437  1.00  0.00     0.337 C
HETATM   19  N2  UNL     1      26.213  65.955  15.650  1.00  0.00    -0.330 N
HETATM   20  O1  UNL     1      27.137  64.180  14.597  1.00  0.00    -0.245 OA
HETATM   21  C3  UNL     1      26.394  65.206  16.914  1.00  0.00     0.147 C
HETATM   22  C15 UNL     1      25.606  67.231  15.789  1.00  0.00     0.147 C
HETATM   23  C2  UNL     1      27.301  66.076  17.754  1.00  0.00     0.136 C
HETATM   24  N1  UNL     1      26.670  67.331  18.000  1.00  0.00    -0.414 N
HETATM   25  C1  UNL     1      25.711  67.308  19.060  1.00  0.00     0.143 C
HETATM   26  C16 UNL     1      26.282  68.080  16.854  1.00  0.00     0.136 C
ATOM     27  H3  UNL     1      26.143  66.889  13.209  1.00  0.00     0.192 HD
ENDBRANCH   1  17
TORSDOF 4
ENDMDL