MODEL 1
REMARK VINA RESULT: -7.277662264      0.000      0.000
REMARK  9 active torsions:
REMARK  status: ('A' for Active; 'I' for Inactive)
REMARK    1  A    between atoms: C1_2  and  C2_3
REMARK       I    between atoms: C1_2  and  N3_14
REMARK    2  A    between atoms: C2_3  and  N1_4
REMARK    3  A    between atoms: N1_4  and  C3_6
REMARK    4  A    between atoms: C3_6  and  N2_8
REMARK    5  A    between atoms: N3_14  and  N4_16
REMARK    6  A    between atoms: N4_16  and  C9_18
REMARK    7  A    between atoms: C9_18  and  O2_19
REMARK    8  A    between atoms: C9_18  and  N5_21
REMARK       I    between atoms: N5_21  and  C10_23
REMARK    9  A    between atoms: C10_23  and  C11_25
ROOT
HETATM    1  O1  UNL     1      27.217  62.393  10.707  1.00  0.00    -0.270 OA
HETATM    2  C1  UNL     1      26.596  63.337  11.237  1.00  0.00     0.253 C
HETATM    3  N3  UNL     1      27.240  64.407  11.859  1.00  0.00    -0.266 N
ATOM      4  H3  UNL     1      26.702  65.161  12.287  1.00  0.00     0.190 HD
ENDROOT
BRANCH   3   5
HETATM    5  N4  UNL     1      28.648  64.424  11.883  1.00  0.00    -0.263 N
ATOM      6  H4  UNL     1      29.193  63.564  11.943  1.00  0.00     0.190 HD
BRANCH   5   7
HETATM    7  C9  UNL     1      29.260  65.674  11.822  1.00  0.00     0.239 C
BRANCH   7   8
HETATM    8  O2  UNL     1      29.214  66.466  12.860  1.00  0.00    -0.331 OA
ATOM      9  H2  UNL     1      28.915  66.128  13.696  1.00  0.00     0.221 HD
ENDBRANCH   7   8
BRANCH   7  10
HETATM   10  N5  UNL     1      29.946  66.168  10.700  1.00  0.00    -0.286 N
HETATM   11  C10 UNL     1      29.640  65.806   9.379  1.00  0.00     0.275 C
HETATM   12  O3  UNL     1      28.729  65.051   9.027  1.00  0.00    -0.266 OA
ATOM     13  H5  UNL     1      30.709  66.827  10.855  1.00  0.00     0.172 HD
BRANCH  11  14
HETATM   14  C11 UNL     1      30.523  66.410   8.323  1.00  0.00     0.097 A
HETATM   15  C12 UNL     1      30.081  66.807   7.146  1.00  0.00     0.013 A
HETATM   16  C13 UNL     1      31.240  67.345   6.378  1.00  0.00     0.074 A
HETATM   17  C14 UNL     1      32.361  67.174   7.328  1.00  0.00     0.065 A
HETATM   18  N6  UNL     1      31.915  66.643   8.413  1.00  0.00    -0.365 N
ATOM     19  H6  UNL     1      32.488  66.422   9.226  1.00  0.00     0.165 HD
ENDBRANCH  11  14
ENDBRANCH   7  10
ENDBRANCH   5   7
ENDBRANCH   3   5
BRANCH   2  20
HETATM   20  C2  UNL     1      25.092  63.351  11.218  1.00  0.00     0.226 C
BRANCH  20  21
HETATM   21  N1  UNL     1      24.579  63.791   9.966  1.00  0.00    -0.358 N
ATOM     22  H1  UNL     1      23.928  63.174   9.482  1.00  0.00     0.162 HD
BRANCH  21  23
HETATM   23  C3  UNL     1      24.897  64.998   9.351  1.00  0.00     0.170 C
HETATM   24  S1  UNL     1      25.232  64.925   7.708  1.00  0.00    -0.041 SA
BRANCH  23  25
HETATM   25  N2  UNL     1      24.964  66.279   9.912  1.00  0.00    -0.358 N
HETATM   26  C4  UNL     1      24.153  66.875  10.925  1.00  0.00     0.125 C
HETATM   27  C5  UNL     1      24.142  68.390  10.600  1.00  0.00     0.020 C
HETATM   28  C6  UNL     1      25.499  68.926  11.038  1.00  0.00     0.003 C
HETATM   29  C7  UNL     1      26.556  67.922  10.609  1.00  0.00     0.020 C
HETATM   30  C8  UNL     1      26.052  67.152   9.411  1.00  0.00     0.125 C
ENDBRANCH  23  25
ENDBRANCH  21  23
ENDBRANCH  20  21
ENDBRANCH   2  20
TORSDOF 9
ENDMDL