MODEL 1
REMARK VINA RESULT: -7.050735765      0.000      0.000
REMARK  5 active torsions:
REMARK  status: ('A' for Active; 'I' for Inactive)
REMARK    1  A    between atoms: C2_2  and  N1_4
REMARK       I    between atoms: N1_4  and  C4_6
REMARK       I    between atoms: C4_6  and  N2_8
REMARK    2  A    between atoms: N2_8  and  N3_10
REMARK       I    between atoms: N3_10  and  C6_12
REMARK       I    between atoms: C6_12  and  N4_14
REMARK    3  A    between atoms: N4_14  and  N5_16
REMARK       I    between atoms: N5_16  and  C7_18
REMARK    4  A    between atoms: C7_18  and  C8_20
REMARK    5  A    between atoms: C8_20  and  C9_21
REMARK       I    between atoms: C9_21  and  N6_23
ROOT
HETATM    1  N3  UNL     1      24.894  64.433  14.470  1.00  0.00    -0.244 N
ATOM      2  H3  UNL     1      25.019  63.424  14.392  1.00  0.00     0.192 HD
HETATM    3  C6  UNL     1      25.578  65.292  13.581  1.00  0.00     0.353 C
HETATM    4  O2  UNL     1      25.414  66.534  13.689  1.00  0.00    -0.244 OA
HETATM    5  N4  UNL     1      26.426  64.720  12.596  1.00  0.00    -0.248 N
ATOM      6  H4  UNL     1      26.510  63.705  12.565  1.00  0.00     0.192 HD
ENDROOT
BRANCH   5   7
HETATM    7  N5  UNL     1      27.152  65.471  11.667  1.00  0.00    -0.266 N
HETATM    8  C7  UNL     1      28.556  65.328  11.626  1.00  0.00     0.244 C
HETATM    9  O3  UNL     1      29.107  64.530  12.426  1.00  0.00    -0.271 OA
ATOM     10  H5  UNL     1      26.676  66.111  11.030  1.00  0.00     0.190 HD
BRANCH   8  11
HETATM   11  C8  UNL     1      29.326  66.127  10.639  1.00  0.00     0.207 C
BRANCH  11  12
HETATM   12  C9  UNL     1      29.066  65.726   9.250  1.00  0.00     0.228 C
HETATM   13  O4  UNL     1      27.977  65.182   8.941  1.00  0.00    -0.273 OA
HETATM   14  N6  UNL     1      30.058  65.962   8.273  1.00  0.00    -0.352 N
HETATM   15  C10 UNL     1      31.331  66.582   8.560  1.00  0.00     0.125 C
HETATM   16  C14 UNL     1      29.812  65.566   6.884  1.00  0.00     0.125 C
HETATM   17  C11 UNL     1      31.960  66.940   7.229  1.00  0.00     0.020 C
HETATM   18  C12 UNL     1      30.930  67.701   6.429  1.00  0.00     0.003 C
HETATM   19  C13 UNL     1      29.730  66.845   6.093  1.00  0.00     0.020 C
ENDBRANCH  11  12
ENDBRANCH   8  11
ENDBRANCH   5   7
BRANCH   1  20
HETATM   20  N2  UNL     1      24.051  64.949  15.453  1.00  0.00    -0.243 N
HETATM   21  C4  UNL     1      22.692  65.201  15.110  1.00  0.00     0.337 C
HETATM   22  N1  UNL     1      21.761  65.721  16.031  1.00  0.00    -0.338 N
HETATM   23  O1  UNL     1      22.303  64.948  13.922  1.00  0.00    -0.245 OA
ATOM     24  H1  UNL     1      22.047  65.933  16.987  1.00  0.00     0.164 HD
HETATM   25  C5  UNL     1      24.535  65.224  16.801  1.00  0.00     0.183 C
BRANCH  22  26
HETATM   26  C2  UNL     1      20.395  65.951  15.609  1.00  0.00     0.078 C
HETATM   27  C1  UNL     1      19.918  67.223  16.294  1.00  0.00     0.032 C
HETATM   28  C3  UNL     1      19.497  64.791  16.001  1.00  0.00     0.032 C
ENDBRANCH  22  26
ENDBRANCH   1  20
TORSDOF 5
ENDMDL