MODEL 4
REMARK VINA RESULT: -8.478424075      3.325      3.765
REMARK  4 active torsions:
REMARK  status: ('A' for Active; 'I' for Inactive)
REMARK    1  A    between atoms: C2_5  and  C3_6
REMARK    2  A    between atoms: C3_6  and  C4_7
REMARK    3  A    between atoms: C5_8  and  O2_9
REMARK    4  A    between atoms: C14_24  and  C15_25
ROOT
HETATM    1  O1  UNL     1      24.492  66.158  13.543  1.00  0.00    -0.266 OA
HETATM    2  C1  UNL     1      24.871  65.380  12.638  1.00  0.00     0.273 A
HETATM    3  N1  UNL     1      25.642  65.845  11.609  1.00  0.00    -0.317 N
ATOM      4  H1  UNL     1      25.903  66.831  11.589  1.00  0.00     0.169 HD
HETATM    5  C2  UNL     1      26.066  65.037  10.624  1.00  0.00     0.104 A
HETATM    6  C12 UNL     1      25.690  63.713  10.689  1.00  0.00     0.273 A
HETATM    7  O3  UNL     1      26.053  62.913   9.802  1.00  0.00    -0.266 OA
HETATM    8  N3  UNL     1      24.931  63.251  11.701  1.00  0.00    -0.317 N
ATOM      9  H3  UNL     1      24.673  62.264  11.717  1.00  0.00     0.169 HD
HETATM   10  C13 UNL     1      24.499  64.063  12.703  1.00  0.00     0.106 A
HETATM   11  C14 UNL     1      23.759  63.536  13.660  1.00  0.00     0.064 C
ENDROOT
BRANCH   5  12
HETATM   12  C3  UNL     1      26.815  65.512   9.633  1.00  0.00     0.052 C
BRANCH  12  13
HETATM   13  C4  UNL     1      28.245  65.724   9.776  1.00  0.00     0.030 A
HETATM   14  C5  UNL     1      29.049  65.530  10.874  1.00  0.00     0.151 A
HETATM   15  N2  UNL     1      30.306  65.852  10.560  1.00  0.00    -0.336 N
HETATM   16  C6  UNL     1      30.383  66.263   9.273  1.00  0.00     0.045 A
ATOM     17  H2  UNL     1      31.097  65.797  11.201  1.00  0.00     0.168 HD
HETATM   18  C7  UNL     1      31.443  66.695   8.490  1.00  0.00     0.030 A
HETATM   19  C11 UNL     1      29.101  66.188   8.774  1.00  0.00     0.005 A
HETATM   20  C8  UNL     1      31.176  67.049   7.185  1.00  0.00     0.002 A
HETATM   21  C9  UNL     1      29.893  66.972   6.687  1.00  0.00     0.001 A
HETATM   22  C10 UNL     1      28.840  66.543   7.466  1.00  0.00     0.014 A
BRANCH  14  23
HETATM   23  O2  UNL     1      28.561  65.062  12.110  1.00  0.00    -0.345 OA
ATOM     24  H2  UNL     1      29.048  65.142  12.922  1.00  0.00     0.219 HD
ENDBRANCH  14  23
ENDBRANCH  12  13
ENDBRANCH   5  12
BRANCH  11  25
HETATM   25  C15 UNL     1      23.226  64.261  14.785  1.00  0.00     0.034 A
HETATM   26  C16 UNL     1      21.913  64.652  14.818  1.00  0.00     0.029 A
HETATM   27  C17 UNL     1      21.455  65.343  15.930  1.00  0.00     0.004 A
HETATM   28  C18 UNL     1      22.312  65.624  16.974  1.00  0.00     0.017 A
HETATM   29  C19 UNL     1      23.629  65.215  16.909  1.00  0.00     0.088 A
HETATM   30  N4  UNL     1      24.025  64.550  15.813  1.00  0.00    -0.366 N
ATOM     31  H4  UNL     1      24.998  64.247  15.763  1.00  0.00     0.165 HD
ENDBRANCH  11  25
TORSDOF 4
ENDMDL