MODEL 1
REMARK VINA RESULT: -9.130374556      0.000      0.000
REMARK  5 active torsions:
REMARK  status: ('A' for Active; 'I' for Inactive)
REMARK    1  A    between atoms: C2_2  and  C3_3
REMARK    2  A    between atoms: C3_3  and  C4_4
REMARK    3  A    between atoms: C6_12  and  C7_13
REMARK    4  A    between atoms: C7_13  and  O2_14
REMARK    5  A    between atoms: C7_13  and  N3_16
REMARK       I    between atoms: N4_22  and  C13_23
ROOT
HETATM    1  N3  UNL     1      28.913  66.120  10.136  1.00  0.00    -0.297 N
HETATM    2  C8  UNL     1      29.074  67.161  11.243  1.00  0.00     0.135 C
HETATM    3  C9  UNL     1      28.076  66.694  12.246  1.00  0.00     0.039 C
HETATM    4  C10 UNL     1      27.026  65.896  11.498  1.00  0.00     0.046 C
HETATM    5  C11 UNL     1      25.692  66.616  11.525  1.00  0.00     0.039 C
HETATM    6  C12 UNL     1      25.069  66.388  12.875  1.00  0.00     0.127 C
HETATM    7  N4  UNL     1      24.729  64.968  12.887  1.00  0.00    -0.356 N
HETATM    8  C13 UNL     1      23.443  64.565  13.331  1.00  0.00     0.183 C
HETATM    9  N5  UNL     1      23.286  63.654  14.221  1.00  0.00    -0.374 N
ATOM     10  H51 UNL     1      22.362  63.364  14.540  1.00  0.00     0.158 HD
ATOM     11  H52 UNL     1      24.097  63.195  14.637  1.00  0.00     0.158 HD
HETATM   12  N6  UNL     1      22.309  65.207  12.750  1.00  0.00    -0.064 NA
HETATM   13  C14 UNL     1      25.661  63.980  12.461  1.00  0.00     0.127 C
HETATM   14  C15 UNL     1      26.966  64.491  11.979  1.00  0.00     0.039 C
HETATM   15  C16 UNL     1      27.504  66.019  10.084  1.00  0.00     0.234 C
HETATM   16  O3  UNL     1      26.762  66.033   9.092  1.00  0.00    -0.272 OA
ENDROOT
BRANCH   1  17
HETATM   17  C7  UNL     1      30.033  65.651   9.475  1.00  0.00     0.161 C
BRANCH  17  18
HETATM   18  C6  UNL     1      31.191  66.241   8.871  1.00  0.00     0.092 A
HETATM   19  C4  UNL     1      31.183  67.043   7.743  1.00  0.00     0.094 A
HETATM   20  O1  UNL     1      32.449  67.404   7.507  1.00  0.00    -0.240 OA
HETATM   21  N1  UNL     1      33.224  66.910   8.375  1.00  0.00    -0.244 N
HETATM   22  C5  UNL     1      32.512  66.163   9.275  1.00  0.00     0.136 A
ATOM     23  H1  UNL     1      34.235  67.048   8.401  1.00  0.00     0.196 HD
HETATM   24  N2  UNL     1      33.037  65.577  10.286  1.00  0.00    -0.383 N
ATOM     25  H22 UNL     1      34.011  65.519  10.583  1.00  0.00     0.157 HD
ATOM     26  H21 UNL     1      32.507  65.020  10.956  1.00  0.00     0.157 HD
BRANCH  19  27
HETATM   27  C3  UNL     1      30.080  67.503   6.872  1.00  0.00     0.068 C
BRANCH  27  28
HETATM   28  C2  UNL     1      29.909  66.563   5.711  1.00  0.00     0.002 C
HETATM   29  C1  UNL     1      29.057  65.348   6.133  1.00  0.00     0.005 C
ENDBRANCH  27  28
ENDBRANCH  19  27
ENDBRANCH  17  18
BRANCH  17  30
HETATM   30  O2  UNL     1      30.027  64.333   9.381  1.00  0.00    -0.345 OA
ATOM     31  H2  UNL     1      29.232  63.999   8.983  1.00  0.00     0.219 HD
ENDBRANCH  17  30
ENDBRANCH   1  17
TORSDOF 5
ENDMDL