MODEL 1
REMARK VINA RESULT: -8.262515614      0.000      0.000
REMARK  4 active torsions:
REMARK  status: ('A' for Active; 'I' for Inactive)
REMARK       I    between atoms: N1_2  and  C2_4
REMARK       I    between atoms: C2_4  and  N2_6
REMARK    1  A    between atoms: N2_6  and  C3_8
REMARK    2  A    between atoms: C3_8  and  C4_9
REMARK    3  A    between atoms: C9_14  and  C10_15
REMARK       I    between atoms: C10_15  and  N3_17
REMARK    4  A    between atoms: N3_17  and  C11_19
ROOT
HETATM    1  C4  UNL     1      25.780  64.480  12.287  1.00  0.00     0.059 A
HETATM    2  C5  UNL     1      25.050  65.346  11.443  1.00  0.00    -0.026 A
HETATM    3  C6  UNL     1      23.693  65.703  11.778  1.00  0.00     0.051 C
HETATM    4  C7  UNL     1      25.603  65.852  10.287  1.00  0.00    -0.033 A
HETATM    5  C8  UNL     1      24.829  66.777   9.394  1.00  0.00     0.050 C
HETATM    6  C9  UNL     1      26.876  65.527   9.926  1.00  0.00     0.106 A
HETATM    7  C15 UNL     1      27.564  64.684  10.761  1.00  0.00     0.264 A
HETATM    8  O3  UNL     1      28.758  64.365  10.445  1.00  0.00    -0.267 OA
HETATM    9  N6  UNL     1      27.007  64.182  11.914  1.00  0.00    -0.316 N
HETATM   10  C16 UNL     1      27.845  63.242  12.640  1.00  0.00     0.159 C
ENDROOT
BRANCH   6  11
HETATM   11  C10 UNL     1      27.509  66.032   8.716  1.00  0.00     0.263 C
HETATM   12  O2  UNL     1      27.253  65.422   7.612  1.00  0.00    -0.267 OA
HETATM   13  N3  UNL     1      28.372  67.113   8.602  1.00  0.00    -0.308 N
ATOM     14  H3  UNL     1      28.108  67.952   9.118  1.00  0.00     0.170 HD
BRANCH  13  15
HETATM   15  C11 UNL     1      29.455  67.189   7.934  1.00  0.00     0.124 A
HETATM   16  C12 UNL     1      30.703  66.886   8.415  1.00  0.00     0.076 A
HETATM   17  C13 UNL     1      31.628  67.093   7.390  1.00  0.00     0.025 A
HETATM   18  C14 UNL     1      33.099  66.889   7.463  1.00  0.00     0.070 C
HETATM   19  N4  UNL     1      30.905  67.511   6.333  1.00  0.00    -0.304 N
HETATM   20  N5  UNL     1      29.630  67.569   6.648  1.00  0.00    -0.285 N
ATOM     21  H4  UNL     1      31.291  67.748   5.420  1.00  0.00     0.186 HD
ATOM     22  H5  UNL     1      28.884  67.857   6.016  1.00  0.00     0.188 HD
ENDBRANCH  13  15
ENDBRANCH   6  11
BRANCH   1  23
HETATM   23  C3  UNL     1      25.062  64.019  13.427  1.00  0.00     0.123 C
BRANCH  23  24
HETATM   24  N2  UNL     1      25.167  64.541  14.735  1.00  0.00    -0.317 N
HETATM   25  C2  UNL     1      24.046  64.863  15.587  1.00  0.00     0.319 C
HETATM   26  N1  UNL     1      24.298  65.394  16.878  1.00  0.00    -0.347 N
HETATM   27  O1  UNL     1      22.852  64.684  15.216  1.00  0.00    -0.247 OA
HETATM   28  C1  UNL     1      23.222  65.742  17.790  1.00  0.00     0.151 C
ATOM     29  H1  UNL     1      25.263  65.537  17.174  1.00  0.00     0.163 HD
ATOM     30  H2  UNL     1      26.103  64.703  15.105  1.00  0.00     0.170 HD
ENDBRANCH  23  24
ENDBRANCH   1  23
TORSDOF 4
ENDMDL