MODEL 1
REMARK VINA RESULT: -6.744460984      0.000      0.000
REMARK  4 active torsions:
REMARK  status: ('A' for Active; 'I' for Inactive)
REMARK    1  A    between atoms: C8_9  and  O2_10
REMARK    2  A    between atoms: O2_10  and  C9_11
REMARK    3  A    between atoms: C9_11  and  O3_12
REMARK    4  A    between atoms: N1_14  and  O4_16
ROOT
HETATM    1  C1  UNL     1      15.370  -2.991  52.817  1.00  0.00     0.046 C
HETATM    2  C2  UNL     1      15.247  -1.771  51.934  1.00  0.00     0.060 C
HETATM    3  C3  UNL     1      14.056  -0.982  52.426  1.00  0.00     0.046 C
HETATM    4  O1  UNL     1      16.420  -1.080  51.977  1.00  0.00    -0.351 OA
HETATM    5  C4  UNL     1      17.214  -1.385  50.910  1.00  0.00     0.264 C
HETATM    6  C5  UNL     1      16.537  -2.548  50.168  1.00  0.00     0.068 C
HETATM    7  C6  UNL     1      15.105  -2.150  50.464  1.00  0.00     0.029 C
HETATM    8  C7  UNL     1      14.853  -0.859  49.720  1.00  0.00     0.069 C
HETATM    9  C8  UNL     1      16.054  -0.092  49.368  1.00  0.00     0.273 C
HETATM   10  O5  UNL     1      17.209  -0.344  50.021  1.00  0.00    -0.331 OA
ENDROOT
BRANCH   9  11
HETATM   11  O2  UNL     1      15.754   1.305  49.534  1.00  0.00    -0.283 OA
BRANCH  11  12
HETATM   12  C9  UNL     1      16.368   2.230  48.682  1.00  0.00     0.284 C
HETATM   13  N1  UNL     1      16.946   1.749  47.652  1.00  0.00    -0.227 N
ATOM     14  H1  UNL     1      16.921   0.737  47.520  1.00  0.00     0.198 HD
BRANCH  12  15
HETATM   15  O3  UNL     1      16.330   3.603  48.976  1.00  0.00    -0.325 OA
ATOM     16  H3  UNL     1      16.826   3.953  49.706  1.00  0.00     0.221 HD
ENDBRANCH  12  15
BRANCH  13  17
HETATM   17  O4  UNL     1      17.598   2.504  46.710  1.00  0.00    -0.286 OA
ATOM     18  H4  UNL     1      17.217   2.771  45.882  1.00  0.00     0.244 HD
ENDBRANCH  13  17
ENDBRANCH  11  12
ENDBRANCH   9  11
TORSDOF 4
ENDMDL