MODEL 4
REMARK VINA RESULT: -5.117393964      2.838      5.102
REMARK  2 active torsions:
REMARK  status: ('A' for Active; 'I' for Inactive)
REMARK    1  A    between atoms: C2_7  and  S2_8
REMARK    2  A    between atoms: S2_8  and  C3_9
ROOT
HETATM    1  C3  UNL     1      16.106  -1.090  49.647  1.00  0.00     0.281 C
HETATM    2  C4  UNL     1      17.453  -0.424  49.725  1.00  0.00     0.278 C
HETATM    3  N3  UNL     1      17.188   0.975  49.480  1.00  0.00    -0.049 N
ATOM      4  H31 UNL     1      17.665   1.330  48.652  1.00  0.00     0.279 HD
ATOM      5  H32 UNL     1      17.631   1.588  50.163  1.00  0.00     0.279 HD
HETATM    6  C5  UNL     1      15.769   1.141  49.419  1.00  0.00     0.464 C
HETATM    7  N4  UNL     1      15.228  -0.019  50.085  1.00  0.00    -0.036 N
ATOM      8  H41 UNL     1      15.141   0.074  51.097  1.00  0.00     0.280 HD
ATOM      9  H42 UNL     1      14.236  -0.184  49.911  1.00  0.00     0.280 HD
ENDROOT
BRANCH   1  10
HETATM   10  S2  UNL     1      15.889  -2.416  50.823  1.00  0.00    -0.068 SA
BRANCH  10  11
HETATM   11  C2  UNL     1      16.087  -1.895  52.502  1.00  0.00     0.131 A
HETATM   12  N2  UNL     1      17.232  -1.646  53.103  1.00  0.00    -0.286 N
HETATM   13  N1  UNL     1      17.252  -1.276  54.316  1.00  0.00    -0.283 N
ATOM     14  H2  UNL     1      18.107  -1.753  52.590  1.00  0.00     0.188 HD
HETATM   15  C1  UNL     1      16.102  -1.139  54.973  1.00  0.00     0.159 A
ATOM     16  H1  UNL     1      18.139  -1.084  54.782  1.00  0.00     0.188 HD
HETATM   17  S1  UNL     1      15.882  -0.669  56.545  1.00  0.00    -0.051 SA
HETATM   18  S3  UNL     1      14.961  -1.571  53.768  1.00  0.00    -0.033 SA
ENDBRANCH  10  11
ENDBRANCH   1  10
TORSDOF 2
ENDMDL