MODEL 3
REMARK VINA RESULT: -5.174915615      1.592      1.728
REMARK  4 active torsions:
REMARK  status: ('A' for Active; 'I' for Inactive)
REMARK    1  A    between atoms: S1_2  and  S2_3
REMARK    2  A    between atoms: S2_3  and  C2_4
REMARK    3  A    between atoms: C4_10  and  N2_11
REMARK    4  A    between atoms: N2_11  and  N3_13
ROOT
HETATM    1  C2  UNL     1      16.519  -1.618  52.182  1.00  0.00     0.158 A
HETATM    2  N1  UNL     1      15.197  -1.583  52.406  1.00  0.00    -0.321 N
ATOM      3  H1  UNL     1      14.848  -2.116  53.202  1.00  0.00     0.169 HD
HETATM    4  C3  UNL     1      14.291  -0.911  51.676  1.00  0.00     0.148 A
HETATM    5  S3  UNL     1      12.693  -0.929  52.027  1.00  0.00    -0.052 SA
HETATM    6  S4  UNL     1      14.957  -0.046  50.363  1.00  0.00    -0.023 SA
HETATM    7  C4  UNL     1      16.649  -0.227  50.263  1.00  0.00     0.167 A
HETATM    8  N4  UNL     1      17.185  -1.006  51.214  1.00  0.00    -0.315 N
ATOM      9  H4  UNL     1      18.196  -1.140  51.190  1.00  0.00     0.170 HD
ENDROOT
BRANCH   7  10
HETATM   10  N2  UNL     1      17.303   0.364  49.326  1.00  0.00    -0.286 N
ATOM     11  H2  UNL     1      18.090  -0.131  48.906  1.00  0.00     0.188 HD
BRANCH  10  12
HETATM   12  N3  UNL     1      17.003   1.630  48.853  1.00  0.00    -0.343 N
ATOM     13  H32 UNL     1      17.468   2.415  49.308  1.00  0.00     0.176 HD
ATOM     14  H31 UNL     1      16.353   1.814  48.088  1.00  0.00     0.176 HD
ENDBRANCH  10  12
ENDBRANCH   7  10
BRANCH   1  15
HETATM   15  S2  UNL     1      17.433  -2.525  53.227  1.00  0.00    -0.021 SA
BRANCH  15  16
HETATM   16  S1  UNL     1      17.984  -4.544  52.767  1.00  0.00    -0.094 SA
HETATM   17  C1  UNL     1      17.713  -4.881  51.006  1.00  0.00     0.103 C
ENDBRANCH  15  16
ENDBRANCH   1  15
TORSDOF 4
ENDMDL