MODEL 5
REMARK VINA RESULT: -5.833237379      1.962      3.727
REMARK  6 active torsions:
REMARK  status: ('A' for Active; 'I' for Inactive)
REMARK    1  A    between atoms: O1_2  and  C2_3
REMARK    2  A    between atoms: C2_3  and  N2_8
REMARK    3  A    between atoms: N1_4  and  O2_6
REMARK    4  A    between atoms: N2_8  and  O3_9
REMARK    5  A    between atoms: N2_8  and  C3_11
REMARK    6  A    between atoms: C9_17  and  O4_18
ROOT
HETATM    1  N2  UNL     1      16.772  -0.860  50.284  1.00  0.00    -0.215 N
ENDROOT
BRANCH   1   2
HETATM    2  C2  UNL     1      15.692   0.015  49.949  1.00  0.00     0.266 C
HETATM    3  N1  UNL     1      15.903   1.223  49.547  1.00  0.00    -0.231 N
ATOM      4  H1  UNL     1      15.096   1.804  49.321  1.00  0.00     0.198 HD
BRANCH   2   5
HETATM    5  O1  UNL     1      14.379  -0.399  50.044  1.00  0.00    -0.324 OA
HETATM    6  C1  UNL     1      13.509  -0.506  48.936  1.00  0.00     0.213 C
ENDBRANCH   2   5
BRANCH   3   7
HETATM    7  O2  UNL     1      17.148   1.766  49.408  1.00  0.00    -0.287 OA
ATOM      8  H2  UNL     1      17.824   1.396  48.852  1.00  0.00     0.244 HD
ENDBRANCH   3   7
ENDBRANCH   1   2
BRANCH   1   9
HETATM    9  O3  UNL     1      18.016  -0.408  50.123  1.00  0.00    -0.284 OA
ATOM     10  H3  UNL     1      18.170   0.238  49.443  1.00  0.00     0.245 HD
ENDBRANCH   1   9
BRANCH   1  11
HETATM   11  C3  UNL     1      16.456  -2.196  50.781  1.00  0.00     0.147 C
HETATM   12  C4  UNL     1      16.844  -3.200  49.763  1.00  0.00     0.030 C
HETATM   13  C5  UNL     1      17.691  -4.324  50.247  1.00  0.00     0.002 C
HETATM   14  C6  UNL     1      17.223  -5.000  51.476  1.00  0.00     0.000 C
HETATM   15  C7  UNL     1      15.904  -4.541  52.002  1.00  0.00     0.002 C
HETATM   16  C8  UNL     1      16.196  -3.374  52.954  1.00  0.00     0.034 C
HETATM   17  C9  UNL     1      17.068  -2.409  52.138  1.00  0.00     0.143 C
BRANCH  17  18
HETATM   18  O4  UNL     1      17.112  -1.232  52.885  1.00  0.00    -0.393 OA
ATOM     19  H4  UNL     1      16.390  -0.651  52.678  1.00  0.00     0.210 HD
ENDBRANCH  17  18
ENDBRANCH   1  11
TORSDOF 6
ENDMDL