MODEL 3
REMARK VINA RESULT: -6.211521464      1.097      1.163
REMARK  2 active torsions:
REMARK  status: ('A' for Active; 'I' for Inactive)
REMARK    1  A    between atoms: N1_1  and  C1_4
REMARK    2  A    between atoms: C3_10  and  C4_11
ROOT
HETATM    1  C1  UNL     1      16.514   1.120  49.251  1.00  0.00     0.145 A
HETATM    2  N2  UNL     1      17.350   0.208  49.747  1.00  0.00    -0.321 N
ATOM      3  H2  UNL     1      18.358   0.310  49.632  1.00  0.00     0.169 HD
HETATM    4  C2  UNL     1      16.854  -0.821  50.382  1.00  0.00     0.143 A
HETATM    5  N3  UNL     1      17.300  -1.948  51.026  1.00  0.00    -0.325 N
ATOM      6  H3  UNL     1      18.283  -2.202  51.123  1.00  0.00     0.169 HD
HETATM    7  C3  UNL     1      16.287  -2.673  51.509  1.00  0.00     0.130 A
HETATM    8  N5  UNL     1      15.129  -2.018  51.184  1.00  0.00    -0.332 N
ATOM      9  H5  UNL     1      14.177  -2.312  51.408  1.00  0.00     0.168 HD
HETATM   10  C8  UNL     1      15.496  -0.907  50.506  1.00  0.00     0.123 A
HETATM   11  S1  UNL     1      14.980   0.508  49.696  1.00  0.00    -0.033 SA
ENDROOT
BRANCH   7  12
HETATM   12  C4  UNL     1      16.390  -3.927  52.246  1.00  0.00     0.053 C
HETATM   13  N4  UNL     1      15.380  -4.673  52.510  1.00  0.00    -0.369 N
HETATM   14  C5  UNL     1      15.435  -5.913  53.231  1.00  0.00     0.290 C
ATOM     15  H4  UNL     1      14.467  -4.361  52.180  1.00  0.00     0.161 HD
HETATM   16  O1  UNL     1      16.718  -6.286  53.596  1.00  0.00    -0.372 OA
HETATM   17  C6  UNL     1      17.683  -5.901  52.698  1.00  0.00     0.176 C
HETATM   18  C7  UNL     1      17.716  -4.367  52.715  1.00  0.00     0.087 C
ENDBRANCH   7  12
BRANCH   1  19
HETATM   19  N1  UNL     1      16.804   2.216  48.588  1.00  0.00    -0.380 N
ATOM     20  H12 UNL     1      16.424   2.547  47.701  1.00  0.00     0.158 HD
ATOM     21  H11 UNL     1      17.469   2.949  48.835  1.00  0.00     0.158 HD
ENDBRANCH   1  19
TORSDOF 2
ENDMDL