MODEL 1
REMARK VINA RESULT: -6.493034443      0.000      0.000
REMARK  3 active torsions:
REMARK  status: ('A' for Active; 'I' for Inactive)
REMARK    1  A    between atoms: C3_5  and  C4_6
REMARK    2  A    between atoms: C4_6  and  N2_7
REMARK    3  A    between atoms: C8_16  and  N4_17
ROOT
HETATM    1  C1  UNL     1      12.353  -3.599  52.519  1.00  0.00     0.089 C
HETATM    2  C2  UNL     1      13.268  -2.638  51.862  1.00  0.00     0.078 A
HETATM    3  N1  UNL     1      14.486  -3.045  51.531  1.00  0.00    -0.344 N
ATOM      4  H1  UNL     1      14.724  -4.012  51.752  1.00  0.00     0.167 HD
HETATM    5  C3  UNL     1      15.436  -2.306  50.932  1.00  0.00     0.064 A
HETATM    6  C5  UNL     1      15.142  -0.969  50.614  1.00  0.00     0.055 A
HETATM    7  C6  UNL     1      13.884  -0.559  50.959  1.00  0.00     0.091 A
HETATM    8  N3  UNL     1      12.961  -1.364  51.568  1.00  0.00    -0.340 N
ATOM      9  H3  UNL     1      12.038  -0.996  51.800  1.00  0.00     0.167 HD
HETATM   10  S1  UNL     1      13.831   1.072  50.454  1.00  0.00    -0.065 SA
HETATM   11  C7  UNL     1      15.397   1.214  49.814  1.00  0.00     0.081 A
HETATM   12  C8  UNL     1      16.309   2.078  49.189  1.00  0.00     0.133 A
HETATM   13  N5  UNL     1      17.380   1.340  49.021  1.00  0.00    -0.284 N
ATOM     14  H5  UNL     1      18.243   1.669  48.589  1.00  0.00     0.188 HD
HETATM   15  N6  UNL     1      17.194   0.101  49.490  1.00  0.00    -0.297 N
ATOM     16  H6  UNL     1      17.892  -0.643  49.464  1.00  0.00     0.187 HD
HETATM   17  C9  UNL     1      15.932  -0.026  50.010  1.00  0.00     0.084 A
ENDROOT
BRANCH   5  18
HETATM   18  C4  UNL     1      16.707  -2.958  50.659  1.00  0.00     0.111 C
BRANCH  18  19
HETATM   19  N2  UNL     1      16.921  -3.447  49.467  1.00  0.00    -0.406 N
ATOM     20  H22 UNL     1      17.729  -3.132  48.930  1.00  0.00     0.155 HD
ATOM     21  H21 UNL     1      16.269  -4.139  49.095  1.00  0.00     0.155 HD
ENDBRANCH  18  19
ENDBRANCH   5  18
BRANCH  12  22
HETATM   22  N4  UNL     1      16.027   3.295  48.906  1.00  0.00    -0.383 N
ATOM     23  H42 UNL     1      15.671   3.753  48.067  1.00  0.00     0.157 HD
ATOM     24  H41 UNL     1      16.141   4.058  49.573  1.00  0.00     0.157 HD
ENDBRANCH  12  22
TORSDOF 3
ENDMDL