MODEL 5
REMARK VINA RESULT: -5.477219771      2.678      3.581
REMARK  3 active torsions:
REMARK  status: ('A' for Active; 'I' for Inactive)
REMARK    1  A    between atoms: C2_2  and  S1_3
REMARK    2  A    between atoms: S1_3  and  C3_4
REMARK    3  A    between atoms: C4_8  and  O1_9
ROOT
HETATM    1  C3  UNL     1      13.351  -2.228  52.973  1.00  0.00     0.069 C
HETATM    2  N1  UNL     1      14.449  -1.771  53.467  1.00  0.00    -0.297 N
ATOM      3  H1  UNL     1      14.676  -1.772  54.461  1.00  0.00     0.183 HD
HETATM    4  N2  UNL     1      15.288  -1.279  52.475  1.00  0.00    -0.072 NA
HETATM    5  C4  UNL     1      14.859  -1.939  51.249  1.00  0.00     0.327 C
HETATM    6  N3  UNL     1      14.964  -1.106  50.099  1.00  0.00    -0.017 N
ATOM      7  H31 UNL     1      15.171  -1.635  49.253  1.00  0.00     0.283 HD
ATOM      8  H32 UNL     1      15.805  -0.527  50.114  1.00  0.00     0.283 HD
HETATM    9  C5  UNL     1      13.768  -0.328  49.978  1.00  0.00     0.124 C
HETATM   10  C6  UNL     1      14.151   1.136  50.001  1.00  0.00     0.046 C
HETATM   11  C7  UNL     1      13.022  -0.616  48.692  1.00  0.00     0.046 C
HETATM   12  C8  UNL     1      12.865  -0.700  51.118  1.00  0.00     0.056 C
HETATM   13  C9  UNL     1      13.372  -2.063  51.513  1.00  0.00     0.129 C
ENDROOT
BRANCH   1  14
HETATM   14  S1  UNL     1      11.964  -2.962  53.857  1.00  0.00    -0.116 SA
BRANCH  14  15
HETATM   15  C2  UNL     1      11.307  -1.772  55.076  1.00  0.00     0.076 C
HETATM   16  C1  UNL     1       9.986  -1.269  54.609  1.00  0.00     0.016 C
ENDBRANCH  14  15
ENDBRANCH   1  14
BRANCH   5  17
HETATM   17  O1  UNL     1      15.460  -3.181  51.098  1.00  0.00    -0.350 OA
ATOM     18  H1  UNL     1      15.835  -3.286  50.232  1.00  0.00     0.214 HD
ENDBRANCH   5  17
TORSDOF 3
ENDMDL