MODEL 3
REMARK VINA RESULT: -5.960288008      1.765      5.286
REMARK  2 active torsions:
REMARK  status: ('A' for Active; 'I' for Inactive)
REMARK    1  A    between atoms: C2_2  and  N1_4
REMARK    2  A    between atoms: N1_4  and  C4_6
ROOT
HETATM    1  C4  UNL     1      14.383  -1.828  51.216  1.00  0.00     0.111 A
HETATM    2  N2  UNL     1      13.847  -0.598  51.108  1.00  0.00    -0.329 N
ATOM      3  H2  UNL     1      12.959  -0.409  51.573  1.00  0.00     0.168 HD
HETATM    4  C5  UNL     1      14.433   0.393  50.413  1.00  0.00     0.141 A
HETATM    5  N3  UNL     1      13.882   1.691  50.289  1.00  0.00    -0.081 NA
HETATM    6  C6  UNL     1      15.630   0.091  49.801  1.00  0.00     0.112 A
HETATM    7  C7  UNL     1      16.311   1.102  49.043  1.00  0.00     0.105 C
HETATM    8  N4  UNL     1      16.862   1.923  48.405  1.00  0.00    -0.191 NA
HETATM    9  C8  UNL     1      16.226  -1.176  49.887  1.00  0.00     0.062 A
HETATM   10  C9  UNL     1      15.599  -2.163  50.605  1.00  0.00     0.015 A
HETATM   11  C10 UNL     1      16.397  -3.408  50.562  1.00  0.00     0.064 C
HETATM   12  C11 UNL     1      17.384  -3.158  49.441  1.00  0.00     0.124 C
HETATM   13  N5  UNL     1      17.438  -1.698  49.344  1.00  0.00    -0.388 N
ATOM     14  H5  UNL     1      18.207  -1.150  48.957  1.00  0.00     0.159 HD
ENDROOT
BRANCH   1  15
HETATM   15  N1  UNL     1      13.701  -2.817  51.967  1.00  0.00    -0.372 N
ATOM     16  H1  UNL     1      13.485  -3.717  51.538  1.00  0.00     0.161 HD
BRANCH  15  17
HETATM   17  C2  UNL     1      13.311  -2.562  53.338  1.00  0.00     0.075 C
HETATM   18  C1  UNL     1      11.944  -3.147  53.645  1.00  0.00     0.031 C
HETATM   19  C3  UNL     1      14.326  -3.164  54.260  1.00  0.00     0.031 C
ENDBRANCH  15  17
ENDBRANCH   1  15
TORSDOF 2
ENDMDL