MODEL 5
REMARK VINA RESULT: -5.343622417      1.822      1.890
REMARK  1 active torsions:
REMARK  status: ('A' for Active; 'I' for Inactive)
REMARK    1  A    between atoms: C2_5  and  C3_6
ROOT
HETATM    1  N1  UNL     1      17.988  -4.250  53.440  1.00  0.00    -0.081 NA
HETATM    2  C1  UNL     1      17.152  -3.161  52.974  1.00  0.00     0.141 A
HETATM    3  N2  UNL     1      17.151  -2.740  51.739  1.00  0.00    -0.339 N
ATOM      4  H2  UNL     1      17.759  -3.183  51.050  1.00  0.00     0.167 HD
HETATM    5  C2  UNL     1      16.367  -1.747  51.380  1.00  0.00     0.084 A
HETATM    6  S1  UNL     1      15.578  -1.363  52.838  1.00  0.00    -0.063 SA
HETATM    7  C8  UNL     1      16.315  -2.528  53.855  1.00  0.00     0.095 A
HETATM    8  S2  UNL     1      16.077  -2.858  55.609  1.00  0.00    -0.041 SA
ENDROOT
BRANCH   5   9
HETATM    9  C3  UNL     1      16.183  -1.090  50.046  1.00  0.00     0.242 C
HETATM   10  C4  UNL     1      14.768  -1.002  49.631  1.00  0.00     0.040 C
HETATM   11  C5  UNL     1      14.107   0.317  49.743  1.00  0.00     0.004 C
HETATM   12  C6  UNL     1      14.994   1.503  49.735  1.00  0.00     0.027 C
HETATM   13  C7  UNL     1      16.341   1.130  49.160  1.00  0.00     0.233 C
HETATM   14  N3  UNL     1      16.903   0.148  50.074  1.00  0.00    -0.065 N
ATOM     15  H32 UNL     1      16.964   0.519  51.022  1.00  0.00     0.278 HD
ATOM     16  H31 UNL     1      17.896   0.002  49.893  1.00  0.00     0.278 HD
ENDBRANCH   5   9
TORSDOF 1
ENDMDL