MODEL 1
REMARK VINA RESULT: -9.353112532      0.000      0.000
REMARK  12 active torsions:
REMARK  status: ('A' for Active; 'I' for Inactive)
REMARK    1  A    between atoms: C2_2  and  C3_3
REMARK    2  A    between atoms: C3_3  and  C4_4
REMARK    3  A    between atoms: C4_4  and  C5_5
REMARK    4  A    between atoms: C5_5  and  C6_6
REMARK    5  A    between atoms: C6_6  and  C7_7
REMARK    6  A    between atoms: C6_6  and  C9_11
REMARK    7  A    between atoms: C7_7  and  C8_8
REMARK       I    between atoms: C9_11  and  N1_13
REMARK    8  A    between atoms: N1_13  and  C10_15
REMARK    9  A    between atoms: C11_20  and  C12_21
REMARK   10  A    between atoms: C12_21  and  C13_22
REMARK   11  A    between atoms: C13_22  and  C14_23
REMARK   12  A    between atoms: C14_23  and  C15_24
ROOT
HETATM    1  C10 UNL     1      16.547 -18.321  36.714  1.00  0.00     0.247 A
HETATM    2  N2  UNL     1      17.357 -19.205  36.141  1.00  0.00    -0.263 N
ATOM      3  H2  UNL     1      18.131 -19.682  36.604  1.00  0.00     0.190 HD
HETATM    4  N3  UNL     1      17.004 -19.369  34.879  1.00  0.00    -0.280 N
ATOM      5  H3  UNL     1      17.439 -19.982  34.190  1.00  0.00     0.189 HD
HETATM    6  C11 UNL     1      15.944 -18.553  34.694  1.00  0.00     0.142 A
HETATM    7  O7  UNL     1      15.686 -17.933  35.808  1.00  0.00    -0.264 OA
ENDROOT
BRANCH   6   8
HETATM    8  C12 UNL     1      15.155 -18.354  33.434  1.00  0.00     0.086 C
BRANCH   8   9
HETATM    9  C13 UNL     1      14.207 -19.502  33.213  1.00  0.00     0.010 C
BRANCH   9  10
HETATM   10  C14 UNL     1      13.487 -19.928  34.462  1.00  0.00     0.030 C
BRANCH  10  11
HETATM   11  C15 UNL     1      12.418 -20.921  34.114  1.00  0.00     0.202 C
HETATM   12  C16 UNL     1      12.314 -21.987  35.171  1.00  0.00     0.237 C
HETATM   13  O4  UNL     1      13.290 -22.271  35.913  1.00  0.00    -0.272 OA
HETATM   14  N4  UNL     1      11.040 -22.565  35.188  1.00  0.00    -0.337 N
HETATM   15  C17 UNL     1       9.976 -21.595  35.074  1.00  0.00     0.137 C
ATOM     16  H4  UNL     1      10.879 -23.569  35.272  1.00  0.00     0.164 HD
HETATM   17  C18 UNL     1       8.954 -22.139  34.109  1.00  0.00     0.047 C
HETATM   18  C22 UNL     1       9.382 -21.184  36.377  1.00  0.00     0.047 C
HETATM   19  S1  UNL     1      10.788 -20.221  34.240  1.00  0.00     0.184 S
HETATM   20  C19 UNL     1       8.216 -23.323  34.638  1.00  0.00     0.004 C
HETATM   21  C20 UNL     1       8.145 -23.357  36.141  1.00  0.00     0.000 C
HETATM   22  C21 UNL     1       8.159 -21.981  36.760  1.00  0.00     0.004 C
HETATM   23  O5  UNL     1      10.798 -19.008  35.145  1.00  0.00    -0.224 OA
HETATM   24  O6  UNL     1      10.175 -19.936  32.923  1.00  0.00    -0.224 OA
ENDBRANCH  10  11
ENDBRANCH   9  10
ENDBRANCH   8   9
ENDBRANCH   6   8
BRANCH   1  25
HETATM   25  N1  UNL     1      16.611 -17.931  37.933  1.00  0.00    -0.291 N
HETATM   26  C9  UNL     1      16.614 -18.817  39.036  1.00  0.00     0.229 C
HETATM   27  O3  UNL     1      17.703 -19.044  39.609  1.00  0.00    -0.273 OA
ATOM     28  H1  UNL     1      16.661 -16.929  38.119  1.00  0.00     0.172 HD
BRANCH  26  29
HETATM   29  C6  UNL     1      15.375 -19.443  39.486  1.00  0.00     0.088 C
BRANCH  29  30
HETATM   30  C5  UNL     1      14.293 -19.569  38.470  1.00  0.00     0.014 C
BRANCH  30  31
HETATM   31  C4  UNL     1      12.950 -19.047  38.874  1.00  0.00     0.001 C
BRANCH  31  32
HETATM   32  C3  UNL     1      11.936 -20.095  38.372  1.00  0.00    -0.000 C
BRANCH  32  33
HETATM   33  C2  UNL     1      12.301 -21.396  39.051  1.00  0.00    -0.005 C
HETATM   34  C1  UNL     1      12.132 -21.270  40.550  1.00  0.00     0.005 C
ENDBRANCH  32  33
ENDBRANCH  31  32
ENDBRANCH  30  31
ENDBRANCH  29  30
BRANCH  29  35
HETATM   35  C7  UNL     1      14.847 -18.645  40.658  1.00  0.00     0.127 C
BRANCH  35  36
HETATM   36  C8  UNL     1      15.044 -19.373  41.920  1.00  0.00     0.173 C
HETATM   37  O1  UNL     1      16.033 -20.103  42.166  1.00  0.00    -0.648 OA
HETATM   38  O2  UNL     1      14.045 -19.219  42.890  1.00  0.00    -0.648 OA
ENDBRANCH  35  36
ENDBRANCH  29  35
ENDBRANCH  26  29
ENDBRANCH   1  25
TORSDOF 12
ENDMDL