MODEL 5
REMARK VINA RESULT: -8.313325614      1.631      5.162
REMARK  13 active torsions:
REMARK  status: ('A' for Active; 'I' for Inactive)
REMARK    1  A    between atoms: N2_6  and  C5_7
REMARK    2  A    between atoms: C5_7  and  C6_8
REMARK    3  A    between atoms: C6_8  and  C7_9
REMARK    4  A    between atoms: C7_9  and  N3_10
REMARK    5  A    between atoms: N3_10  and  C8_13
REMARK    6  A    between atoms: C8_13  and  C9_14
REMARK    7  A    between atoms: C9_14  and  C10_15
REMARK    8  A    between atoms: C10_15  and  N4_16
REMARK    9  A    between atoms: N4_16  and  C11_18
REMARK   10  A    between atoms: C17_26  and  C18_27
REMARK   11  A    between atoms: C20_30  and  N6_31
REMARK   12  A    between atoms: N6_31  and  C21_33
REMARK   13  A    between atoms: C21_33  and  C22_34
ROOT
HETATM    1  C22 UNL     1       7.768 -24.727  34.918  1.00  0.00     0.143 C
HETATM    2  C23 UNL     1       6.721 -23.759  34.626  1.00  0.00     0.060 C
HETATM    3  N7  UNL     1       5.880 -22.975  34.401  1.00  0.00    -0.197 NA
ENDROOT
BRANCH   1   4
HETATM    4  C21 UNL     1       8.405 -24.432  36.278  1.00  0.00     0.136 C
BRANCH   4   5
HETATM    5  N6  UNL     1       9.775 -24.057  36.024  1.00  0.00    -0.370 N
ATOM      6  H6  UNL     1      10.445 -24.709  35.615  1.00  0.00     0.161 HD
BRANCH   5   7
HETATM    7  C20 UNL     1      10.116 -22.823  36.350  1.00  0.00     0.144 A
HETATM    8  S1  UNL     1       9.397 -21.353  35.902  1.00  0.00    -0.064 SA
HETATM    9  C19 UNL     1      10.443 -20.301  36.738  1.00  0.00     0.083 A
HETATM   10  C18 UNL     1      11.323 -21.170  37.339  1.00  0.00     0.051 A
HETATM   11  N8  UNL     1      11.135 -22.454  37.126  1.00  0.00    -0.336 N
ATOM     12  H8  UNL     1      11.753 -23.150  37.544  1.00  0.00     0.168 HD
BRANCH  10  13
HETATM   13  C17 UNL     1      12.439 -20.660  38.195  1.00  0.00    -0.008 A
HETATM   14  C16 UNL     1      12.343 -20.681  39.564  1.00  0.00     0.016 A
HETATM   15  C15 UNL     1      13.382 -20.206  40.367  1.00  0.00     0.031 A
HETATM   16  C14 UNL     1      14.535 -19.703  39.819  1.00  0.00     0.044 A
HETATM   17  N5  UNL     1      15.558 -19.239  40.585  1.00  0.00    -0.365 N
HETATM   18  C25 UNL     1      14.645 -19.675  38.448  1.00  0.00     0.018 A
HETATM   19  C13 UNL     1      16.695 -18.744  40.068  1.00  0.00     0.090 A
ATOM     20  H5  UNL     1      15.457 -19.267  41.600  1.00  0.00     0.165 HD
HETATM   21  C12 UNL     1      16.807 -18.716  38.680  1.00  0.00     0.047 A
HETATM   22  C11 UNL     1      15.802 -19.173  37.868  1.00  0.00     0.042 A
HETATM   23  C24 UNL     1      13.601 -20.152  37.665  1.00  0.00     0.029 A
BRANCH  22  24
HETATM   24  N4  UNL     1      15.872 -19.164  36.597  1.00  0.00    -0.389 N
ATOM     25  H4  UNL     1      16.073 -20.067  36.167  1.00  0.00     0.159 HD
BRANCH  24  26
HETATM   26  C10 UNL     1      15.712 -18.085  35.692  1.00  0.00     0.121 C
BRANCH  26  27
HETATM   27  C9  UNL     1      15.588 -18.586  34.250  1.00  0.00     0.047 C
BRANCH  27  28
HETATM   28  C8  UNL     1      14.182 -19.085  33.969  1.00  0.00     0.234 C
BRANCH  28  29
HETATM   29  N3  UNL     1      14.170 -20.477  33.610  1.00  0.00    -0.075 N
ATOM     30  H32 UNL     1      14.989 -20.968  33.967  1.00  0.00     0.277 HD
ATOM     31  H31 UNL     1      14.335 -20.613  32.613  1.00  0.00     0.277 HD
BRANCH  29  32
HETATM   32  C7  UNL     1      12.946 -21.093  34.039  1.00  0.00     0.234 C
BRANCH  32  33
HETATM   33  C6  UNL     1      11.809 -20.813  33.063  1.00  0.00     0.057 C
BRANCH  33  34
HETATM   34  C5  UNL     1      11.178 -22.142  32.719  1.00  0.00     0.274 C
BRANCH  34  35
HETATM   35  N2  UNL     1      10.055 -22.010  31.845  1.00  0.00     0.090 N
HETATM   36  C4  UNL     1      10.446 -21.333  30.641  1.00  0.00     0.274 C
HETATM   37  C3  UNL     1      10.501 -22.241  29.429  1.00  0.00     0.060 C
HETATM   38  C2  UNL     1       9.132 -22.350  28.790  1.00  0.00     0.273 C
HETATM   39  N1  UNL     1       8.389 -23.424  29.472  1.00  0.00     0.086 N
HETATM   40  C1  UNL     1       7.187 -23.761  28.748  1.00  0.00     0.309 C
HETATM   41  C27 UNL     1       8.051 -22.966  30.811  1.00  0.00     0.302 C
HETATM   42  C26 UNL     1       9.273 -23.186  31.676  1.00  0.00     0.302 C
ENDBRANCH  34  35
ENDBRANCH  33  34
ENDBRANCH  32  33
ENDBRANCH  29  32
ENDBRANCH  28  29
ENDBRANCH  27  28
ENDBRANCH  26  27
ENDBRANCH  24  26
ENDBRANCH  22  24
ENDBRANCH  10  13
ENDBRANCH   5   7
ENDBRANCH   4   5
ENDBRANCH   1   4
TORSDOF 13
ENDMDL