MODEL 2
REMARK VINA RESULT: -8.320504507      3.404     10.217
REMARK  15 active torsions:
REMARK  status: ('A' for Active; 'I' for Inactive)
REMARK    1  A    between atoms: C2_2  and  C17_18
REMARK    2  A    between atoms: C3_3  and  C4_4
REMARK    3  A    between atoms: C4_4  and  C5_5
REMARK    4  A    between atoms: C5_5  and  C6_6
REMARK    5  A    between atoms: C7_7  and  C8_8
REMARK    6  A    between atoms: C8_8  and  C9_9
REMARK    7  A    between atoms: C9_9  and  C10_10
REMARK    8  A    between atoms: C10_10  and  C11_11
REMARK    9  A    between atoms: C11_11  and  C12_12
REMARK   10  A    between atoms: C12_12  and  N1_13
REMARK   11  A    between atoms: C17_18  and  O1_21
REMARK   12  A    between atoms: O1_21  and  C20_22
REMARK   13  A    between atoms: C21_24  and  N2_25
REMARK   14  A    between atoms: C26_34  and  O5_35
REMARK   15  A    between atoms: C27_37  and  O6_38
ROOT
HETATM    1  C17 UNL     1      10.379 -21.640  35.882  1.00  0.00     0.080 C
HETATM    2  C18 UNL     1      10.511 -23.089  36.181  1.00  0.00     0.051 C
HETATM    3  C19 UNL     1       8.851 -21.350  35.946  1.00  0.00     0.051 C
ENDROOT
BRANCH   1   4
HETATM    4  C2  UNL     1      10.773 -21.274  34.525  1.00  0.00    -0.050 C
HETATM    5  C1  UNL     1      10.554 -19.854  34.074  1.00  0.00     0.046 C
HETATM    6  C3  UNL     1      11.300 -22.124  33.685  1.00  0.00     0.013 C
BRANCH   6   7
HETATM    7  C4  UNL     1      11.646 -21.606  32.330  1.00  0.00     0.056 C
BRANCH   7   8
HETATM    8  C5  UNL     1      10.872 -21.636  31.284  1.00  0.00    -0.129 C
BRANCH   8   9
HETATM    9  C6  UNL     1      10.074 -21.661  30.226  1.00  0.00     0.051 C
HETATM   10  C7  UNL     1      10.192 -22.617  29.264  1.00  0.00    -0.018 C
BRANCH  10  11
HETATM   11  C8  UNL     1       9.282 -22.618  28.110  1.00  0.00     0.028 C
BRANCH  11  12
HETATM   12  C9  UNL     1       8.034 -23.395  28.333  1.00  0.00     0.004 C
BRANCH  12  13
HETATM   13  C10 UNL     1       6.929 -22.642  29.066  1.00  0.00     0.002 C
BRANCH  13  14
HETATM   14  C11 UNL     1       6.296 -23.659  30.015  1.00  0.00     0.028 C
BRANCH  14  15
HETATM   15  C12 UNL     1       7.262 -24.075  31.072  1.00  0.00     0.237 C
BRANCH  15  16
HETATM   16  N1  UNL     1       6.619 -24.262  32.329  1.00  0.00    -0.071 N
HETATM   17  C13 UNL     1       5.245 -23.751  32.320  1.00  0.00     0.272 C
HETATM   18  C14 UNL     1       7.429 -23.627  33.376  1.00  0.00     0.238 C
HETATM   19  C15 UNL     1       7.292 -24.838  34.232  1.00  0.00     0.056 C
HETATM   20  C16 UNL     1       6.737 -25.531  32.971  1.00  0.00     0.238 C
ENDBRANCH  15  16
ENDBRANCH  14  15
ENDBRANCH  13  14
ENDBRANCH  12  13
ENDBRANCH  11  12
ENDBRANCH  10  11
ENDBRANCH   8   9
ENDBRANCH   7   8
ENDBRANCH   6   7
ENDBRANCH   1   4
BRANCH   1  21
HETATM   21  O1  UNL     1      10.924 -20.858  36.868  1.00  0.00    -0.344 OA
BRANCH  21  22
HETATM   22  C20 UNL     1      11.921 -21.394  37.623  1.00  0.00     0.295 C
HETATM   23  O2  UNL     1      13.118 -21.348  36.916  1.00  0.00    -0.331 OA
HETATM   24  C21 UNL     1      13.811 -20.195  37.281  1.00  0.00     0.266 C
HETATM   25  C26 UNL     1      12.846 -19.325  38.010  1.00  0.00     0.201 C
HETATM   26  C27 UNL     1      12.099 -20.420  38.810  1.00  0.00     0.206 C
BRANCH  24  27
HETATM   27  N2  UNL     1      14.507 -19.612  36.178  1.00  0.00    -0.280 N
HETATM   28  C22 UNL     1      14.025 -19.834  34.920  1.00  0.00     0.104 A
HETATM   29  C23 UNL     1      14.620 -19.320  33.794  1.00  0.00     0.092 A
HETATM   30  C24 UNL     1      15.749 -18.554  33.980  1.00  0.00     0.250 A
HETATM   31  O3  UNL     1      16.390 -18.022  33.008  1.00  0.00    -0.268 OA
HETATM   32  N3  UNL     1      16.241 -18.324  35.196  1.00  0.00    -0.275 N
HETATM   33  C25 UNL     1      15.611 -18.854  36.263  1.00  0.00     0.331 A
ATOM     34  H3  UNL     1      17.080 -17.756  35.318  1.00  0.00     0.173 HD
HETATM   35  O4  UNL     1      16.098 -18.611  37.395  1.00  0.00    -0.246 OA
ENDBRANCH  24  27
BRANCH  25  36
HETATM   36  O5  UNL     1      13.375 -18.419  38.887  1.00  0.00    -0.388 OA
ATOM     37  H5  UNL     1      12.759 -17.872  39.361  1.00  0.00     0.210 HD
ENDBRANCH  25  36
BRANCH  26  38
HETATM   38  O6  UNL     1      12.999 -20.918  39.709  1.00  0.00    -0.388 OA
ATOM     39  H6  UNL     1      12.570 -21.502  40.324  1.00  0.00     0.210 HD
ENDBRANCH  26  38
ENDBRANCH  21  22
ENDBRANCH   1  21
TORSDOF 15
ENDMDL