MODEL 2
REMARK VINA RESULT: -8.625588173      1.182      1.398
REMARK  14 active torsions:
REMARK  status: ('A' for Active; 'I' for Inactive)
REMARK    1  A    between atoms: C5_5  and  N1_6
REMARK    2  A    between atoms: N1_6  and  C6_8
REMARK    3  A    between atoms: C7_11  and  N3_12
REMARK    4  A    between atoms: C10_17  and  N5_18
REMARK    5  A    between atoms: N5_18  and  C11_20
REMARK    6  A    between atoms: C11_20  and  C12_21
REMARK    7  A    between atoms: C12_21  and  C13_22
REMARK    8  A    between atoms: C13_22  and  N6_23
REMARK    9  A    between atoms: N6_23  and  C15_25
REMARK   10  A    between atoms: C15_25  and  C16_26
REMARK   11  A    between atoms: C16_26  and  C17_27
REMARK   12  A    between atoms: C17_27  and  N7_28
REMARK   13  A    between atoms: N7_28  and  C18_29
REMARK   14  A    between atoms: C18_29  and  C19_30
ROOT
HETATM    1  N5  UNL     1      11.163 -22.114  32.661  1.00  0.00    -0.225 N
ATOM      2  H5  UNL     1      10.608 -22.918  32.955  1.00  0.00     0.177 HD
ENDROOT
BRANCH   1   3
HETATM    3  C10 UNL     1      11.862 -21.385  33.525  1.00  0.00     0.707 A
HETATM    4  N4  UNL     1      13.063 -20.880  33.258  1.00  0.00    -0.021 N
HETATM    5  C7  UNL     1      13.713 -19.982  34.065  1.00  0.00     0.708 A
ATOM      6  H4  UNL     1      13.529 -21.179  32.401  1.00  0.00     0.203 HD
HETATM    7  N2  UNL     1      13.084 -19.607  35.177  1.00  0.00    -0.021 N
HETATM    8  C6  UNL     1      11.857 -20.079  35.521  1.00  0.00     0.711 A
ATOM      9  H2  UNL     1      13.542 -18.938  35.797  1.00  0.00     0.203 HD
HETATM   10  N9  UNL     1      11.284 -20.955  34.683  1.00  0.00    -0.021 N
ATOM     11  H9  UNL     1      10.363 -21.321  34.925  1.00  0.00     0.203 HD
BRANCH   5  12
HETATM   12  N3  UNL     1      15.007 -19.519  33.711  1.00  0.00    -0.225 N
HETATM   13  C8  UNL     1      15.218 -18.316  32.935  1.00  0.00     0.168 C
HETATM   14  C9  UNL     1      16.157 -20.259  34.155  1.00  0.00     0.168 C
ENDBRANCH   5  12
BRANCH   8  15
HETATM   15  N1  UNL     1      11.252 -19.601  36.579  1.00  0.00    -0.191 N
ATOM     16  H1  UNL     1      10.379 -19.081  36.501  1.00  0.00     0.184 HD
BRANCH  15  17
HETATM   17  C5  UNL     1      11.863 -19.836  37.843  1.00  0.00     0.049 A
HETATM   18  C4  UNL     1      11.770 -21.001  38.541  1.00  0.00     0.030 A
HETATM   19  C3  UNL     1      12.382 -21.175  39.793  1.00  0.00     0.009 A
HETATM   20  C2  UNL     1      13.110 -20.170  40.382  1.00  0.00    -0.062 A
HETATM   21  C1  UNL     1      13.743 -20.309  41.721  1.00  0.00     0.048 C
HETATM   22  C27 UNL     1      13.202 -18.990  39.668  1.00  0.00     0.009 A
HETATM   23  C26 UNL     1      12.610 -18.807  38.449  1.00  0.00     0.030 A
ENDBRANCH  15  17
ENDBRANCH   8  15
ENDBRANCH   1   3
BRANCH   1  24
HETATM   24  C11 UNL     1      11.236 -21.697  31.277  1.00  0.00     0.140 C
BRANCH  24  25
HETATM   25  C12 UNL     1       9.938 -21.084  30.789  1.00  0.00     0.050 C
BRANCH  25  26
HETATM   26  C13 UNL     1       8.879 -21.957  30.306  1.00  0.00     0.273 C
BRANCH  26  27
HETATM   27  N6  UNL     1       8.534 -22.205  28.975  1.00  0.00     0.084 N
HETATM   28  C14 UNL     1       9.617 -22.563  28.144  1.00  0.00     0.309 C
BRANCH  27  29
HETATM   29  C15 UNL     1       7.468 -23.233  28.935  1.00  0.00     0.278 C
BRANCH  29  30
HETATM   30  C16 UNL     1       6.282 -22.709  29.666  1.00  0.00     0.089 C
BRANCH  30  31
HETATM   31  C17 UNL     1       5.491 -23.677  30.481  1.00  0.00     0.156 C
BRANCH  31  32
HETATM   32  N7  UNL     1       5.754 -24.148  31.658  1.00  0.00    -0.433 NA
BRANCH  32  33
HETATM   33  C18 UNL     1       6.001 -24.575  32.735  1.00  0.00     0.198 C
BRANCH  33  34
HETATM   34  C19 UNL     1       6.515 -23.790  33.899  1.00  0.00     0.067 A
HETATM   35  C20 UNL     1       5.682 -23.472  34.968  1.00  0.00    -0.042 A
HETATM   36  C21 UNL     1       4.267 -23.881  35.003  1.00  0.00     0.049 C
HETATM   37  C22 UNL     1       6.217 -22.722  36.005  1.00  0.00     0.032 A
HETATM   38  C23 UNL     1       7.535 -22.286  36.009  1.00  0.00     0.009 A
HETATM   39  C24 UNL     1       8.098 -21.475  37.114  1.00  0.00     0.068 C
HETATM   40  N8  UNL     1       8.300 -22.615  34.963  1.00  0.00    -0.327 N
HETATM   41  C25 UNL     1       7.808 -23.346  33.937  1.00  0.00     0.258 A
ATOM     42  H8  UNL     1       9.272 -22.310  34.939  1.00  0.00     0.169 HD
HETATM   43  O1  UNL     1       8.613 -23.609  32.987  1.00  0.00    -0.267 OA
ENDBRANCH  33  34
ENDBRANCH  32  33
ENDBRANCH  31  32
ENDBRANCH  30  31
ENDBRANCH  29  30
ENDBRANCH  27  29
ENDBRANCH  26  27
ENDBRANCH  25  26
ENDBRANCH  24  25
ENDBRANCH   1  24
TORSDOF 14
ENDMDL