MODEL 1
REMARK VINA RESULT: -8.389902507      0.000      0.000
REMARK  12 active torsions:
REMARK  status: ('A' for Active; 'I' for Inactive)
REMARK    1  A    between atoms: C2_2  and  C3_3
REMARK    2  A    between atoms: C3_3  and  N1_6
REMARK       I    between atoms: N1_6  and  C6_8
REMARK    3  A    between atoms: C6_8  and  C7_10
REMARK    4  A    between atoms: C7_10  and  C8_11
REMARK    5  A    between atoms: C8_11  and  C9_12
REMARK    6  A    between atoms: C9_12  and  C10_13
REMARK    7  A    between atoms: C10_13  and  C11_14
REMARK    8  A    between atoms: C11_14  and  C12_15
REMARK       I    between atoms: C12_15  and  N2_17
REMARK    9  A    between atoms: N2_17  and  C13_19
REMARK   10  A    between atoms: C14_20  and  O3_21
REMARK   11  A    between atoms: C19_29  and  C20_30
REMARK   12  A    between atoms: C20_30  and  C21_31
ROOT
HETATM    1  C13 UNL     1      10.419 -21.628  34.241  1.00  0.00     0.151 C
HETATM    2  C14 UNL     1      10.354 -22.810  35.229  1.00  0.00     0.283 C
HETATM    3  O4  UNL     1      10.728 -22.298  36.473  1.00  0.00    -0.351 OA
HETATM    4  C16 UNL     1      10.787 -20.938  36.384  1.00  0.00     0.158 C
HETATM    5  C17 UNL     1      11.429 -20.788  34.994  1.00  0.00     0.082 C
HETATM    6  C18 UNL     1      11.459 -19.354  34.681  1.00  0.00     0.066 C
HETATM    7  N3  UNL     1      12.648 -18.990  34.038  1.00  0.00    -0.389 N
ATOM      8  H3  UNL     1      12.635 -18.708  33.057  1.00  0.00     0.159 HD
HETATM    9  C19 UNL     1      13.876 -19.014  34.758  1.00  0.00     0.173 C
HETATM   10  C24 UNL     1      13.837 -19.444  36.130  1.00  0.00     0.242 C
HETATM   11  O5  UNL     1      14.918 -19.080  36.725  1.00  0.00    -0.271 OA
HETATM   12  N4  UNL     1      13.028 -20.135  37.086  1.00  0.00    -0.348 N
HETATM   13  C25 UNL     1      13.816 -20.954  38.022  1.00  0.00     0.153 C
HETATM   14  C26 UNL     1      11.633 -20.209  37.343  1.00  0.00     0.112 C
HETATM   15  C27 UNL     1      11.416 -20.905  38.704  1.00  0.00     0.035 C
ENDROOT
BRANCH   1  16
HETATM   16  N2  UNL     1      10.853 -22.035  32.942  1.00  0.00    -0.351 N
HETATM   17  C12 UNL     1      10.399 -21.335  31.798  1.00  0.00     0.218 C
HETATM   18  O2  UNL     1       9.619 -20.369  31.946  1.00  0.00    -0.274 OA
ATOM     19  H2  UNL     1      11.488 -22.828  32.839  1.00  0.00     0.163 HD
BRANCH  17  20
HETATM   20  C11 UNL     1      10.829 -21.726  30.436  1.00  0.00     0.103 C
BRANCH  20  21
HETATM   21  C10 UNL     1       9.650 -21.806  29.483  1.00  0.00     0.009 C
BRANCH  21  22
HETATM   22  C9  UNL     1       9.096 -23.204  29.420  1.00  0.00     0.001 C
BRANCH  22  23
HETATM   23  C8  UNL     1       7.822 -23.364  30.195  1.00  0.00     0.009 C
BRANCH  23  24
HETATM   24  C7  UNL     1       8.047 -24.284  31.368  1.00  0.00     0.103 C
BRANCH  24  25
HETATM   25  C6  UNL     1       6.849 -24.253  32.289  1.00  0.00     0.218 C
HETATM   26  N1  UNL     1       6.790 -23.259  33.288  1.00  0.00    -0.353 N
ATOM     27  H1  UNL     1       7.545 -22.580  33.382  1.00  0.00     0.163 HD
HETATM   28  O1  UNL     1       5.957 -25.118  32.122  1.00  0.00    -0.274 OA
BRANCH  26  29
HETATM   29  C3  UNL     1       5.653 -23.213  34.178  1.00  0.00     0.025 C
HETATM   30  C4  UNL     1       5.924 -22.109  35.190  1.00  0.00     0.038 C
HETATM   31  C5  UNL     1       4.352 -23.013  33.465  1.00  0.00     0.038 C
BRANCH  29  32
HETATM   32  C2  UNL     1       5.563 -24.504  34.980  1.00  0.00     0.026 C
HETATM   33  C1  UNL     1       4.144 -24.588  35.525  1.00  0.00     0.007 C
ENDBRANCH  29  32
ENDBRANCH  26  29
ENDBRANCH  24  25
ENDBRANCH  23  24
ENDBRANCH  22  23
ENDBRANCH  21  22
ENDBRANCH  20  21
ENDBRANCH  17  20
ENDBRANCH   1  16
BRANCH   2  34
HETATM   34  O3  UNL     1       9.117 -23.401  35.226  1.00  0.00    -0.364 OA
HETATM   35  C15 UNL     1       8.995 -24.170  36.383  1.00  0.00     0.204 C
ENDBRANCH   2  34
BRANCH   9  36
HETATM   36  C20 UNL     1      14.807 -19.873  33.943  1.00  0.00     0.038 C
BRANCH  36  37
HETATM   37  C21 UNL     1      16.007 -19.222  33.371  1.00  0.00    -0.020 C
HETATM   38  C22 UNL     1      17.156 -19.021  34.305  1.00  0.00     0.009 C
HETATM   39  C23 UNL     1      15.543 -17.836  32.876  1.00  0.00     0.009 C
ENDBRANCH  36  37
ENDBRANCH   9  36
TORSDOF 12
ENDMDL