MODEL 5
REMARK VINA RESULT: -8.191900503      2.413      5.213
REMARK  13 active torsions:
REMARK  status: ('A' for Active; 'I' for Inactive)
REMARK    1  A    between atoms: C4_4  and  C5_5
REMARK    2  A    between atoms: C6_6  and  O1_7
REMARK    3  A    between atoms: N2_13  and  C8_14
REMARK    4  A    between atoms: C8_14  and  C9_15
REMARK    5  A    between atoms: C9_15  and  C10_16
REMARK    6  A    between atoms: N3_22  and  C15_23
REMARK    7  A    between atoms: C17_25  and  O4_26
REMARK    8  A    between atoms: O4_26  and  C18_27
REMARK    9  A    between atoms: C18_27  and  C19_28
REMARK   10  A    between atoms: C19_28  and  C20_29
REMARK   11  A    between atoms: C20_29  and  C21_30
REMARK   12  A    between atoms: C21_30  and  C22_31
REMARK   13  A    between atoms: C22_31  and  O6_33
ROOT
HETATM    1  C1  UNL     1      11.147 -19.304  34.898  1.00  0.00     0.044 C
HETATM    2  C2  UNL     1      11.574 -20.595  34.956  1.00  0.00     0.040 A
HETATM    3  C3  UNL     1      10.768 -21.651  34.552  1.00  0.00    -0.007 A
HETATM    4  C4  UNL     1       9.527 -21.571  34.071  1.00  0.00     0.035 C
HETATM    5  C13 UNL     1      11.515 -22.791  34.749  1.00  0.00     0.031 A
HETATM    6  C14 UNL     1      12.726 -22.400  35.255  1.00  0.00     0.098 A
HETATM    7  N3  UNL     1      12.753 -21.042  35.380  1.00  0.00    -0.322 N
ENDROOT
BRANCH   7   8
HETATM    8  C15 UNL     1      13.847 -20.284  35.902  1.00  0.00     0.047 A
HETATM    9  C16 UNL     1      14.012 -20.149  37.269  1.00  0.00     0.067 A
HETATM   10  C17 UNL     1      15.039 -19.448  37.832  1.00  0.00     0.076 A
HETATM   11  C24 UNL     1      15.949 -18.848  36.999  1.00  0.00    -0.028 A
HETATM   12  C25 UNL     1      17.090 -18.074  37.595  1.00  0.00     0.051 C
HETATM   13  C26 UNL     1      15.834 -18.948  35.609  1.00  0.00     0.018 A
HETATM   14  C27 UNL     1      14.757 -19.683  35.081  1.00  0.00    -0.034 A
HETATM   15  C28 UNL     1      14.655 -19.788  33.609  1.00  0.00     0.050 C
BRANCH  10  16
HETATM   16  O4  UNL     1      15.204 -19.316  39.206  1.00  0.00    -0.351 OA
BRANCH  16  17
HETATM   17  C18 UNL     1      14.108 -19.463  40.096  1.00  0.00     0.175 C
BRANCH  17  18
HETATM   18  C19 UNL     1      14.558 -20.028  41.419  1.00  0.00     0.027 C
BRANCH  18  19
HETATM   19  C20 UNL     1      14.989 -18.938  42.359  1.00  0.00     0.012 C
BRANCH  19  20
HETATM   20  C21 UNL     1      16.482 -18.683  42.232  1.00  0.00     0.111 C
BRANCH  20  21
HETATM   21  C22 UNL     1      16.705 -17.243  42.021  1.00  0.00     0.258 C
HETATM   22  O5  UNL     1      15.945 -16.600  41.275  1.00  0.00    -0.265 OA
BRANCH  21  23
HETATM   23  O6  UNL     1      17.754 -16.605  42.647  1.00  0.00    -0.326 OA
HETATM   24  C23 UNL     1      17.441 -15.612  43.618  1.00  0.00     0.213 C
ENDBRANCH  21  23
ENDBRANCH  20  21
ENDBRANCH  19  20
ENDBRANCH  18  19
ENDBRANCH  17  18
ENDBRANCH  16  17
ENDBRANCH  10  16
ENDBRANCH   7   8
BRANCH   4  25
HETATM   25  C5  UNL     1       8.776 -22.755  33.680  1.00  0.00     0.084 A
HETATM   26  C6  UNL     1       8.876 -23.261  32.408  1.00  0.00     0.160 A
HETATM   27  N1  UNL     1       8.157 -24.358  32.086  1.00  0.00    -0.288 N
HETATM   28  C7  UNL     1       7.354 -24.951  32.986  1.00  0.00     0.331 A
ATOM     29  H1  UNL     1       8.225 -24.743  31.143  1.00  0.00     0.172 HD
HETATM   30  O2  UNL     1       6.714 -25.982  32.592  1.00  0.00    -0.246 OA
HETATM   31  N2  UNL     1       7.220 -24.484  34.263  1.00  0.00    -0.265 N
HETATM   32  C12 UNL     1       7.929 -23.398  34.593  1.00  0.00     0.266 A
HETATM   33  O3  UNL     1       7.895 -22.877  35.743  1.00  0.00    -0.267 OA
BRANCH  26  34
HETATM   34  O1  UNL     1       9.723 -22.613  31.508  1.00  0.00    -0.345 OA
ATOM     35  H1  UNL     1       9.864 -21.681  31.621  1.00  0.00     0.219 HD
ENDBRANCH  26  34
BRANCH  31  36
HETATM   36  C8  UNL     1       6.405 -25.159  35.211  1.00  0.00     0.137 C
BRANCH  36  37
HETATM   37  C9  UNL     1       4.952 -24.972  35.209  1.00  0.00     0.020 C
BRANCH  37  38
HETATM   38  C10 UNL     1       4.341 -23.665  35.484  1.00  0.00    -0.003 C
HETATM   39  C11 UNL     1       4.084 -22.749  34.341  1.00  0.00     0.005 C
ENDBRANCH  37  38
ENDBRANCH  36  37
ENDBRANCH  31  36
ENDBRANCH   4  25
TORSDOF 13
ENDMDL