MODEL 4
REMARK VINA RESULT: -7.938451548      1.460      2.856
REMARK  16 active torsions:
REMARK  status: ('A' for Active; 'I' for Inactive)
REMARK    1  A    between atoms: O1_2  and  C2_3
REMARK    2  A    between atoms: C4_5  and  C5_6
REMARK    3  A    between atoms: C5_6  and  N1_7
REMARK    4  A    between atoms: C8_10  and  C9_11
REMARK    5  A    between atoms: C9_11  and  C10_12
REMARK    6  A    between atoms: C10_12  and  C11_13
REMARK    7  A    between atoms: C11_13  and  N2_14
REMARK    8  A    between atoms: N5_19  and  O2_21
REMARK    9  A    between atoms: O2_21  and  C13_22
REMARK   10  A    between atoms: C13_22  and  C14_23
REMARK   11  A    between atoms: C15_24  and  C16_25
REMARK   12  A    between atoms: C16_25  and  C17_26
REMARK   13  A    between atoms: C18_27  and  C20_29
REMARK   14  A    between atoms: C20_29  and  N6_30
REMARK   15  A    between atoms: C24_37  and  O3_38
REMARK   16  A    between atoms: C26_40  and  O4_41
ROOT
HETATM    1  C10 UNL     1      13.984 -19.496  37.764  1.00  0.00     0.079 C
ENDROOT
BRANCH   1   2
HETATM    2  C9  UNL     1      13.989 -20.921  37.336  1.00  0.00     0.012 C
BRANCH   2   3
HETATM    3  C8  UNL     1      12.576 -21.469  37.451  1.00  0.00    -0.011 C
HETATM    4  C7  UNL     1      12.254 -22.283  36.231  1.00  0.00     0.024 C
HETATM    5  C6  UNL     1      10.802 -22.606  36.075  1.00  0.00     0.117 C
HETATM    6  N1  UNL     1       9.976 -21.452  36.179  1.00  0.00    -0.408 N
HETATM    7  C22 UNL     1      10.186 -20.672  37.356  1.00  0.00     0.117 C
HETATM    8  C21 UNL     1      11.657 -20.288  37.517  1.00  0.00     0.024 C
BRANCH   6   9
HETATM    9  C5  UNL     1       8.625 -21.599  35.753  1.00  0.00     0.155 C
BRANCH   9  10
HETATM   10  C4  UNL     1       8.547 -22.322  34.470  1.00  0.00    -0.035 A
HETATM   11  C3  UNL     1       9.380 -21.928  33.421  1.00  0.00     0.048 A
HETATM   12  C2  UNL     1       9.299 -22.614  32.228  1.00  0.00     0.104 A
HETATM   13  C26 UNL     1       8.422 -23.658  32.076  1.00  0.00     0.135 A
HETATM   14  C24 UNL     1       7.589 -24.067  33.094  1.00  0.00     0.104 A
HETATM   15  C23 UNL     1       7.675 -23.374  34.286  1.00  0.00     0.048 A
BRANCH  12  16
HETATM   16  O1  UNL     1      10.138 -22.217  31.175  1.00  0.00    -0.353 OA
HETATM   17  C1  UNL     1       9.849 -21.099  30.390  1.00  0.00     0.210 C
ENDBRANCH  12  16
BRANCH  13  18
HETATM   18  O4  UNL     1       8.377 -24.327  30.840  1.00  0.00    -0.351 OA
HETATM   19  C27 UNL     1       7.451 -23.849  29.887  1.00  0.00     0.210 C
ENDBRANCH  13  18
BRANCH  14  20
HETATM   20  O3  UNL     1       6.736 -25.121  32.868  1.00  0.00    -0.353 OA
HETATM   21  C25 UNL     1       6.897 -26.415  33.371  1.00  0.00     0.210 C
ENDBRANCH  14  20
ENDBRANCH   9  10
ENDBRANCH   6   9
ENDBRANCH   2   3
ENDBRANCH   1   2
BRANCH   1  22
HETATM   22  C11 UNL     1      15.259 -19.124  38.479  1.00  0.00     0.103 C
HETATM   23  N5  UNL     1      15.994 -18.250  37.922  1.00  0.00    -0.254 N
ATOM     24  H5  UNL     1      15.625 -17.896  37.040  1.00  0.00     0.195 HD
BRANCH  22  25
HETATM   25  N2  UNL     1      15.572 -19.745  39.695  1.00  0.00    -0.321 N
HETATM   26  C12 UNL     1      15.499 -19.268  40.873  1.00  0.00     0.202 C
HETATM   27  N3  UNL     1      15.058 -17.947  41.099  1.00  0.00    -0.066 NA
HETATM   28  N4  UNL     1      15.863 -20.060  41.978  1.00  0.00    -0.066 NA
ATOM     29  H2  UNL     1      15.903 -20.708  39.629  1.00  0.00     0.169 HD
ENDBRANCH  22  25
BRANCH  23  30
HETATM   30  O2  UNL     1      17.166 -17.707  38.282  1.00  0.00    -0.267 OA
BRANCH  30  31
HETATM   31  C13 UNL     1      17.908 -16.890  37.425  1.00  0.00     0.294 C
BRANCH  31  32
HETATM   32  C14 UNL     1      17.397 -17.185  36.053  1.00  0.00    -0.078 C
HETATM   33  C15 UNL     1      16.972 -17.438  34.955  1.00  0.00    -0.101 C
BRANCH  33  34
HETATM   34  C16 UNL     1      16.431 -17.736  33.627  1.00  0.00     0.121 C
BRANCH  34  35
HETATM   35  C17 UNL     1      14.965 -17.973  33.774  1.00  0.00    -0.011 C
HETATM   36  C18 UNL     1      14.490 -19.197  33.947  1.00  0.00    -0.062 C
HETATM   37  C19 UNL     1      15.439 -20.346  33.996  1.00  0.00     0.045 C
BRANCH  36  38
HETATM   38  C20 UNL     1      13.028 -19.413  34.090  1.00  0.00     0.263 C
BRANCH  38  39
HETATM   39  N6  UNL     1      12.595 -20.472  33.201  1.00  0.00    -0.076 N
ATOM     40  H63 UNL     1      13.376 -20.890  32.696  1.00  0.00     0.274 HD
ATOM     41  H62 UNL     1      12.289 -21.300  33.712  1.00  0.00     0.274 HD
ATOM     42  H61 UNL     1      11.874 -20.123  32.571  1.00  0.00     0.274 HD
ENDBRANCH  38  39
ENDBRANCH  36  38
ENDBRANCH  34  35
ENDBRANCH  33  34
ENDBRANCH  31  32
ENDBRANCH  30  31
ENDBRANCH  23  30
ENDBRANCH   1  22
TORSDOF 16
ENDMDL