MODEL 4
REMARK VINA RESULT: -8.399873829      2.665      9.106
REMARK  12 active torsions:
REMARK  status: ('A' for Active; 'I' for Inactive)
REMARK    1  A    between atoms: C1_2  and  C2_4
REMARK    2  A    between atoms: C4_8  and  N3_9
REMARK    3  A    between atoms: N3_9  and  C5_11
REMARK    4  A    between atoms: C5_11  and  C6_12
REMARK    5  A    between atoms: C6_12  and  C7_13
REMARK    6  A    between atoms: C7_13  and  C8_14
REMARK    7  A    between atoms: C15_23  and  N5_24
REMARK    8  A    between atoms: C18_27  and  C19_28
REMARK    9  A    between atoms: C19_28  and  N6_29
REMARK   10  A    between atoms: N6_29  and  C20_32
REMARK   11  A    between atoms: C20_32  and  C21_33
REMARK   12  A    between atoms: C21_33  and  N7_34
ROOT
HETATM    1  C2  UNL     1      18.580 -17.151  37.043  1.00  0.00     0.142 A
HETATM    2  N2  UNL     1      19.124 -16.741  38.230  1.00  0.00    -0.355 N
ATOM      3  H2  UNL     1      20.083 -16.391  38.231  1.00  0.00     0.165 HD
HETATM    4  C3  UNL     1      18.459 -16.778  39.392  1.00  0.00     0.137 A
HETATM    5  C4  UNL     1      17.174 -17.245  39.407  1.00  0.00     0.118 A
HETATM    6  N4  UNL     1      16.636 -17.647  38.244  1.00  0.00    -0.326 N
ATOM      7  H4  UNL     1      15.678 -17.995  38.253  1.00  0.00     0.169 HD
HETATM    8  C15 UNL     1      17.297 -17.617  37.052  1.00  0.00     0.137 A
ENDROOT
BRANCH   8   9
HETATM    9  N5  UNL     1      16.614 -18.067  35.869  1.00  0.00    -0.365 N
HETATM   10  C16 UNL     1      16.610 -19.457  35.479  1.00  0.00     0.125 C
HETATM   11  C17 UNL     1      16.221 -19.664  34.045  1.00  0.00     0.026 C
HETATM   12  C18 UNL     1      14.912 -19.019  33.706  1.00  0.00     0.014 C
HETATM   13  C26 UNL     1      14.565 -17.914  34.678  1.00  0.00     0.026 C
HETATM   14  C27 UNL     1      15.862 -17.148  35.031  1.00  0.00     0.125 C
BRANCH  12  15
HETATM   15  C19 UNL     1      13.805 -20.053  33.629  1.00  0.00     0.237 C
BRANCH  15  16
HETATM   16  N6  UNL     1      12.715 -19.749  34.508  1.00  0.00    -0.073 N
ATOM     17  H62 UNL     1      12.754 -20.342  35.337  1.00  0.00     0.277 HD
ATOM     18  H61 UNL     1      12.852 -18.834  34.938  1.00  0.00     0.277 HD
BRANCH  16  19
HETATM   19  C20 UNL     1      11.424 -19.824  33.906  1.00  0.00     0.262 C
BRANCH  19  20
HETATM   20  C21 UNL     1      10.458 -20.761  34.564  1.00  0.00     0.300 C
BRANCH  20  21
HETATM   21  N7  UNL     1      10.560 -22.128  34.143  1.00  0.00     0.094 N
HETATM   22  C22 UNL     1      10.841 -23.044  35.233  1.00  0.00     0.298 C
HETATM   23  C23 UNL     1       9.677 -23.128  36.182  1.00  0.00     0.198 C
HETATM   24  O2  UNL     1       8.569 -23.576  35.495  1.00  0.00    -0.388 OA
HETATM   25  C24 UNL     1       8.188 -22.644  34.554  1.00  0.00     0.198 C
HETATM   26  C25 UNL     1       9.278 -22.484  33.520  1.00  0.00     0.298 C
ENDBRANCH  20  21
ENDBRANCH  19  20
ENDBRANCH  16  19
ENDBRANCH  15  16
ENDBRANCH  12  15
ENDBRANCH   8   9
BRANCH   1  27
HETATM   27  C1  UNL     1      19.390 -17.079  35.832  1.00  0.00     0.285 C
HETATM   28  N1  UNL     1      19.454 -15.854  35.081  1.00  0.00    -0.056 NA
HETATM   29  O1  UNL     1      20.037 -18.043  35.416  1.00  0.00    -0.269 OA
ENDBRANCH   1  27
BRANCH   5  30
HETATM   30  N3  UNL     1      16.518 -17.304  40.516  1.00  0.00    -0.375 N
ATOM     31  H3  UNL     1      16.029 -16.457  40.808  1.00  0.00     0.161 HD
BRANCH  30  32
HETATM   32  C5  UNL     1      16.409 -18.444  41.379  1.00  0.00     0.121 C
BRANCH  32  33
HETATM   33  C6  UNL     1      14.992 -18.738  41.828  1.00  0.00     0.020 C
BRANCH  33  34
HETATM   34  C7  UNL     1      14.438 -20.021  41.311  1.00  0.00     0.006 C
BRANCH  34  35
HETATM   35  C8  UNL     1      13.097 -19.895  40.662  1.00  0.00    -0.014 C
HETATM   36  C9  UNL     1      13.131 -18.844  39.605  1.00  0.00     0.004 C
HETATM   37  C10 UNL     1      13.854 -19.185  38.362  1.00  0.00     0.000 C
HETATM   38  C11 UNL     1      13.909 -20.619  37.972  1.00  0.00     0.000 C
HETATM   39  C12 UNL     1      12.567 -21.275  37.772  1.00  0.00     0.000 C
HETATM   40  C13 UNL     1      11.663 -21.112  38.975  1.00  0.00     0.000 C
HETATM   41  C14 UNL     1      12.513 -21.193  40.212  1.00  0.00     0.004 C
ENDBRANCH  34  35
ENDBRANCH  33  34
ENDBRANCH  32  33
ENDBRANCH  30  32
ENDBRANCH   5  30
TORSDOF 12
ENDMDL