MODEL 3
REMARK VINA RESULT: -8.405935601      2.395      7.879
REMARK  12 active torsions:
REMARK  status: ('A' for Active; 'I' for Inactive)
REMARK    1  A    between atoms: C2_2  and  C3_3
REMARK       I    between atoms: C3_3  and  N1_5
REMARK    2  A    between atoms: N1_5  and  C5_7
REMARK    3  A    between atoms: C5_7  and  C6_8
REMARK    4  A    between atoms: C10_12  and  C11_13
REMARK    5  A    between atoms: C15_19  and  C16_20
REMARK    6  A    between atoms: C16_20  and  C17_21
REMARK    7  A    between atoms: C17_21  and  N3_22
REMARK       I    between atoms: N3_22  and  C18_24
REMARK    8  A    between atoms: N4_27  and  C20_28
REMARK    9  A    between atoms: C20_28  and  C21_29
REMARK   10  A    between atoms: C21_29  and  C22_30
REMARK   11  A    between atoms: C24_34  and  N6_35
REMARK   12  A    between atoms: C25_40  and  N8_41
ROOT
HETATM    1  C6  UNL     1       9.227 -22.514  34.981  1.00  0.00     0.036 A
HETATM    2  C7  UNL     1       8.783 -21.889  36.108  1.00  0.00    -0.035 A
HETATM    3  C8  UNL     1       9.547 -21.053  37.068  1.00  0.00     0.050 C
HETATM    4  C9  UNL     1       7.413 -22.151  36.246  1.00  0.00     0.039 A
HETATM    5  C10 UNL     1       7.031 -22.948  35.179  1.00  0.00     0.047 A
HETATM    6  N4  UNL     1       8.114 -23.165  34.432  1.00  0.00    -0.347 N
ENDROOT
BRANCH   6   7
HETATM    7  C20 UNL     1       8.266 -23.905  33.209  1.00  0.00     0.134 C
BRANCH   7   8
HETATM    8  C21 UNL     1       8.450 -23.075  31.984  1.00  0.00     0.064 C
BRANCH   8   9
HETATM    9  C22 UNL     1       7.399 -23.319  30.942  1.00  0.00     0.004 A
HETATM   10  C23 UNL     1       6.222 -23.960  31.201  1.00  0.00     0.117 A
HETATM   11  N5  UNL     1       5.307 -24.149  30.208  1.00  0.00    -0.202 N
HETATM   12  C24 UNL     1       5.532 -23.717  28.959  1.00  0.00     0.677 A
ATOM     13  H5  UNL     1       4.432 -24.630  30.420  1.00  0.00     0.183 HD
HETATM   14  N7  UNL     1       6.700 -23.081  28.706  1.00  0.00    -0.176 N
HETATM   15  C25 UNL     1       7.644 -22.867  29.660  1.00  0.00     0.126 A
ATOM     16  H7  UNL     1       6.878 -22.748  27.759  1.00  0.00     0.186 HD
BRANCH  12  17
HETATM   17  N6  UNL     1       4.659 -23.903  28.006  1.00  0.00    -0.234 N
ATOM     18  H62 UNL     1       3.920 -23.219  27.840  1.00  0.00     0.174 HD
ATOM     19  H61 UNL     1       4.692 -24.726  27.405  1.00  0.00     0.174 HD
ENDBRANCH  12  17
BRANCH  15  20
HETATM   20  N8  UNL     1       8.834 -22.187  29.315  1.00  0.00    -0.375 N
HETATM   21  C26 UNL     1       9.164 -20.938  29.944  1.00  0.00     0.150 C
HETATM   22  C27 UNL     1       9.720 -22.746  28.331  1.00  0.00     0.150 C
ENDBRANCH  15  20
ENDBRANCH   8   9
ENDBRANCH   7   8
ENDBRANCH   6   7
BRANCH   1  23
HETATM   23  C5  UNL     1      10.561 -22.592  34.352  1.00  0.00     0.183 C
BRANCH  23  24
HETATM   24  N1  UNL     1      11.209 -21.370  34.069  1.00  0.00    -0.351 N
HETATM   25  C3  UNL     1      12.440 -20.992  34.632  1.00  0.00     0.219 C
HETATM   26  O1  UNL     1      13.202 -21.787  35.276  1.00  0.00    -0.273 OA
HETATM   27  C4  UNL     1      10.500 -20.404  33.229  1.00  0.00     0.153 C
BRANCH  25  28
HETATM   28  C2  UNL     1      12.999 -19.596  34.530  1.00  0.00     0.098 C
HETATM   29  C1  UNL     1      14.201 -19.615  33.579  1.00  0.00     0.014 C
ENDBRANCH  25  28
ENDBRANCH  23  24
ENDBRANCH   1  23
BRANCH   5  30
HETATM   30  C11 UNL     1       5.638 -23.317  34.830  1.00  0.00     0.013 A
HETATM   31  C12 UNL     1       4.714 -22.356  34.405  1.00  0.00     0.017 A
HETATM   32  C13 UNL     1       3.412 -22.695  34.190  1.00  0.00     0.018 A
HETATM   33  C14 UNL     1       3.004 -23.996  34.389  1.00  0.00     0.088 A
HETATM   34  N2  UNL     1       3.898 -24.877  34.789  1.00  0.00    -0.368 N
HETATM   35  C15 UNL     1       5.236 -24.613  35.032  1.00  0.00     0.023 A
ATOM     36  H2  UNL     1       3.579 -25.836  34.933  1.00  0.00     0.165 HD
BRANCH  35  37
HETATM   37  C16 UNL     1       6.050 -25.701  35.553  1.00  0.00     0.077 C
BRANCH  37  38
HETATM   38  C17 UNL     1       5.834 -27.017  34.841  1.00  0.00     0.128 C
BRANCH  38  39
HETATM   39  N3  UNL     1       5.325 -27.993  35.770  1.00  0.00    -0.361 N
HETATM   40  C18 UNL     1       3.974 -28.352  35.930  1.00  0.00     0.213 C
HETATM   41  C19 UNL     1       3.528 -29.391  36.914  1.00  0.00     0.117 C
HETATM   42  O2  UNL     1       3.089 -27.808  35.245  1.00  0.00    -0.274 OA
ATOM     43  H3  UNL     1       6.005 -28.466  36.366  1.00  0.00     0.162 HD
ENDBRANCH  38  39
ENDBRANCH  37  38
ENDBRANCH  35  37
ENDBRANCH   5  30
TORSDOF 12
ENDMDL