MODEL 5
REMARK VINA RESULT: -8.150197813      1.430      2.182
REMARK  14 active torsions:
REMARK  status: ('A' for Active; 'I' for Inactive)
REMARK    1  A    between atoms: C2_2  and  C3_3
REMARK    2  A    between atoms: C3_3  and  C4_4
REMARK    3  A    between atoms: C5_5  and  C6_6
REMARK    4  A    between atoms: C6_6  and  C7_7
REMARK    5  A    between atoms: C8_9  and  N1_10
REMARK    6  A    between atoms: N3_13  and  C9_14
REMARK    7  A    between atoms: C9_14  and  C10_15
REMARK    8  A    between atoms: C13_18  and  C14_19
REMARK    9  A    between atoms: N4_24  and  C19_25
REMARK   10  A    between atoms: C19_25  and  C20_26
REMARK   11  A    between atoms: C20_26  and  C21_27
REMARK   12  A    between atoms: C26_32  and  O2_33
REMARK   13  A    between atoms: C27_35  and  O3_36
REMARK   14  A    between atoms: C28_38  and  O4_39
ROOT
HETATM    1  N1  UNL     1       8.688 -22.930  35.126  1.00  0.00    -0.249 N
HETATM    2  N2  UNL     1       9.865 -23.296  34.658  1.00  0.00    -0.236 N
ATOM      3  H2  UNL     1      10.003 -23.948  33.887  1.00  0.00     0.209 HD
HETATM    4  N3  UNL     1      10.861 -22.691  35.338  1.00  0.00    -0.281 N
HETATM    5  C23 UNL     1      10.230 -21.936  36.249  1.00  0.00     0.138 A
HETATM    6  C24 UNL     1       8.858 -22.064  36.141  1.00  0.00     0.046 A
HETATM    7  C25 UNL     1       7.780 -21.421  36.932  1.00  0.00     0.071 C
ENDROOT
BRANCH   1   8
HETATM    8  C8  UNL     1       7.432 -23.420  34.576  1.00  0.00     0.277 C
HETATM    9  O1  UNL     1       7.512 -23.421  33.206  1.00  0.00    -0.354 OA
HETATM   10  C7  UNL     1       6.398 -23.842  32.538  1.00  0.00     0.159 C
HETATM   11  C28 UNL     1       5.771 -25.107  33.030  1.00  0.00     0.178 C
HETATM   12  C27 UNL     1       5.860 -25.272  34.529  1.00  0.00     0.182 C
HETATM   13  C26 UNL     1       7.223 -24.880  35.001  1.00  0.00     0.200 C
BRANCH  10  14
HETATM   14  C6  UNL     1       6.828 -24.039  31.086  1.00  0.00     0.061 C
BRANCH  14  15
HETATM   15  C5  UNL     1       6.045 -23.256  30.126  1.00  0.00    -0.028 C
HETATM   16  C4  UNL     1       5.898 -23.614  28.851  1.00  0.00    -0.031 C
BRANCH  16  17
HETATM   17  C3  UNL     1       5.101 -22.810  27.886  1.00  0.00     0.026 C
BRANCH  17  18
HETATM   18  C2  UNL     1       3.803 -22.337  28.480  1.00  0.00    -0.001 C
HETATM   19  C1  UNL     1       2.603 -22.822  27.734  1.00  0.00     0.005 C
ENDBRANCH  17  18
ENDBRANCH  16  17
ENDBRANCH  14  15
ENDBRANCH  10  14
BRANCH  11  20
HETATM   20  O4  UNL     1       6.347 -26.238  32.449  1.00  0.00    -0.390 OA
ATOM     21  H4  UNL     1       6.292 -26.221  31.502  1.00  0.00     0.210 HD
ENDBRANCH  11  20
BRANCH  12  22
HETATM   22  O3  UNL     1       4.829 -24.636  35.179  1.00  0.00    -0.390 OA
ATOM     23  H3  UNL     1       5.098 -24.115  35.927  1.00  0.00     0.210 HD
ENDBRANCH  12  22
BRANCH  13  24
HETATM   24  O2  UNL     1       7.398 -25.040  36.355  1.00  0.00    -0.388 OA
ATOM     25  H2  UNL     1       7.613 -25.939  36.575  1.00  0.00     0.210 HD
ENDBRANCH  13  24
ENDBRANCH   1   8
BRANCH   4  26
HETATM   26  C9  UNL     1      12.280 -22.852  35.078  1.00  0.00     0.206 C
BRANCH  26  27
HETATM   27  C10 UNL     1      13.025 -21.584  34.957  1.00  0.00     0.023 C
HETATM   28  C11 UNL     1      12.869 -20.812  33.868  1.00  0.00     0.000 C
HETATM   29  C12 UNL     1      13.578 -19.553  33.696  1.00  0.00     0.036 C
HETATM   30  C13 UNL     1      14.518 -19.152  34.773  1.00  0.00     0.014 C
HETATM   31  C18 UNL     1      15.077 -20.373  35.501  1.00  0.00     0.128 C
HETATM   32  N4  UNL     1      13.907 -21.096  35.955  1.00  0.00    -0.383 N
BRANCH  30  33
HETATM   33  C14 UNL     1      15.617 -18.241  34.300  1.00  0.00    -0.046 C
HETATM   34  C15 UNL     1      16.953 -18.965  34.423  1.00  0.00     0.015 C
HETATM   35  C16 UNL     1      15.737 -17.020  35.218  1.00  0.00     0.015 C
HETATM   36  C17 UNL     1      15.464 -17.803  32.875  1.00  0.00     0.015 C
ENDBRANCH  30  33
BRANCH  32  37
HETATM   37  C19 UNL     1      13.605 -21.318  37.347  1.00  0.00     0.122 C
BRANCH  37  38
HETATM   38  C20 UNL     1      14.008 -20.134  38.208  1.00  0.00     0.019 C
BRANCH  38  39
HETATM   39  C21 UNL     1      12.790 -19.266  38.439  1.00  0.00    -0.003 C
HETATM   40  C22 UNL     1      12.885 -18.702  39.859  1.00  0.00     0.005 C
ENDBRANCH  38  39
ENDBRANCH  37  38
ENDBRANCH  32  37
ENDBRANCH  26  27
ENDBRANCH   4  26
TORSDOF 14
ENDMDL