MODEL 4
REMARK VINA RESULT: -7.055120332      1.458      2.047
REMARK  3 active torsions:
REMARK  status: ('A' for Active; 'I' for Inactive)
REMARK    1  A    between atoms: C3_3  and  C4_4
REMARK    2  A    between atoms: C4_4  and  N1_5
REMARK    3  A    between atoms: C6_12  and  C7_13
ROOT
HETATM    1  N1  UNL     1      12.577  -2.814  54.496  1.00  0.00    -0.343 N
ATOM      2  H1  UNL     1      12.687  -3.814  54.331  1.00  0.00     0.167 HD
HETATM    3  C5  UNL     1      12.774  -2.042  53.489  1.00  0.00     0.165 A
HETATM    4  N2  UNL     1      12.728  -0.738  53.289  1.00  0.00    -0.279 N
ATOM      5  H2  UNL     1      12.397  -0.117  54.028  1.00  0.00     0.189 HD
HETATM    6  N3  UNL     1      13.097  -0.258  52.169  1.00  0.00    -0.295 N
ATOM      7  H3  UNL     1      13.059   0.752  52.026  1.00  0.00     0.187 HD
HETATM    8  C6  UNL     1      13.520  -1.015  51.202  1.00  0.00     0.077 A
HETATM    9  S1  UNL     1      13.394  -2.567  51.928  1.00  0.00    -0.037 SA
ENDROOT
BRANCH   1  10
HETATM   10  C4  UNL     1      12.227  -2.429  55.799  1.00  0.00     0.120 C
BRANCH  10  11
HETATM   11  C3  UNL     1      10.787  -2.762  56.089  1.00  0.00     0.054 A
HETATM   12  C2  UNL     1       9.701  -1.940  55.848  1.00  0.00    -0.026 A
HETATM   13  C1  UNL     1       9.861  -0.544  55.341  1.00  0.00     0.051 C
HETATM   14  C12 UNL     1       8.570  -2.635  56.180  1.00  0.00    -0.027 A
HETATM   15  C11 UNL     1       8.974  -3.873  56.618  1.00  0.00     0.016 A
HETATM   16  C13 UNL     1       7.081  -2.492  56.274  1.00  0.00     0.041 C
HETATM   17  N4  UNL     1      10.326  -3.916  56.551  1.00  0.00    -0.358 N
HETATM   18  C15 UNL     1       7.764  -4.678  56.970  1.00  0.00     0.058 C
ATOM     19  H4  UNL     1      10.901  -4.715  56.816  1.00  0.00     0.166 HD
HETATM   20  C14 UNL     1       6.753  -3.577  57.297  1.00  0.00     0.011 C
ENDBRANCH  10  11
ENDBRANCH   1  10
BRANCH   8  21
HETATM   21  C7  UNL     1      14.042  -0.660  49.846  1.00  0.00    -0.001 C
HETATM   22  C8  UNL     1      14.380   0.812  49.780  1.00  0.00     0.021 C
HETATM   23  C9  UNL     1      15.183  -1.576  49.529  1.00  0.00     0.021 C
HETATM   24  C10 UNL     1      12.880  -0.898  48.887  1.00  0.00     0.021 C
ENDBRANCH   8  21
TORSDOF 3
ENDMDL