MODEL 1
REMARK VINA RESULT: -7.032183600      0.000      0.000
REMARK  3 active torsions:
REMARK  status: ('A' for Active; 'I' for Inactive)
REMARK    1  A    between atoms: C12_12  and  O1_13
REMARK    2  A    between atoms: C14_16  and  C16_18
REMARK    3  A    between atoms: C17_19  and  C18_20
ROOT
HETATM    1  C1  UNL     1      13.789  -2.715  51.755  1.00  0.00     0.011 C
HETATM    2  C2  UNL     1      14.945  -1.948  52.228  1.00  0.00    -0.001 C
HETATM    3  C3  UNL     1      16.313  -2.398  51.829  1.00  0.00     0.009 C
HETATM    4  C4  UNL     1      16.709  -2.064  50.443  1.00  0.00    -0.043 C
HETATM    5  C5  UNL     1      15.621  -2.162  49.403  1.00  0.00     0.015 C
HETATM    6  C6  UNL     1      17.178  -0.598  50.386  1.00  0.00     0.015 C
HETATM    7  C7  UNL     1      17.866  -2.878  49.931  1.00  0.00     0.009 C
HETATM    8  C8  UNL     1      17.697  -4.348  50.060  1.00  0.00     0.002 C
HETATM    9  C9  UNL     1      16.723  -4.778  51.117  1.00  0.00     0.012 C
HETATM   10  C10 UNL     1      16.632  -3.802  52.270  1.00  0.00    -0.013 C
HETATM   11  C11 UNL     1      18.006  -3.891  52.957  1.00  0.00     0.018 C
HETATM   12  C12 UNL     1      15.639  -4.367  53.252  1.00  0.00     0.127 C
HETATM   13  C13 UNL     1      15.106  -3.389  54.235  1.00  0.00     0.046 C
HETATM   14  C14 UNL     1      14.931  -2.000  53.765  1.00  0.00    -0.020 C
HETATM   15  C15 UNL     1      15.915  -1.020  54.335  1.00  0.00     0.020 C
ENDROOT
BRANCH  14  16
HETATM   16  C16 UNL     1      13.569  -1.511  54.173  1.00  0.00    -0.010 C
HETATM   17  C17 UNL     1      13.453  -0.556  55.075  1.00  0.00     0.081 C
BRANCH  17  18
HETATM   18  C18 UNL     1      12.152  -0.061  55.488  1.00  0.00     0.198 C
HETATM   19  O2  UNL     1      11.117  -0.776  55.489  1.00  0.00    -0.645 OA
HETATM   20  O3  UNL     1      12.015   1.254  55.906  1.00  0.00    -0.645 OA
ENDBRANCH  17  18
ENDBRANCH  14  16
BRANCH  12  21
HETATM   21  O1  UNL     1      16.310  -5.355  54.023  1.00  0.00    -0.395 OA
ATOM     22  H1  UNL     1      16.201  -6.188  53.581  1.00  0.00     0.210 HD
ENDBRANCH  12  21
TORSDOF 3
ENDMDL