MODEL 5
REMARK VINA RESULT: -6.499354549      1.944      3.395
REMARK  2 active torsions:
REMARK  status: ('A' for Active; 'I' for Inactive)
REMARK    1  A    between atoms: N1_2  and  C1_4
REMARK    2  A    between atoms: C17_20  and  O3_21
ROOT
HETATM    1  C1  UNL     1      15.573  -3.115  54.240  1.00  0.00     0.130 C
HETATM    2  C2  UNL     1      16.187  -2.090  55.239  1.00  0.00     0.044 C
HETATM    3  C3  UNL     1      17.189  -1.325  54.440  1.00  0.00     0.013 C
HETATM    4  C4  UNL     1      17.312  -2.105  53.107  1.00  0.00     0.024 C
HETATM    5  C5  UNL     1      16.421  -1.356  52.181  1.00  0.00    -0.001 C
HETATM    6  C6  UNL     1      16.795  -1.650  50.743  1.00  0.00     0.005 C
HETATM    7  C7  UNL     1      15.500  -1.726  49.979  1.00  0.00     0.001 C
HETATM    8  C8  UNL     1      14.422  -2.010  51.000  1.00  0.00     0.006 C
HETATM    9  C9  UNL     1      14.970  -1.544  52.353  1.00  0.00     0.002 C
HETATM   10  C10 UNL     1      14.509  -2.406  53.505  1.00  0.00    -0.001 C
HETATM   11  C11 UNL     1      13.847  -1.388  54.477  1.00  0.00     0.013 C
HETATM   12  C12 UNL     1      12.529  -0.883  53.879  1.00  0.00     0.001 C
HETATM   13  C13 UNL     1      11.481  -1.930  54.222  1.00  0.00     0.000 C
HETATM   14  C14 UNL     1      12.208  -3.260  54.171  1.00  0.00     0.001 C
HETATM   15  C15 UNL     1      13.305  -3.230  53.101  1.00  0.00     0.013 C
HETATM   16  C16 UNL     1      16.854  -3.439  53.566  1.00  0.00    -0.019 C
HETATM   17  C17 UNL     1      17.075  -4.628  52.795  1.00  0.00     0.137 C
ENDROOT
BRANCH   1  18
HETATM   18  N1  UNL     1      15.135  -4.200  55.080  1.00  0.00    -0.140 N
HETATM   19  O1  UNL     1      14.902  -4.088  56.318  1.00  0.00    -0.536 OA
HETATM   20  O2  UNL     1      14.926  -5.469  54.604  1.00  0.00    -0.536 OA
ENDBRANCH   1  18
BRANCH  17  21
HETATM   21  O3  UNL     1      16.387  -4.992  51.701  1.00  0.00    -0.372 OA
ATOM     22  H3  UNL     1      15.442  -5.054  51.635  1.00  0.00     0.216 HD
ENDBRANCH  17  21
TORSDOF 2
ENDMDL