MODEL 3
REMARK VINA RESULT: -6.080248088      3.026      3.834
REMARK  5 active torsions:
REMARK  status: ('A' for Active; 'I' for Inactive)
REMARK    1  A    between atoms: N1_2  and  C2_4
REMARK    2  A    between atoms: C2_4  and  N2_6
REMARK    3  A    between atoms: N2_6  and  C3_8
REMARK    4  A    between atoms: C4_11  and  C5_12
REMARK    5  A    between atoms: C8_16  and  C9_17
ROOT
HETATM    1  C3  UNL     1      12.739  -1.492  54.053  1.00  0.00     0.151 A
HETATM    2  N3  UNL     1      13.658  -1.002  53.241  1.00  0.00    -0.335 N
ATOM      3  H3  UNL     1      13.973  -0.037  53.339  1.00  0.00     0.168 HD
HETATM    4  C4  UNL     1      14.166  -1.776  52.300  1.00  0.00     0.058 A
HETATM    5  C12 UNL     1      13.694  -3.051  52.232  1.00  0.00     0.084 A
HETATM    6  S3  UNL     1      12.540  -3.088  53.526  1.00  0.00    -0.063 SA
ENDROOT
BRANCH   4   7
HETATM    7  C5  UNL     1      15.169  -1.225  51.328  1.00  0.00     0.038 A
HETATM    8  S2  UNL     1      16.843  -1.694  51.308  1.00  0.00    -0.099 SA
HETATM    9  C6  UNL     1      17.405  -0.659  50.093  1.00  0.00     0.051 A
HETATM   10  C7  UNL     1      16.278   0.022  49.734  1.00  0.00     0.016 A
HETATM   11  C8  UNL     1      15.120  -0.280  50.381  1.00  0.00    -0.035 A
BRANCH  11  12
HETATM   12  C9  UNL     1      13.831   0.409  49.963  1.00  0.00     0.012 C
HETATM   13  C10 UNL     1      14.101   1.875  49.591  1.00  0.00     0.015 C
HETATM   14  C11 UNL     1      13.287  -0.314  48.739  1.00  0.00     0.015 C
ENDBRANCH  11  12
ENDBRANCH   4   7
BRANCH   1  15
HETATM   15  N2  UNL     1      12.129  -0.863  55.045  1.00  0.00    -0.314 N
ATOM     16  H2  UNL     1      11.122  -0.701  55.057  1.00  0.00     0.170 HD
BRANCH  15  17
HETATM   17  C2  UNL     1      12.986  -0.430  56.091  1.00  0.00     0.173 C
HETATM   18  S1  UNL     1      13.942  -1.557  56.787  1.00  0.00    -0.041 SA
BRANCH  17  19
HETATM   19  N1  UNL     1      13.024   0.917  56.528  1.00  0.00    -0.371 N
HETATM   20  C1  UNL     1      13.832   1.265  57.672  1.00  0.00     0.148 C
ATOM     21  H1  UNL     1      12.486   1.633  56.040  1.00  0.00     0.161 HD
ENDBRANCH  17  19
ENDBRANCH  15  17
ENDBRANCH   1  15
TORSDOF 5
ENDMDL