MODEL 3
REMARK VINA RESULT: -7.390668607      3.024      5.446
REMARK  4 active torsions:
REMARK  status: ('A' for Active; 'I' for Inactive)
REMARK    1  A    between atoms: O1_2  and  C2_3
REMARK    2  A    between atoms: C2_3  and  C3_5
REMARK    3  A    between atoms: C3_5  and  C4_6
REMARK    4  A    between atoms: C14_16  and  O3_17
ROOT
HETATM    1  C4  UNL     1      13.357  -1.601  54.110  1.00  0.00    -0.031 C
HETATM    2  C5  UNL     1      12.473  -2.761  54.464  1.00  0.00     0.016 C
HETATM    3  C6  UNL     1      12.788  -0.798  52.964  1.00  0.00     0.010 C
HETATM    4  C7  UNL     1      13.614  -1.257  51.756  1.00  0.00     0.006 C
HETATM    5  C8  UNL     1      15.001  -1.323  52.363  1.00  0.00    -0.001 C
HETATM    6  C9  UNL     1      14.728  -2.010  53.649  1.00  0.00    -0.001 C
HETATM    7  C10 UNL     1      14.975  -3.465  53.544  1.00  0.00     0.006 C
HETATM    8  C11 UNL     1      16.454  -3.635  53.287  1.00  0.00     0.006 C
HETATM    9  C12 UNL     1      16.923  -2.944  52.023  1.00  0.00    -0.004 C
HETATM   10  C13 UNL     1      17.385  -4.016  51.085  1.00  0.00     0.037 C
HETATM   11  C14 UNL     1      17.270  -3.770  49.643  1.00  0.00     0.118 C
HETATM   12  C15 UNL     1      16.333  -2.713  49.194  1.00  0.00     0.032 C
HETATM   13  C16 UNL     1      15.267  -2.529  50.242  1.00  0.00     0.012 C
HETATM   14  C17 UNL     1      15.997  -1.950  51.463  1.00  0.00    -0.036 C
HETATM   15  C18 UNL     1      16.822  -0.783  50.882  1.00  0.00     0.016 C
ENDROOT
BRANCH   1  16
HETATM   16  C3  UNL     1      13.481  -0.691  55.309  1.00  0.00     0.120 C
BRANCH  16  17
HETATM   17  C2  UNL     1      12.221   0.028  55.537  1.00  0.00     0.259 C
HETATM   18  O2  UNL     1      12.176   1.281  55.479  1.00  0.00    -0.265 OA
BRANCH  17  19
HETATM   19  O1  UNL     1      11.026  -0.631  55.824  1.00  0.00    -0.326 OA
HETATM   20  C1  UNL     1       9.849  -0.223  55.176  1.00  0.00     0.213 C
ENDBRANCH  17  19
ENDBRANCH  16  17
ENDBRANCH   1  16
BRANCH  11  21
HETATM   21  O3  UNL     1      18.537  -3.466  49.081  1.00  0.00    -0.396 OA
ATOM     22  H3  UNL     1      18.834  -4.170  48.517  1.00  0.00     0.210 HD
ENDBRANCH  11  21
TORSDOF 4
ENDMDL