MODEL 1
REMARK VINA RESULT: -7.143055499      0.000      0.000
REMARK  3 active torsions:
REMARK  status: ('A' for Active; 'I' for Inactive)
REMARK    1  A    between atoms: N1_2  and  C2_4
REMARK    2  A    between atoms: C4_6  and  C5_7
REMARK    3  A    between atoms: C5_7  and  O1_8
ROOT
HETATM    1  C2  UNL     1      13.157  -1.461  56.365  1.00  0.00     0.081 C
HETATM    2  C3  UNL     1      11.950  -2.290  56.134  1.00  0.00     0.031 C
HETATM    3  C4  UNL     1      11.174  -1.983  54.900  1.00  0.00     0.012 C
HETATM    4  C6  UNL     1      11.705  -0.793  54.158  1.00  0.00     0.013 C
HETATM    5  C7  UNL     1      13.195  -0.814  53.915  1.00  0.00     0.004 C
HETATM    6  C8  UNL     1      13.951  -1.053  55.160  1.00  0.00     0.013 C
HETATM    7  C9  UNL     1      15.181  -1.953  54.953  1.00  0.00     0.015 C
HETATM    8  C10 UNL     1      15.922  -1.354  53.765  1.00  0.00     0.012 C
HETATM    9  C11 UNL     1      17.260  -2.034  53.573  1.00  0.00     0.015 C
HETATM   10  C12 UNL     1      15.088  -1.363  52.536  1.00  0.00    -0.064 C
HETATM   11  C13 UNL     1      15.728  -1.225  51.392  1.00  0.00     0.054 C
HETATM   12  C14 UNL     1      14.976  -1.225  50.158  1.00  0.00     0.149 C
HETATM   13  O2  UNL     1      15.536  -1.298  49.031  1.00  0.00    -0.293 OA
HETATM   14  C15 UNL     1      13.518  -1.140  50.187  1.00  0.00     0.084 C
HETATM   15  C16 UNL     1      12.950  -0.768  51.516  1.00  0.00     0.022 C
HETATM   16  C17 UNL     1      13.627  -1.522  52.676  1.00  0.00    -0.016 C
HETATM   17  C18 UNL     1      13.269  -2.933  52.490  1.00  0.00     0.020 C
ENDROOT
BRANCH   1  18
HETATM   18  N1  UNL     1      13.949  -2.135  57.356  1.00  0.00    -0.421 N
HETATM   19  C1  UNL     1      14.124  -1.460  58.588  1.00  0.00     0.140 C
ATOM     20  H1  UNL     1      14.363  -3.051  57.182  1.00  0.00     0.153 HD
ENDBRANCH   1  18
BRANCH   3  21
HETATM   21  C5  UNL     1       9.699  -1.668  55.185  1.00  0.00     0.168 C
BRANCH  21  22
HETATM   22  O1  UNL     1       9.481  -1.695  56.556  1.00  0.00    -0.400 OA
ATOM     23  H1  UNL     1      10.146  -1.172  56.991  1.00  0.00     0.209 HD
ENDBRANCH  21  22
ENDBRANCH   3  21
TORSDOF 3
ENDMDL