MODEL 2
REMARK VINA RESULT: -6.441904761      2.067      4.514
REMARK  3 active torsions:
REMARK  status: ('A' for Active; 'I' for Inactive)
REMARK    1  A    between atoms: C9_9  and  C10_10
REMARK    2  A    between atoms: C10_10  and  O1_12
REMARK    3  A    between atoms: C12_14  and  O2_15
ROOT
HETATM    1  C1  UNL     1      15.224  -2.325  57.430  1.00  0.00     0.048 C
HETATM    2  C2  UNL     1      14.967  -1.328  56.318  1.00  0.00    -0.066 C
HETATM    3  C3  UNL     1      13.709  -1.087  56.097  1.00  0.00    -0.020 C
HETATM    4  C4  UNL     1      12.908  -0.241  55.179  1.00  0.00     0.031 C
HETATM    5  C5  UNL     1      12.531  -0.955  53.839  1.00  0.00    -0.015 C
HETATM    6  C6  UNL     1      11.667  -2.113  54.207  1.00  0.00     0.010 C
HETATM    7  C7  UNL     1      13.900  -1.276  53.372  1.00  0.00     0.005 C
HETATM    8  C8  UNL     1      14.375  -1.912  52.184  1.00  0.00     0.018 C
HETATM    9  C9  UNL     1      15.725  -2.638  52.426  1.00  0.00     0.048 C
HETATM   10  C12 UNL     1      15.309  -4.127  52.461  1.00  0.00     0.161 C
HETATM   11  C13 UNL     1      15.292  -4.449  53.911  1.00  0.00     0.148 C
HETATM   12  C14 UNL     1      15.782  -5.836  54.248  1.00  0.00     0.042 C
HETATM   13  O3  UNL     1      15.876  -3.442  54.612  1.00  0.00    -0.368 OA
HETATM   14  C15 UNL     1      16.404  -2.486  53.709  1.00  0.00     0.088 C
HETATM   15  C16 UNL     1      17.802  -3.143  53.535  1.00  0.00     0.051 C
HETATM   16  C17 UNL     1      16.663  -1.179  54.357  1.00  0.00     0.012 C
HETATM   17  C18 UNL     1      16.235  -0.862  55.717  1.00  0.00     0.005 C
ENDROOT
BRANCH   9  18
HETATM   18  C10 UNL     1      16.493  -2.339  51.175  1.00  0.00     0.128 C
HETATM   19  C11 UNL     1      16.623  -0.832  50.953  1.00  0.00     0.040 C
BRANCH  18  20
HETATM   20  O1  UNL     1      16.048  -2.816  49.989  1.00  0.00    -0.395 OA
ATOM     21  H1  UNL     1      15.670  -2.217  49.356  1.00  0.00     0.210 HD
ENDBRANCH  18  20
ENDBRANCH   9  18
BRANCH  10  22
HETATM   22  O2  UNL     1      16.064  -4.933  51.657  1.00  0.00    -0.392 OA
ATOM     23  H2  UNL     1      16.131  -5.830  51.963  1.00  0.00     0.210 HD
ENDBRANCH  10  22
TORSDOF 3
ENDMDL