MODEL 5
REMARK VINA RESULT: -7.469552552      2.822      4.348
REMARK  3 active torsions:
REMARK  status: ('A' for Active; 'I' for Inactive)
REMARK    1  A    between atoms: C5_5  and  N1_7
REMARK    2  A    between atoms: N1_7  and  C7_9
REMARK    3  A    between atoms: C10_18  and  C11_19
ROOT
HETATM    1  C7  UNL     1      13.737  -1.039  56.635  1.00  0.00     0.133 A
HETATM    2  N2  UNL     1      13.674  -0.172  57.721  1.00  0.00    -0.337 N
ATOM      3  H2  UNL     1      12.816  -0.137  58.272  1.00  0.00     0.168 HD
HETATM    4  C8  UNL     1      14.684   0.607  58.067  1.00  0.00     0.183 A
HETATM    5  N3  UNL     1      15.815   0.562  57.343  1.00  0.00    -0.337 N
ATOM      6  H3  UNL     1      16.596   1.162  57.607  1.00  0.00     0.168 HD
HETATM    7  C9  UNL     1      15.950  -0.253  56.279  1.00  0.00     0.138 A
HETATM    8  N4  UNL     1      16.942  -0.496  55.396  1.00  0.00    -0.330 N
ATOM      9  H4  UNL     1      17.856  -0.042  55.406  1.00  0.00     0.168 HD
HETATM   10  C10 UNL     1      16.553  -1.422  54.504  1.00  0.00     0.087 A
HETATM   11  N5  UNL     1      15.295  -1.786  54.809  1.00  0.00    -0.339 N
ATOM     12  H5  UNL     1      14.732  -2.474  54.308  1.00  0.00     0.167 HD
HETATM   13  C16 UNL     1      14.903  -1.078  55.900  1.00  0.00     0.122 A
ENDROOT
BRANCH   1  14
HETATM   14  N1  UNL     1      12.740  -1.735  56.378  1.00  0.00    -0.365 N
ATOM     15  H1  UNL     1      12.746  -2.545  56.997  1.00  0.00     0.162 HD
BRANCH  14  16
HETATM   16  C5  UNL     1      11.630  -1.816  55.567  1.00  0.00     0.028 C
HETATM   17  C4  UNL     1      10.842  -0.528  55.390  1.00  0.00     0.031 C
HETATM   18  C3  UNL     1       9.490  -1.025  54.863  1.00  0.00     0.007 C
HETATM   19  C2  UNL     1       9.249  -2.302  55.624  1.00  0.00    -0.016 C
HETATM   20  C1  UNL     1       8.115  -2.076  56.624  1.00  0.00     0.010 C
HETATM   21  C17 UNL     1      10.536  -2.646  56.303  1.00  0.00     0.034 C
HETATM   22  C6  UNL     1      11.781  -2.484  54.225  1.00  0.00     0.038 C
ENDBRANCH  14  16
ENDBRANCH   1  14
BRANCH  10  23
HETATM   23  C11 UNL     1      17.407  -1.923  53.387  1.00  0.00     0.053 C
HETATM   24  C12 UNL     1      18.154  -3.170  53.787  1.00  0.00     0.012 C
HETATM   25  C13 UNL     1      17.347  -4.340  53.251  1.00  0.00     0.001 C
HETATM   26  C14 UNL     1      16.569  -3.796  52.076  1.00  0.00     0.001 C
HETATM   27  C15 UNL     1      16.522  -2.315  52.217  1.00  0.00     0.012 C
ENDBRANCH  10  23
TORSDOF 3
ENDMDL