MODEL 1
REMARK VINA RESULT: -7.464183574      0.000      0.000
REMARK  4 active torsions:
REMARK  status: ('A' for Active; 'I' for Inactive)
REMARK    1  A    between atoms: C6_6  and  C7_7
REMARK    2  A    between atoms: C7_7  and  N1_8
REMARK    3  A    between atoms: N1_8  and  C8_10
REMARK    4  A    between atoms: C10_16  and  C11_17
ROOT
HETATM    1  C8  UNL     1      10.776  -1.814  55.254  1.00  0.00     0.147 A
HETATM    2  N2  UNL     1       9.842  -1.554  56.178  1.00  0.00    -0.283 N
ATOM      3  H2  UNL     1       9.308  -0.686  56.220  1.00  0.00     0.188 HD
HETATM    4  N3  UNL     1       9.695  -2.558  57.030  1.00  0.00    -0.294 N
ATOM      5  H3  UNL     1       9.050  -2.600  57.819  1.00  0.00     0.187 HD
HETATM    6  C9  UNL     1      10.559  -3.508  56.652  1.00  0.00     0.113 A
HETATM    7  C10 UNL     1      11.022  -4.779  56.958  1.00  0.00     0.114 A
HETATM    8  O1  UNL     1      11.951  -5.062  56.049  1.00  0.00    -0.239 OA
HETATM    9  N4  UNL     1      12.093  -4.082  55.221  1.00  0.00    -0.255 N
ATOM     10  H4  UNL     1      12.745  -4.066  54.437  1.00  0.00     0.195 HD
HETATM   11  C15 UNL     1      11.264  -3.099  55.543  1.00  0.00     0.130 A
ENDROOT
BRANCH   1  12
HETATM   12  N1  UNL     1      11.215  -1.055  54.285  1.00  0.00    -0.369 N
ATOM     13  H1  UNL     1      10.636  -0.794  53.486  1.00  0.00     0.161 HD
BRANCH  12  14
HETATM   14  C7  UNL     1      12.604  -0.608  54.434  1.00  0.00     0.160 C
BRANCH  14  15
HETATM   15  C6  UNL     1      13.413  -0.940  53.240  1.00  0.00    -0.034 A
HETATM   16  C4  UNL     1      14.735  -1.299  53.323  1.00  0.00    -0.054 A
HETATM   17  C3  UNL     1      15.500  -1.554  52.209  1.00  0.00     0.014 A
HETATM   18  C5  UNL     1      15.377  -1.452  54.665  1.00  0.00     0.049 C
HETATM   19  C2  UNL     1      14.915  -1.443  50.959  1.00  0.00    -0.056 A
HETATM   20  C1  UNL     1      15.677  -1.713  49.731  1.00  0.00     0.049 C
HETATM   21  C17 UNL     1      13.575  -1.083  50.827  1.00  0.00    -0.056 A
HETATM   22  C16 UNL     1      12.833  -0.833  51.961  1.00  0.00     0.016 A
HETATM   23  C18 UNL     1      12.971  -0.937  49.482  1.00  0.00     0.049 C
ENDBRANCH  14  15
ENDBRANCH  12  14
ENDBRANCH   1  12
BRANCH   7  24
HETATM   24  C11 UNL     1      10.606  -5.684  58.051  1.00  0.00     0.003 C
HETATM   25  C12 UNL     1       9.120  -5.970  57.943  1.00  0.00     0.021 C
HETATM   26  C13 UNL     1      11.414  -6.964  57.926  1.00  0.00     0.021 C
HETATM   27  C14 UNL     1      10.896  -5.095  59.414  1.00  0.00     0.021 C
ENDBRANCH   7  24
TORSDOF 4
ENDMDL