MODEL 3
REMARK VINA RESULT: -6.803736457      1.632      2.355
REMARK  4 active torsions:
REMARK  status: ('A' for Active; 'I' for Inactive)
REMARK    1  A    between atoms: C2_2  and  C4_4
REMARK    2  A    between atoms: C4_4  and  O2_6
REMARK    3  A    between atoms: O2_6  and  C5_7
REMARK    4  A    between atoms: C10_15  and  O3_16
ROOT
HETATM    1  C5  UNL     1      15.817  -0.811  49.526  1.00  0.00     0.141 C
HETATM    2  C6  UNL     1      14.362  -0.905  49.142  1.00  0.00     0.034 C
HETATM    3  C7  UNL     1      13.580  -0.913  50.452  1.00  0.00     0.010 C
HETATM    4  C8  UNL     1      14.619  -0.853  51.512  1.00  0.00     0.027 C
HETATM    5  C9  UNL     1      14.237  -1.435  52.820  1.00  0.00     0.198 C
HETATM    6  N1  UNL     1      12.838  -1.229  53.147  1.00  0.00    -0.043 N
ATOM      7  H11 UNL     1      12.198  -1.314  52.357  1.00  0.00     0.280 HD
ATOM      8  H12 UNL     1      12.592  -0.266  53.376  1.00  0.00     0.280 HD
HETATM    9  C10 UNL     1      12.616  -2.170  54.201  1.00  0.00     0.327 C
HETATM   10  C11 UNL     1      13.319  -3.409  53.694  1.00  0.00     0.009 C
HETATM   11  C12 UNL     1      12.369  -4.116  52.759  1.00  0.00     0.020 C
HETATM   12  C13 UNL     1      13.688  -4.351  54.799  1.00  0.00     0.020 C
HETATM   13  C14 UNL     1      14.543  -2.877  52.989  1.00  0.00     0.029 C
HETATM   14  C15 UNL     1      14.786  -3.634  51.734  1.00  0.00     0.008 C
HETATM   15  C16 UNL     1      15.744  -2.980  50.787  1.00  0.00     0.012 C
HETATM   16  C17 UNL     1      15.817  -1.505  50.885  1.00  0.00    -0.012 C
HETATM   17  C18 UNL     1      17.055  -1.042  51.623  1.00  0.00     0.018 C
ENDROOT
BRANCH   1  18
HETATM   18  O2  UNL     1      16.205   0.524  49.813  1.00  0.00    -0.311 OA
BRANCH  18  19
HETATM   19  C4  UNL     1      16.307   1.526  48.906  1.00  0.00     0.288 C
HETATM   20  O1  UNL     1      17.114   1.399  47.947  1.00  0.00    -0.260 OA
BRANCH  19  21
HETATM   21  C2  UNL     1      15.496   2.719  49.047  1.00  0.00     0.004 C
HETATM   22  C1  UNL     1      14.378   2.720  49.792  1.00  0.00     0.024 C
HETATM   23  C3  UNL     1      15.919   3.956  48.350  1.00  0.00     0.054 C
ENDBRANCH  19  21
ENDBRANCH  18  19
ENDBRANCH   1  18
BRANCH   9  24
HETATM   24  O3  UNL     1      11.250  -2.407  54.317  1.00  0.00    -0.369 OA
ATOM     25  H3  UNL     1      10.928  -1.983  55.104  1.00  0.00     0.212 HD
ENDBRANCH   9  24
TORSDOF 4
ENDMDL