MODEL 3
REMARK VINA RESULT: -9.371207579      3.226     11.731
REMARK  12 active torsions:
REMARK  status: ('A' for Active; 'I' for Inactive)
REMARK    1  A    between atoms: C2_2  and  C3_3
REMARK    2  A    between atoms: C3_3  and  C4_4
REMARK    3  A    between atoms: C6_6  and  C7_7
REMARK    4  A    between atoms: C7_7  and  C8_9
REMARK       I    between atoms: C8_9  and  N1_11
REMARK    5  A    between atoms: N1_11  and  O3_13
REMARK    6  A    between atoms: C13_18  and  O4_19
REMARK    7  A    between atoms: O4_19  and  C14_20
REMARK    8  A    between atoms: C14_20  and  C15_21
REMARK    9  A    between atoms: C19_28  and  N3_29
REMARK   10  A    between atoms: N3_29  and  C20_31
REMARK   11  A    between atoms: C20_31  and  C21_32
REMARK   12  A    between atoms: C21_32  and  N4_33
ROOT
HETATM    1  C15 UNL     1      18.922  42.216  -8.698  1.00  0.00     0.010 A
HETATM    2  C16 UNL     1      19.678  41.838  -7.625  1.00  0.00     0.036 A
HETATM    3  C17 UNL     1      20.213  42.806  -6.867  1.00  0.00     0.068 A
HETATM    4  C18 UNL     1      21.019  42.668  -5.724  1.00  0.00     0.272 A
HETATM    5  O5  UNL     1      21.334  41.512  -5.274  1.00  0.00    -0.267 OA
HETATM    6  N2  UNL     1      21.483  43.730  -5.071  1.00  0.00    -0.155 N
ATOM      7  H2  UNL     1      22.066  43.578  -4.247  1.00  0.00     0.187 HD
HETATM    8  C19 UNL     1      21.220  45.002  -5.447  1.00  0.00     0.681 A
HETATM    9  N5  UNL     1      20.451  45.162  -6.536  1.00  0.00    -0.184 N
ATOM     10  H5  UNL     1      20.229  46.107  -6.852  1.00  0.00     0.185 HD
HETATM   11  C26 UNL     1      19.961  44.106  -7.226  1.00  0.00     0.106 A
HETATM   12  S1  UNL     1      18.983  43.919  -8.615  1.00  0.00    -0.073 SA
ENDROOT
BRANCH   1  13
HETATM   13  C14 UNL     1      18.219  41.387  -9.712  1.00  0.00     0.222 C
BRANCH  13  14
HETATM   14  O4  UNL     1      18.833  40.123  -9.865  1.00  0.00    -0.346 OA
BRANCH  14  15
HETATM   15  C13 UNL     1      18.043  39.036  -9.542  1.00  0.00     0.076 A
HETATM   16  C4  UNL     1      17.315  38.375 -10.508  1.00  0.00    -0.024 A
HETATM   17  C5  UNL     1      16.524  37.285 -10.225  1.00  0.00     0.026 A
HETATM   18  C6  UNL     1      16.415  36.783  -8.915  1.00  0.00     0.026 A
HETATM   19  C10 UNL     1      17.129  37.434  -7.953  1.00  0.00    -0.045 A
HETATM   20  C11 UNL     1      17.013  37.025  -6.526  1.00  0.00     0.049 C
HETATM   21  C12 UNL     1      17.930  38.541  -8.260  1.00  0.00     0.045 A
BRANCH  16  22
HETATM   22  C3  UNL     1      17.423  38.905 -11.908  1.00  0.00     0.041 C
BRANCH  22  23
HETATM   23  C2  UNL     1      18.302  37.953 -12.679  1.00  0.00     0.000 C
HETATM   24  C1  UNL     1      19.626  38.660 -12.925  1.00  0.00     0.005 C
ENDBRANCH  22  23
ENDBRANCH  16  22
BRANCH  18  25
HETATM   25  C7  UNL     1      15.624  35.557  -8.708  1.00  0.00     0.251 C
HETATM   26  O1  UNL     1      14.606  35.642  -7.922  1.00  0.00    -0.281 OA
BRANCH  25  27
HETATM   27  C8  UNL     1      15.901  34.281  -9.320  1.00  0.00     0.316 C
HETATM   28  O2  UNL     1      17.031  33.890  -9.662  1.00  0.00    -0.262 OA
HETATM   29  N1  UNL     1      14.821  33.384  -9.560  1.00  0.00    -0.228 N
ATOM     30  H1  UNL     1      13.877  33.665  -9.292  1.00  0.00     0.198 HD
BRANCH  29  31
HETATM   31  O3  UNL     1      15.006  32.164 -10.136  1.00  0.00    -0.282 OA
HETATM   32  C9  UNL     1      13.777  31.540 -10.213  1.00  0.00     0.237 C
ENDBRANCH  29  31
ENDBRANCH  25  27
ENDBRANCH  18  25
ENDBRANCH  14  15
ENDBRANCH  13  14
ENDBRANCH   1  13
BRANCH   8  33
HETATM   33  N3  UNL     1      21.720  45.955  -4.757  1.00  0.00    -0.224 N
ATOM     34  H3  UNL     1      21.073  46.480  -4.169  1.00  0.00     0.177 HD
BRANCH  33  35
HETATM   35  C20 UNL     1      23.083  46.364  -4.720  1.00  0.00     0.158 C
BRANCH  35  36
HETATM   36  C21 UNL     1      23.166  47.863  -4.987  1.00  0.00     0.146 C
BRANCH  36  37
HETATM   37  N4  UNL     1      23.428  48.147  -6.391  1.00  0.00    -0.351 N
HETATM   38  C22 UNL     1      24.681  48.551  -6.950  1.00  0.00     0.126 C
HETATM   39  C23 UNL     1      24.546  48.638  -8.438  1.00  0.00     0.029 C
HETATM   40  C24 UNL     1      23.186  48.046  -8.753  1.00  0.00     0.104 C
HETATM   41  C25 UNL     1      22.476  48.081  -7.451  1.00  0.00     0.219 C
HETATM   42  O6  UNL     1      21.237  48.057  -7.260  1.00  0.00    -0.273 OA
ENDBRANCH  36  37
ENDBRANCH  35  36
ENDBRANCH  33  35
ENDBRANCH   8  33
TORSDOF 12
ENDMDL