MODEL 3
REMARK VINA RESULT: -8.115491918      0.967      1.794
REMARK  16 active torsions:
REMARK  status: ('A' for Active; 'I' for Inactive)
REMARK    1  A    between atoms: C2_2  and  C3_3
REMARK    2  A    between atoms: C3_3  and  C4_4
REMARK    3  A    between atoms: C4_4  and  C5_5
REMARK    4  A    between atoms: C5_5  and  N1_6
REMARK       I    between atoms: N1_6  and  C6_8
REMARK    5  A    between atoms: C6_8  and  O2_10
REMARK    6  A    between atoms: O2_10  and  C7_11
REMARK    7  A    between atoms: C8_12  and  C9_13
REMARK    8  A    between atoms: C11_15  and  C12_16
REMARK       I    between atoms: C12_16  and  N2_18
REMARK    9  A    between atoms: N3_21  and  C15_22
REMARK   10  A    between atoms: C15_22  and  O4_23
REMARK   11  A    between atoms: C15_22  and  N4_25
REMARK   12  A    between atoms: N4_25  and  C16_26
REMARK   13  A    between atoms: N4_25  and  C18_28
REMARK   14  A    between atoms: C22_32  and  C23_33
REMARK   15  A    between atoms: C24_36  and  O7_37
REMARK   16  A    between atoms: C26_39  and  O8_41
ROOT
HETATM    1  C7  UNL     1      17.798  39.217 -10.316  1.00  0.00     0.175 C
HETATM    2  C8  UNL     1      18.409  39.631  -9.003  1.00  0.00     0.032 C
HETATM    3  C11 UNL     1      19.285  40.814  -9.062  1.00  0.00     0.101 C
HETATM    4  C22 UNL     1      20.071  41.055 -10.301  1.00  0.00     0.132 C
HETATM    5  C24 UNL     1      19.278  40.858 -11.527  1.00  0.00     0.172 C
HETATM    6  C26 UNL     1      17.927  40.248 -11.394  1.00  0.00     0.108 C
HETATM    7  C27 UNL     1      17.379  39.714 -12.699  1.00  0.00     0.051 C
ENDROOT
BRANCH   3   8
HETATM    8  C12 UNL     1      20.107  40.882  -7.819  1.00  0.00     0.225 C
HETATM    9  O3  UNL     1      20.902  39.916  -7.660  1.00  0.00    -0.273 OA
HETATM   10  N2  UNL     1      20.094  41.853  -6.842  1.00  0.00    -0.349 N
HETATM   11  C13 UNL     1      19.258  43.010  -6.905  1.00  0.00     0.145 C
HETATM   12  C21 UNL     1      20.933  41.760  -5.678  1.00  0.00     0.145 C
HETATM   13  C14 UNL     1      19.940  44.293  -6.569  1.00  0.00     0.146 C
HETATM   14  N3  UNL     1      21.082  44.255  -5.721  1.00  0.00    -0.344 N
HETATM   15  C20 UNL     1      21.700  42.973  -5.383  1.00  0.00     0.146 C
BRANCH  14  16
HETATM   16  C15 UNL     1      21.747  45.376  -5.149  1.00  0.00     0.217 C
BRANCH  16  17
HETATM   17  O4  UNL     1      23.024  45.172  -4.953  1.00  0.00    -0.333 OA
ATOM     18  H4  UNL     1      23.204  44.615  -4.204  1.00  0.00     0.220 HD
ENDBRANCH  16  17
BRANCH  16  19
HETATM   19  N4  UNL     1      21.295  46.636  -4.764  1.00  0.00    -0.348 N
BRANCH  19  20
HETATM   20  C16 UNL     1      21.417  47.896  -5.440  1.00  0.00     0.122 C
HETATM   21  C17 UNL     1      21.613  47.750  -6.943  1.00  0.00     0.026 C
ENDBRANCH  19  20
BRANCH  19  22
HETATM   22  C18 UNL     1      20.577  46.716  -3.451  1.00  0.00     0.122 C
HETATM   23  C19 UNL     1      20.579  48.142  -2.964  1.00  0.00     0.026 C
ENDBRANCH  19  22
ENDBRANCH  16  19
ENDBRANCH  14  16
ENDBRANCH   3   8
BRANCH   2  24
HETATM   24  C9  UNL     1      18.964  38.434  -8.280  1.00  0.00     0.004 C
HETATM   25  C10 UNL     1      18.041  37.717  -7.385  1.00  0.00     0.005 C
ENDBRANCH   2  24
BRANCH   4  26
HETATM   26  C23 UNL     1      20.506  42.498 -10.237  1.00  0.00     0.180 C
HETATM   27  O5  UNL     1      19.724  43.391 -10.649  1.00  0.00    -0.648 OA
HETATM   28  O6  UNL     1      21.720  42.926  -9.753  1.00  0.00    -0.648 OA
ENDBRANCH   4  26
BRANCH   1  29
HETATM   29  O2  UNL     1      16.463  38.773 -10.182  1.00  0.00    -0.295 OA
BRANCH  29  30
HETATM   30  C6  UNL     1      16.109  37.422 -10.414  1.00  0.00     0.361 C
HETATM   31  N1  UNL     1      16.983  36.643 -11.195  1.00  0.00    -0.337 N
ATOM     32  H1  UNL     1      17.839  37.054 -11.568  1.00  0.00     0.164 HD
HETATM   33  O1  UNL     1      15.041  37.027  -9.902  1.00  0.00    -0.239 OA
BRANCH  31  34
HETATM   34  C5  UNL     1      16.668  35.254 -11.472  1.00  0.00     0.125 C
BRANCH  34  35
HETATM   35  C4  UNL     1      15.953  35.120 -12.760  1.00  0.00     0.020 C
BRANCH  35  36
HETATM   36  C3  UNL     1      16.398  36.079 -13.808  1.00  0.00     0.001 C
BRANCH  36  37
HETATM   37  C2  UNL     1      15.353  36.895 -14.443  1.00  0.00    -0.004 C
HETATM   38  C1  UNL     1      14.365  37.638 -13.649  1.00  0.00     0.005 C
ENDBRANCH  36  37
ENDBRANCH  35  36
ENDBRANCH  34  35
ENDBRANCH  31  34
ENDBRANCH  29  30
ENDBRANCH   1  29
BRANCH   5  39
HETATM   39  O7  UNL     1      19.960  40.065 -12.486  1.00  0.00    -0.387 OA
HETATM   40  C25 UNL     1      20.381  40.794 -13.577  1.00  0.00     0.202 C
ENDBRANCH   5  39
BRANCH   6  41
HETATM   41  O8  UNL     1      17.038  41.279 -11.060  1.00  0.00    -0.385 OA
ATOM     42  H8  UNL     1      16.468  41.391 -11.811  1.00  0.00     0.210 HD
ENDBRANCH   6  41
TORSDOF 16
ENDMDL