MODEL 2
REMARK VINA RESULT: -9.563128580      0.076      1.200
REMARK  11 active torsions:
REMARK  status: ('A' for Active; 'I' for Inactive)
REMARK    1  A    between atoms: C4_4  and  C5_5
REMARK    2  A    between atoms: C5_5  and  C6_6
REMARK    3  A    between atoms: C12_19  and  N4_20
REMARK    4  A    between atoms: N4_20  and  C13_22
REMARK    5  A    between atoms: C18_31  and  O3_32
REMARK    6  A    between atoms: C20_34  and  O4_35
REMARK    7  A    between atoms: O4_35  and  C21_36
REMARK    8  A    between atoms: C21_36  and  C22_37
REMARK    9  A    between atoms: C22_37  and  N7_38
REMARK   10  A    between atoms: N7_38  and  C23_39
REMARK   11  A    between atoms: N7_38  and  C25_41
ROOT
HETATM    1  N4  UNL     1      21.278  47.054  -7.250  1.00  0.00    -0.340 N
ATOM      2  H4  UNL     1      20.721  47.632  -6.622  1.00  0.00     0.167 HD
ENDROOT
BRANCH   1   3
HETATM    3  C12 UNL     1      21.092  45.656  -7.242  1.00  0.00     0.052 A
HETATM    4  C11 UNL     1      21.103  44.777  -8.280  1.00  0.00     0.130 A
HETATM    5  N3  UNL     1      20.849  43.505  -7.864  1.00  0.00    -0.286 N
HETATM    6  C10 UNL     1      20.758  42.338  -8.541  1.00  0.00     0.258 A
HETATM    7  C29 UNL     1      20.674  43.565  -6.546  1.00  0.00     0.053 A
HETATM    8  C4  UNL     1      20.478  41.157  -7.887  1.00  0.00     0.016 A
HETATM    9  O2  UNL     1      20.935  42.330  -9.804  1.00  0.00    -0.267 OA
HETATM   10  C3  UNL     1      20.291  41.198  -6.512  1.00  0.00     0.026 A
HETATM   11  C2  UNL     1      20.387  42.389  -5.846  1.00  0.00    -0.017 A
HETATM   12  C1  UNL     1      20.199  42.447  -4.530  1.00  0.00     0.026 C
HETATM   13  C28 UNL     1      20.813  44.871  -6.118  1.00  0.00     0.061 A
BRANCH   8  14
HETATM   14  C5  UNL     1      20.339  39.842  -8.561  1.00  0.00     0.090 C
BRANCH  14  15
HETATM   15  C6  UNL     1      19.021  39.606  -9.182  1.00  0.00     0.039 A
HETATM   16  C7  UNL     1      18.748  39.615 -10.539  1.00  0.00     0.034 A
HETATM   17  C8  UNL     1      19.630  39.858 -11.698  1.00  0.00     0.070 C
HETATM   18  N1  UNL     1      17.437  39.338 -10.685  1.00  0.00    -0.302 N
HETATM   19  N2  UNL     1      16.855  39.150  -9.518  1.00  0.00    -0.266 N
ATOM     20  H1  UNL     1      16.958  39.280 -11.584  1.00  0.00     0.186 HD
HETATM   21  C9  UNL     1      17.819  39.312  -8.590  1.00  0.00     0.268 A
ATOM     22  H2  UNL     1      15.874  38.927  -9.351  1.00  0.00     0.190 HD
HETATM   23  O1  UNL     1      17.592  39.197  -7.357  1.00  0.00    -0.266 OA
ENDBRANCH  14  15
ENDBRANCH   8  14
ENDBRANCH   1   3
BRANCH   1  24
HETATM   24  C13 UNL     1      22.113  47.609  -8.010  1.00  0.00     0.122 A
HETATM   25  N5  UNL     1      21.950  47.630  -9.339  1.00  0.00    -0.338 N
HETATM   26  C14 UNL     1      22.819  48.177 -10.197  1.00  0.00     0.182 A
ATOM     27  H5  UNL     1      21.108  47.200  -9.722  1.00  0.00     0.168 HD
HETATM   28  N6  UNL     1      23.908  48.731  -9.676  1.00  0.00    -0.351 N
HETATM   29  C15 UNL     1      24.167  48.766  -8.366  1.00  0.00     0.050 A
ATOM     30  H6  UNL     1      24.585  49.154 -10.311  1.00  0.00     0.166 HD
HETATM   31  C16 UNL     1      25.343  49.335  -7.924  1.00  0.00     0.033 A
HETATM   32  C27 UNL     1      23.249  48.191  -7.459  1.00  0.00     0.071 A
HETATM   33  C17 UNL     1      25.572  49.314  -6.570  1.00  0.00     0.042 A
HETATM   34  C18 UNL     1      24.696  48.766  -5.676  1.00  0.00     0.102 A
HETATM   35  C20 UNL     1      23.484  48.182  -6.122  1.00  0.00     0.118 A
BRANCH  34  36
HETATM   36  O3  UNL     1      25.006  48.789  -4.333  1.00  0.00    -0.353 OA
HETATM   37  C19 UNL     1      26.058  49.453  -3.715  1.00  0.00     0.210 C
ENDBRANCH  34  36
BRANCH  35  38
HETATM   38  O4  UNL     1      22.695  47.673  -5.172  1.00  0.00    -0.346 OA
BRANCH  38  39
HETATM   39  C21 UNL     1      21.838  48.132  -4.220  1.00  0.00     0.196 C
BRANCH  39  40
HETATM   40  C22 UNL     1      21.189  47.322  -3.185  1.00  0.00     0.153 C
BRANCH  40  41
HETATM   41  N7  UNL     1      21.772  47.499  -1.904  1.00  0.00    -0.373 N
BRANCH  41  42
HETATM   42  C23 UNL     1      20.973  48.028  -0.883  1.00  0.00     0.059 C
HETATM   43  C24 UNL     1      19.514  48.184  -1.275  1.00  0.00     0.055 C
ENDBRANCH  41  42
BRANCH  41  44
HETATM   44  C25 UNL     1      23.162  47.423  -1.751  1.00  0.00     0.059 C
HETATM   45  C26 UNL     1      23.758  46.056  -2.004  1.00  0.00     0.055 C
ENDBRANCH  41  44
ENDBRANCH  40  41
ENDBRANCH  39  40
ENDBRANCH  38  39
ENDBRANCH  35  38
ENDBRANCH   1  24
TORSDOF 11
ENDMDL