MODEL 1
REMARK VINA RESULT: -8.259334284      0.000      0.000
REMARK  13 active torsions:
REMARK  status: ('A' for Active; 'I' for Inactive)
REMARK    1  A    between atoms: C2_2  and  C3_3
REMARK    2  A    between atoms: C3_3  and  C4_4
REMARK    3  A    between atoms: C4_4  and  C5_5
REMARK    4  A    between atoms: C6_6  and  C7_7
REMARK    5  A    between atoms: N1_10  and  C8_11
REMARK    6  A    between atoms: C8_11  and  C9_12
REMARK    7  A    between atoms: C8_11  and  C13_16
REMARK    8  A    between atoms: C9_12  and  C10_13
REMARK    9  A    between atoms: C15_21  and  C16_22
REMARK   10  A    between atoms: C16_22  and  C17_23
REMARK   11  A    between atoms: C17_23  and  C18_24
REMARK       I    between atoms: C18_24  and  N2_26
REMARK   12  A    between atoms: N2_26  and  C19_28
REMARK   13  A    between atoms: C22_33  and  C23_34
ROOT
HETATM    1  C5  UNL     1      16.980  38.616  -9.607  1.00  0.00     0.070 C
HETATM    2  C6  UNL     1      16.930  38.226 -10.907  1.00  0.00     0.140 C
HETATM    3  N1  UNL     1      17.226  39.214 -11.900  1.00  0.00    -0.293 N
HETATM    4  C14 UNL     1      17.551  40.551 -11.526  1.00  0.00     0.258 C
HETATM    5  O5  UNL     1      17.407  41.578 -12.224  1.00  0.00    -0.270 OA
HETATM    6  C15 UNL     1      18.126  40.812 -10.172  1.00  0.00     0.164 C
HETATM    7  C25 UNL     1      17.410  41.817  -9.331  1.00  0.00     0.245 C
HETATM    8  O8  UNL     1      17.653  40.885  -8.318  1.00  0.00    -0.274 OA
HETATM    9  N4  UNL     1      17.460  39.923  -9.231  1.00  0.00    -0.238 N
ENDROOT
BRANCH   6  10
HETATM   10  C16 UNL     1      19.613  40.818 -10.111  1.00  0.00     0.055 C
BRANCH  10  11
HETATM   11  C17 UNL     1      20.103  42.225  -9.771  1.00  0.00     0.106 C
BRANCH  11  12
HETATM   12  C18 UNL     1      21.239  42.166  -8.822  1.00  0.00     0.223 C
HETATM   13  O6  UNL     1      21.227  41.543  -7.737  1.00  0.00    -0.273 OA
HETATM   14  N2  UNL     1      22.430  42.865  -9.164  1.00  0.00    -0.307 N
ATOM     15  H2  UNL     1      23.270  42.386  -9.489  1.00  0.00     0.171 HD
BRANCH  14  16
HETATM   16  C19 UNL     1      22.370  44.175  -9.028  1.00  0.00     0.152 A
HETATM   17  N3  UNL     1      21.873  44.856  -7.996  1.00  0.00    -0.339 N
HETATM   18  C20 UNL     1      21.899  46.162  -8.034  1.00  0.00     0.028 A
ATOM     19  H3  UNL     1      21.480  44.367  -7.192  1.00  0.00     0.168 HD
HETATM   20  C21 UNL     1      21.362  47.055  -6.918  1.00  0.00     0.070 C
HETATM   21  C22 UNL     1      22.442  46.751  -9.146  1.00  0.00     0.076 A
HETATM   22  S1  UNL     1      22.892  45.404 -10.087  1.00  0.00    -0.048 SA
BRANCH  21  23
HETATM   23  C23 UNL     1      22.589  48.199  -9.433  1.00  0.00     0.164 C
HETATM   24  C24 UNL     1      23.675  48.917  -8.734  1.00  0.00     0.097 C
HETATM   25  O7  UNL     1      21.843  48.793 -10.218  1.00  0.00    -0.292 OA
ENDBRANCH  21  23
ENDBRANCH  14  16
ENDBRANCH  11  12
ENDBRANCH  10  11
ENDBRANCH   6  10
BRANCH   3  26
HETATM   26  C8  UNL     1      17.212  38.894 -13.346  1.00  0.00     0.194 C
BRANCH  26  27
HETATM   27  C9  UNL     1      16.077  38.007 -13.668  1.00  0.00     0.040 C
BRANCH  27  28
HETATM   28  C10 UNL     1      15.841  37.473 -15.013  1.00  0.00    -0.020 C
HETATM   29  C11 UNL     1      14.619  37.903 -15.758  1.00  0.00     0.009 C
HETATM   30  C12 UNL     1      15.834  35.945 -15.063  1.00  0.00     0.009 C
ENDBRANCH  27  28
ENDBRANCH  26  27
BRANCH  26  31
HETATM   31  C13 UNL     1      18.531  38.301 -13.639  1.00  0.00     0.197 C
HETATM   32  O3  UNL     1      18.850  37.126 -13.811  1.00  0.00    -0.646 OA
HETATM   33  O4  UNL     1      19.630  39.206 -13.732  1.00  0.00    -0.646 OA
ENDBRANCH  26  31
ENDBRANCH   3  26
BRANCH   1  34
HETATM   34  C4  UNL     1      16.624  37.683  -8.544  1.00  0.00     0.062 C
BRANCH  34  35
HETATM   35  C3  UNL     1      17.733  37.266  -7.619  1.00  0.00     0.006 C
BRANCH  35  36
HETATM   36  C2  UNL     1      17.261  36.344  -6.537  1.00  0.00    -0.004 C
HETATM   37  C1  UNL     1      15.914  35.722  -6.887  1.00  0.00     0.005 C
ENDBRANCH  35  36
ENDBRANCH  34  35
ENDBRANCH   1  34
BRANCH   2  38
HETATM   38  C7  UNL     1      16.515  36.867 -11.214  1.00  0.00     0.229 C
HETATM   39  O1  UNL     1      17.303  35.915 -11.448  1.00  0.00    -0.643 OA
HETATM   40  O2  UNL     1      15.191  36.426 -11.296  1.00  0.00    -0.643 OA
ENDBRANCH   2  38
TORSDOF 13
ENDMDL