MODEL 3
REMARK VINA RESULT: -7.331648159      1.933      3.969
REMARK  17 active torsions:
REMARK  status: ('A' for Active; 'I' for Inactive)
REMARK    1  A    between atoms: C2_2  and  C4_4
REMARK    2  A    between atoms: C4_4  and  C5_5
REMARK    3  A    between atoms: C4_4  and  N4_25
REMARK    4  A    between atoms: C5_5  and  O1_6
REMARK    5  A    between atoms: C5_5  and  N1_8
REMARK    6  A    between atoms: N1_8  and  C6_10
REMARK    7  A    between atoms: C6_10  and  C7_11
REMARK    8  A    between atoms: C6_10  and  C12_21
REMARK    9  A    between atoms: C7_11  and  C8_12
REMARK   10  A    between atoms: C8_12  and  C9_13
REMARK   11  A    between atoms: C9_13  and  N2_14
REMARK   12  A    between atoms: N2_14  and  C10_16
REMARK   13  A    between atoms: C12_21  and  O3_23
REMARK   14  A    between atoms: C15_28  and  C16_29
REMARK       I    between atoms: N5_32  and  C19_33
REMARK   15  A    between atoms: C19_33  and  O6_35
REMARK   16  A    between atoms: O6_35  and  C20_36
REMARK   17  A    between atoms: C23_39  and  C24_40
ROOT
HETATM    1  C4  UNL     1      18.924  40.184 -11.000  1.00  0.00     0.198 C
ENDROOT
BRANCH   1   2
HETATM    2  C2  UNL     1      19.654  40.614 -12.184  1.00  0.00    -0.062 C
HETATM    3  C1  UNL     1      19.823  41.833 -12.655  1.00  0.00     0.016 C
HETATM    4  C3  UNL     1      20.291  39.515 -13.033  1.00  0.00     0.045 C
ENDBRANCH   1   2
BRANCH   1   5
HETATM    5  C5  UNL     1      18.249  41.165 -10.175  1.00  0.00     0.140 C
BRANCH   5   6
HETATM    6  O1  UNL     1      17.274  41.808 -10.755  1.00  0.00    -0.348 OA
ATOM      7  H1  UNL     1      17.274  41.779 -11.704  1.00  0.00     0.219 HD
ENDBRANCH   5   6
BRANCH   5   8
HETATM    8  N1  UNL     1      18.472  41.540  -8.857  1.00  0.00    -0.359 N
ATOM      9  H1  UNL     1      17.771  41.299  -8.157  1.00  0.00     0.162 HD
BRANCH   8  10
HETATM   10  C6  UNL     1      19.671  42.266  -8.429  1.00  0.00     0.183 C
BRANCH  10  11
HETATM   11  C7  UNL     1      20.087  43.252  -9.516  1.00  0.00     0.037 C
BRANCH  11  12
HETATM   12  C8  UNL     1      20.005  44.691  -9.061  1.00  0.00     0.022 C
BRANCH  12  13
HETATM   13  C9  UNL     1      21.218  45.083  -8.252  1.00  0.00     0.121 C
BRANCH  13  14
HETATM   14  N2  UNL     1      22.430  45.063  -9.005  1.00  0.00    -0.380 N
ATOM     15  H2  UNL     1      22.906  44.167  -9.109  1.00  0.00     0.160 HD
BRANCH  14  16
HETATM   16  C10 UNL     1      23.020  46.197  -9.620  1.00  0.00     0.066 C
HETATM   17  C11 UNL     1      22.552  46.638 -10.966  1.00  0.00     0.088 C
HETATM   18  N3  UNL     1      23.959  46.881  -9.063  1.00  0.00    -0.389 N
ATOM     19  H32 UNL     1      24.280  46.579  -8.143  1.00  0.00     0.157 HD
ATOM     20  H31 UNL     1      24.384  47.697  -9.506  1.00  0.00     0.157 HD
ENDBRANCH  14  16
ENDBRANCH  13  14
ENDBRANCH  12  13
ENDBRANCH  11  12
ENDBRANCH  10  11
BRANCH  10  21
HETATM   21  C12 UNL     1      20.753  41.384  -7.980  1.00  0.00     0.281 C
HETATM   22  O2  UNL     1      21.508  40.762  -8.791  1.00  0.00    -0.263 OA
BRANCH  21  23
HETATM   23  O3  UNL     1      21.014  41.183  -6.631  1.00  0.00    -0.325 OA
HETATM   24  C13 UNL     1      20.194  41.821  -5.678  1.00  0.00     0.213 C
ENDBRANCH  21  23
ENDBRANCH  10  21
ENDBRANCH   8  10
ENDBRANCH   5   8
ENDBRANCH   1   5
BRANCH   1  25
HETATM   25  N4  UNL     1      18.014  39.035 -11.217  1.00  0.00    -0.265 N
HETATM   26  C14 UNL     1      18.030  37.972 -10.279  1.00  0.00     0.274 C
HETATM   27  O4  UNL     1      18.786  38.020  -9.293  1.00  0.00    -0.266 OA
HETATM   28  C15 UNL     1      17.168  36.816 -10.464  1.00  0.00     0.089 C
HETATM   29  N5  UNL     1      16.769  36.611 -11.866  1.00  0.00    -0.277 N
HETATM   30  C19 UNL     1      16.594  35.255 -12.225  1.00  0.00     0.368 C
HETATM   31  C23 UNL     1      16.630  37.662 -12.810  1.00  0.00     0.191 C
HETATM   32  O5  UNL     1      16.260  34.783 -13.327  1.00  0.00    -0.238 OA
HETATM   33  C27 UNL     1      17.150  38.977 -12.330  1.00  0.00     0.251 C
HETATM   34  O7  UNL     1      16.799  40.008 -12.939  1.00  0.00    -0.271 OA
BRANCH  28  35
HETATM   35  C16 UNL     1      16.147  36.525  -9.443  1.00  0.00     0.033 C
HETATM   36  C17 UNL     1      15.578  37.661  -8.666  1.00  0.00     0.016 C
HETATM   37  C18 UNL     1      16.596  35.490  -8.421  1.00  0.00     0.016 C
ENDBRANCH  28  35
BRANCH  30  38
HETATM   38  O6  UNL     1      16.808  34.211 -11.278  1.00  0.00    -0.299 OA
BRANCH  38  39
HETATM   39  C20 UNL     1      16.090  33.016 -11.285  1.00  0.00     0.125 C
HETATM   40  C21 UNL     1      15.220  32.830 -10.072  1.00  0.00     0.040 C
HETATM   41  C22 UNL     1      17.110  31.873 -11.285  1.00  0.00     0.040 C
ENDBRANCH  38  39
ENDBRANCH  30  38
BRANCH  31  42
HETATM   42  C24 UNL     1      15.374  37.911 -13.535  1.00  0.00     0.010 C
HETATM   43  C25 UNL     1      14.088  37.676 -12.818  1.00  0.00     0.012 C
HETATM   44  C26 UNL     1      15.243  37.505 -14.960  1.00  0.00     0.012 C
ENDBRANCH  31  42
ENDBRANCH   1  25
TORSDOF 17
ENDMDL