MODEL 1
REMARK VINA RESULT: -9.115620790      0.000      0.000
REMARK  12 active torsions:
REMARK  status: ('A' for Active; 'I' for Inactive)
REMARK    1  A    between atoms: O1_2  and  C2_3
REMARK    2  A    between atoms: C4_5  and  C5_6
REMARK    3  A    between atoms: C5_6  and  C6_7
REMARK    4  A    between atoms: C8_11  and  N2_12
REMARK    5  A    between atoms: C11_22  and  C12_23
REMARK    6  A    between atoms: C12_23  and  N5_24
REMARK    7  A    between atoms: N7_29  and  C15_30
REMARK    8  A    between atoms: C15_30  and  C16_31
REMARK    9  A    between atoms: C16_31  and  C17_32
REMARK   10  A    between atoms: C17_32  and  O3_33
REMARK   11  A    between atoms: C17_32  and  O4_35
REMARK   12  A    between atoms: C21_39  and  C22_40
ROOT
HETATM    1  C2  UNL     1      20.542  41.646  -6.569  1.00  0.00     0.069 A
HETATM    2  C3  UNL     1      21.128  42.380  -7.564  1.00  0.00     0.044 A
HETATM    3  C4  UNL     1      20.445  42.524  -8.765  1.00  0.00    -0.050 A
HETATM    4  C10 UNL     1      19.233  41.938  -8.914  1.00  0.00     0.020 A
HETATM    5  C11 UNL     1      18.604  41.182  -7.919  1.00  0.00    -0.017 A
HETATM    6  C28 UNL     1      19.280  41.049  -6.748  1.00  0.00     0.049 A
ENDROOT
BRANCH   5   7
HETATM    7  C12 UNL     1      17.292  40.635  -8.169  1.00  0.00     0.108 C
BRANCH   7   8
HETATM    8  N5  UNL     1      17.197  39.465  -8.995  1.00  0.00    -0.294 N
HETATM    9  C13 UNL     1      17.066  38.224  -8.256  1.00  0.00     0.343 C
HETATM   10  O2  UNL     1      17.303  38.219  -7.021  1.00  0.00    -0.245 OA
HETATM   11  N6  UNL     1      16.679  37.005  -8.861  1.00  0.00    -0.242 N
HETATM   12  C14 UNL     1      16.568  35.772  -8.077  1.00  0.00     0.183 C
HETATM   13  N7  UNL     1      16.412  36.988 -10.221  1.00  0.00    -0.253 N
HETATM   14  C20 UNL     1      16.539  38.180 -10.943  1.00  0.00     0.262 C
HETATM   15  O5  UNL     1      16.166  38.226 -12.137  1.00  0.00    -0.269 OA
HETATM   16  C21 UNL     1      17.112  39.470 -10.386  1.00  0.00     0.192 C
BRANCH  13  17
HETATM   17  C15 UNL     1      16.006  35.726 -10.859  1.00  0.00     0.157 C
BRANCH  17  18
HETATM   18  C16 UNL     1      16.953  35.320 -11.931  1.00  0.00     0.082 C
BRANCH  18  19
HETATM   19  C17 UNL     1      16.145  34.642 -13.048  1.00  0.00     0.260 C
BRANCH  19  20
HETATM   20  O3  UNL     1      15.489  33.524 -12.570  1.00  0.00    -0.366 OA
HETATM   21  C18 UNL     1      16.128  32.339 -12.894  1.00  0.00     0.204 C
ENDBRANCH  19  20
BRANCH  19  22
HETATM   22  O4  UNL     1      15.238  35.574 -13.573  1.00  0.00    -0.366 OA
HETATM   23  C19 UNL     1      15.689  36.069 -14.798  1.00  0.00     0.204 C
ENDBRANCH  19  22
ENDBRANCH  18  19
ENDBRANCH  17  18
ENDBRANCH  13  17
BRANCH  16  24
HETATM   24  C22 UNL     1      18.222  39.823 -11.282  1.00  0.00     0.018 C
HETATM   25  C23 UNL     1      19.070  38.741 -11.840  1.00  0.00     0.007 C
HETATM   26  C24 UNL     1      20.004  39.353 -12.881  1.00  0.00     0.000 C
HETATM   27  C25 UNL     1      20.371  40.785 -12.557  1.00  0.00     0.000 C
HETATM   28  C26 UNL     1      19.154  41.688 -12.547  1.00  0.00     0.000 C
HETATM   29  C27 UNL     1      17.923  40.823 -12.364  1.00  0.00     0.007 C
ENDBRANCH  16  24
ENDBRANCH   7   8
ENDBRANCH   5   7
BRANCH   3  30
HETATM   30  C5  UNL     1      21.112  43.349  -9.826  1.00  0.00     0.082 C
BRANCH  30  31
HETATM   31  C6  UNL     1      21.502  44.647  -9.234  1.00  0.00     0.006 A
HETATM   32  C7  UNL     1      20.532  45.402  -8.612  1.00  0.00     0.117 A
HETATM   33  N1  UNL     1      20.867  46.605  -8.070  1.00  0.00    -0.202 N
HETATM   34  C8  UNL     1      22.108  47.090  -8.115  1.00  0.00     0.677 A
ATOM     35  H1  UNL     1      20.142  47.156  -7.612  1.00  0.00     0.183 HD
HETATM   36  N3  UNL     1      23.059  46.375  -8.713  1.00  0.00    -0.177 N
HETATM   37  C9  UNL     1      22.774  45.156  -9.273  1.00  0.00     0.122 A
ATOM     38  H3  UNL     1      24.011  46.738  -8.754  1.00  0.00     0.185 HD
HETATM   39  N4  UNL     1      23.727  44.517  -9.820  1.00  0.00    -0.385 N
ATOM     40  H42 UNL     1      23.515  43.611 -10.236  1.00  0.00     0.157 HD
ATOM     41  H41 UNL     1      24.674  44.895  -9.849  1.00  0.00     0.157 HD
BRANCH  34  42
HETATM   42  N2  UNL     1      22.358  48.250  -7.572  1.00  0.00    -0.234 N
ATOM     43  H22 UNL     1      21.942  48.529  -6.683  1.00  0.00     0.174 HD
ATOM     44  H21 UNL     1      22.985  48.898  -8.050  1.00  0.00     0.174 HD
ENDBRANCH  34  42
ENDBRANCH  30  31
ENDBRANCH   3  30
BRANCH   1  45
HETATM   45  O1  UNL     1      21.201  41.477  -5.344  1.00  0.00    -0.356 OA
HETATM   46  C1  UNL     1      20.573  41.922  -4.181  1.00  0.00     0.210 C
ENDBRANCH   1  45
TORSDOF 12
ENDMDL