MODEL 2
REMARK VINA RESULT: -9.064595484      1.621      3.495
REMARK  12 active torsions:
REMARK  status: ('A' for Active; 'I' for Inactive)
REMARK    1  A    between atoms: C2_2  and  N1_3
REMARK    2  A    between atoms: C3_4  and  N2_5
REMARK    3  A    between atoms: C4_8  and  C5_9
REMARK       I    between atoms: C5_9  and  N3_11
REMARK    4  A    between atoms: N3_11  and  C6_13
REMARK    5  A    between atoms: C6_13  and  C7_14
REMARK    6  A    between atoms: C7_14  and  C8_15
REMARK    7  A    between atoms: C8_15  and  C9_16
REMARK    8  A    between atoms: C9_16  and  C10_17
REMARK    9  A    between atoms: C10_17  and  C11_18
REMARK       I    between atoms: C11_18  and  N4_20
REMARK   10  A    between atoms: N4_20  and  C12_22
REMARK   11  A    between atoms: C12_22  and  C13_23
REMARK   12  A    between atoms: C13_23  and  N5_24
ROOT
HETATM    1  C5  UNL     1      20.494  41.197  -8.635  1.00  0.00     0.255 C
HETATM    2  O1  UNL     1      21.520  40.482  -8.817  1.00  0.00    -0.268 OA
HETATM    3  N3  UNL     1      19.184  40.649  -8.699  1.00  0.00    -0.357 N
ATOM      4  H3  UNL     1      18.340  41.208  -8.571  1.00  0.00     0.162 HD
ENDROOT
BRANCH   1   5
HETATM    5  C4  UNL     1      20.752  42.601  -8.367  1.00  0.00     0.082 A
HETATM    6  C3  UNL     1      20.882  43.396  -9.492  1.00  0.00     0.118 A
HETATM    7  N1  UNL     1      21.173  44.681  -9.241  1.00  0.00    -0.327 N
HETATM    8  C24 UNL     1      21.328  45.171  -7.974  1.00  0.00     0.089 A
HETATM    9  C21 UNL     1      21.206  44.416  -6.835  1.00  0.00     0.012 A
HETATM   10  S1  UNL     1      21.697  46.728  -7.382  1.00  0.00    -0.073 SA
HETATM   11  C19 UNL     1      20.902  43.050  -7.076  1.00  0.00    -0.029 A
HETATM   12  C22 UNL     1      21.385  45.042  -5.653  1.00  0.00    -0.028 A
HETATM   13  C20 UNL     1      20.867  42.056  -5.963  1.00  0.00     0.050 C
HETATM   14  C23 UNL     1      21.688  46.406  -5.728  1.00  0.00     0.020 A
HETATM   15  C28 UNL     1      21.280  44.653  -4.188  1.00  0.00     0.070 C
HETATM   16  C25 UNL     1      21.928  47.140  -4.442  1.00  0.00     0.318 C
HETATM   17  N7  UNL     1      22.817  46.450  -3.567  1.00  0.00     0.089 N
HETATM   18  C26 UNL     1      22.675  46.843  -2.181  1.00  0.00     0.310 C
HETATM   19  C27 UNL     1      22.658  45.008  -3.611  1.00  0.00     0.277 C
BRANCH   6  20
HETATM   20  N2  UNL     1      20.743  43.036 -10.703  1.00  0.00    -0.384 N
ATOM     21  H22 UNL     1      19.871  42.800 -11.176  1.00  0.00     0.157 HD
ATOM     22  H21 UNL     1      21.577  42.981 -11.288  1.00  0.00     0.157 HD
ENDBRANCH   6  20
BRANCH   7  23
HETATM   23  C2  UNL     1      21.345  45.653 -10.318  1.00  0.00     0.127 C
HETATM   24  C1  UNL     1      22.794  46.025 -10.535  1.00  0.00     0.027 C
ENDBRANCH   7  23
ENDBRANCH   1   5
BRANCH   3  25
HETATM   25  C6  UNL     1      19.156  39.204  -8.964  1.00  0.00     0.123 C
BRANCH  25  26
HETATM   26  C7  UNL     1      18.883  38.385  -7.757  1.00  0.00     0.020 C
BRANCH  26  27
HETATM   27  C8  UNL     1      17.442  38.672  -7.319  1.00  0.00     0.002 C
BRANCH  27  28
HETATM   28  C9  UNL     1      16.884  37.561  -6.512  1.00  0.00     0.009 C
BRANCH  28  29
HETATM   29  C10 UNL     1      16.891  36.204  -7.097  1.00  0.00     0.103 C
BRANCH  29  30
HETATM   30  C11 UNL     1      16.023  36.008  -8.268  1.00  0.00     0.221 C
HETATM   31  O2  UNL     1      14.783  35.899  -8.253  1.00  0.00    -0.273 OA
HETATM   32  N4  UNL     1      16.651  35.940  -9.564  1.00  0.00    -0.336 N
ATOM     33  H4  UNL     1      17.665  36.034  -9.619  1.00  0.00     0.168 HD
BRANCH  32  34
HETATM   34  C12 UNL     1      15.928  35.749 -10.759  1.00  0.00     0.102 C
BRANCH  34  35
HETATM   35  C13 UNL     1      15.652  36.949 -11.593  1.00  0.00     0.081 C
BRANCH  35  36
HETATM   36  N5  UNL     1      16.794  37.480 -12.215  1.00  0.00    -0.267 NA
HETATM   37  C14 UNL     1      16.424  38.595 -13.132  1.00  0.00     0.115 C
HETATM   38  C15 UNL     1      17.614  39.526 -13.056  1.00  0.00     0.109 C
HETATM   39  N6  UNL     1      18.856  38.894 -13.334  1.00  0.00    -0.295 NA
HETATM   40  C16 UNL     1      19.862  39.597 -12.517  1.00  0.00     0.116 C
HETATM   41  C17 UNL     1      19.001  37.522 -13.064  1.00  0.00     0.071 C
HETATM   42  C18 UNL     1      17.709  36.713 -12.944  1.00  0.00     0.076 C
ENDBRANCH  35  36
ENDBRANCH  34  35
ENDBRANCH  32  34
ENDBRANCH  29  30
ENDBRANCH  28  29
ENDBRANCH  27  28
ENDBRANCH  26  27
ENDBRANCH  25  26
ENDBRANCH   3  25
TORSDOF 12
ENDMDL