MODEL 2
REMARK VINA RESULT: -7.901938998      6.073     11.821
REMARK  12 active torsions:
REMARK  status: ('A' for Active; 'I' for Inactive)
REMARK    1  A    between atoms: C2_2  and  N1_3
REMARK    2  A    between atoms: N1_3  and  C3_5
REMARK    3  A    between atoms: C6_13  and  C7_14
REMARK    4  A    between atoms: C7_14  and  C8_15
REMARK    5  A    between atoms: C9_16  and  O2_17
REMARK    6  A    between atoms: O2_17  and  C10_18
REMARK    7  A    between atoms: C10_18  and  C11_19
REMARK    8  A    between atoms: C11_19  and  C12_20
REMARK    9  A    between atoms: C12_20  and  N4_21
REMARK   10  A    between atoms: N4_21  and  C14_23
REMARK   11  A    between atoms: C14_23  and  C15_24
REMARK   12  A    between atoms: C15_24  and  N5_25
ROOT
HETATM    1  C8  UNL     1      18.533  40.869 -10.413  1.00  0.00    -0.011 A
HETATM    2  C9  UNL     1      18.241  39.771  -9.559  1.00  0.00     0.076 A
HETATM    3  C17 UNL     1      18.997  39.524  -8.440  1.00  0.00     0.038 A
HETATM    4  C18 UNL     1      20.056  40.360  -8.151  1.00  0.00     0.010 A
HETATM    5  C19 UNL     1      20.374  41.431  -8.949  1.00  0.00    -0.051 A
HETATM    6  C20 UNL     1      19.585  41.668 -10.093  1.00  0.00    -0.042 A
HETATM    7  C21 UNL     1      19.934  42.821 -10.966  1.00  0.00     0.040 C
HETATM    8  C22 UNL     1      19.771  44.159 -10.224  1.00  0.00     0.005 C
HETATM    9  C23 UNL     1      20.982  45.017 -10.316  1.00  0.00     0.000 C
HETATM   10  C24 UNL     1      21.824  45.084  -9.086  1.00  0.00     0.000 C
HETATM   11  C25 UNL     1      21.160  44.675  -7.823  1.00  0.00     0.000 C
HETATM   12  C26 UNL     1      21.269  43.231  -7.464  1.00  0.00     0.005 C
HETATM   13  C27 UNL     1      21.540  42.291  -8.583  1.00  0.00     0.039 C
ENDROOT
BRANCH   1  14
HETATM   14  C7  UNL     1      17.648  41.050 -11.584  1.00  0.00     0.118 C
BRANCH  14  15
HETATM   15  C6  UNL     1      17.383  39.847 -12.377  1.00  0.00     0.088 A
HETATM   16  N3  UNL     1      16.165  39.312 -12.577  1.00  0.00    -0.339 N
HETATM   17  C5  UNL     1      16.207  38.206 -13.320  1.00  0.00     0.135 A
ATOM     18  H3  UNL     1      15.303  39.710 -12.202  1.00  0.00     0.167 HD
HETATM   19  C4  UNL     1      15.147  37.422 -13.701  1.00  0.00     0.288 C
HETATM   20  C29 UNL     1      17.566  38.044 -13.601  1.00  0.00     0.137 A
HETATM   21  N2  UNL     1      15.215  36.205 -14.250  1.00  0.00    -0.154 N
HETATM   22  O1  UNL     1      14.007  37.876 -13.523  1.00  0.00    -0.265 OA
HETATM   23  C3  UNL     1      16.284  35.411 -14.526  1.00  0.00     0.683 C
ATOM     24  H2  UNL     1      14.313  35.804 -14.506  1.00  0.00     0.187 HD
HETATM   25  N7  UNL     1      17.560  35.801 -14.630  1.00  0.00    -0.154 N
HETATM   26  C30 UNL     1      18.080  37.019 -14.364  1.00  0.00     0.289 C
ATOM     27  H7  UNL     1      18.221  35.093 -14.949  1.00  0.00     0.187 HD
HETATM   28  O3  UNL     1      19.202  37.272 -14.884  1.00  0.00    -0.265 OA
HETATM   29  N6  UNL     1      18.249  39.047 -13.019  1.00  0.00    -0.334 N
HETATM   30  C28 UNL     1      19.702  39.131 -13.110  1.00  0.00     0.158 C
BRANCH  23  31
HETATM   31  N1  UNL     1      16.034  34.158 -14.704  1.00  0.00    -0.226 N
ATOM     32  H1  UNL     1      15.798  33.851 -15.648  1.00  0.00     0.177 HD
BRANCH  31  33
HETATM   33  C2  UNL     1      16.064  33.171 -13.670  1.00  0.00     0.133 C
HETATM   34  C1  UNL     1      16.804  31.937 -14.172  1.00  0.00     0.027 C
ENDBRANCH  31  33
ENDBRANCH  23  31
ENDBRANCH  14  15
ENDBRANCH   1  14
BRANCH   2  35
HETATM   35  O2  UNL     1      17.201  38.941  -9.836  1.00  0.00    -0.351 OA
BRANCH  35  36
HETATM   36  C10 UNL     1      17.012  37.595  -9.726  1.00  0.00     0.177 C
BRANCH  36  37
HETATM   37  C11 UNL     1      15.649  37.048 -10.028  1.00  0.00     0.057 C
BRANCH  37  38
HETATM   38  C12 UNL     1      15.782  35.583 -10.429  1.00  0.00     0.274 C
BRANCH  38  39
HETATM   39  N4  UNL     1      16.147  34.774  -9.302  1.00  0.00     0.085 N
HETATM   40  C13 UNL     1      16.221  33.390  -9.742  1.00  0.00     0.309 C
BRANCH  39  41
HETATM   41  C14 UNL     1      15.205  34.914  -8.232  1.00  0.00     0.299 C
BRANCH  41  42
HETATM   42  C15 UNL     1      15.926  35.207  -6.926  1.00  0.00     0.262 C
BRANCH  42  43
HETATM   43  N5  UNL     1      15.529  36.523  -6.453  1.00  0.00    -0.077 N
HETATM   44  C16 UNL     1      16.662  37.426  -6.384  1.00  0.00     0.267 C
ATOM     45  H52 UNL     1      14.776  36.912  -7.020  1.00  0.00     0.276 HD
ATOM     46  H51 UNL     1      15.041  36.468  -5.559  1.00  0.00     0.276 HD
ENDBRANCH  42  43
ENDBRANCH  41  42
ENDBRANCH  39  41
ENDBRANCH  38  39
ENDBRANCH  37  38
ENDBRANCH  36  37
ENDBRANCH  35  36
ENDBRANCH   2  35
TORSDOF 12
ENDMDL