MODEL 5
REMARK VINA RESULT: -7.896550597      1.627      2.122
REMARK  14 active torsions:
REMARK  status: ('A' for Active; 'I' for Inactive)
REMARK    1  A    between atoms: C2_2  and  C3_4
REMARK    2  A    between atoms: C4_8  and  C5_9
REMARK    3  A    between atoms: C5_9  and  N2_10
REMARK       I    between atoms: N2_10  and  C6_12
REMARK    4  A    between atoms: C6_12  and  O3_14
REMARK    5  A    between atoms: O3_14  and  C7_15
REMARK    6  A    between atoms: C14_22  and  N3_23
REMARK       I    between atoms: N3_23  and  C16_25
REMARK    7  A    between atoms: C16_25  and  C17_27
REMARK    8  A    between atoms: C17_27  and  C18_28
REMARK    9  A    between atoms: C18_28  and  C19_29
REMARK   10  A    between atoms: C19_29  and  C20_30
REMARK   11  A    between atoms: C20_30  and  C21_31
REMARK   12  A    between atoms: C21_31  and  O5_32
REMARK   13  A    between atoms: O5_32  and  C22_33
REMARK       I    between atoms: C22_33  and  N4_35
REMARK   14  A    between atoms: C25_38  and  C26_39
ROOT
HETATM    1  C3  UNL     1      19.185  43.342  -5.902  1.00  0.00     0.270 C
HETATM    2  N1  UNL     1      19.148  43.564  -7.383  1.00  0.00    -0.044 N
ATOM      3  H11 UNL     1      19.819  44.258  -7.713  1.00  0.00     0.280 HD
ATOM      4  H12 UNL     1      18.310  44.048  -7.707  1.00  0.00     0.280 HD
HETATM    5  C4  UNL     1      19.323  42.287  -7.952  1.00  0.00     0.201 C
HETATM    6  C11 UNL     1      20.338  41.727  -7.004  1.00  0.00     0.050 C
HETATM    7  C12 UNL     1      20.666  40.463  -7.644  1.00  0.00     0.014 C
HETATM    8  C13 UNL     1      21.137  41.135  -8.983  1.00  0.00     0.056 C
HETATM    9  C14 UNL     1      20.196  42.242  -9.233  1.00  0.00     0.033 C
HETATM   10  C25 UNL     1      19.810  41.987  -5.706  1.00  0.00     0.132 C
ENDROOT
BRANCH   9  11
HETATM   11  N3  UNL     1      20.519  43.435  -9.837  1.00  0.00    -0.327 N
HETATM   12  C15 UNL     1      19.685  43.821 -11.024  1.00  0.00     0.159 C
HETATM   13  C16 UNL     1      21.505  44.424  -9.576  1.00  0.00     0.223 C
HETATM   14  O4  UNL     1      22.375  44.404  -8.685  1.00  0.00    -0.273 OA
BRANCH  13  15
HETATM   15  C17 UNL     1      21.590  45.658 -10.402  1.00  0.00     0.103 C
BRANCH  15  16
HETATM   16  C18 UNL     1      22.932  46.264 -10.513  1.00  0.00     0.009 C
BRANCH  16  17
HETATM   17  C19 UNL     1      23.020  47.698 -10.877  1.00  0.00     0.002 C
BRANCH  17  18
HETATM   18  C20 UNL     1      22.743  48.656  -9.736  1.00  0.00     0.027 C
BRANCH  18  19
HETATM   19  C21 UNL     1      23.668  48.328  -8.616  1.00  0.00     0.180 C
BRANCH  19  20
HETATM   20  O5  UNL     1      24.561  49.343  -8.260  1.00  0.00    -0.304 OA
BRANCH  20  21
HETATM   21  C22 UNL     1      25.700  49.047  -7.531  1.00  0.00     0.362 C
HETATM   22  O6  UNL     1      25.839  47.958  -6.917  1.00  0.00    -0.238 OA
HETATM   23  N4  UNL     1      26.781  50.005  -7.456  1.00  0.00    -0.337 N
HETATM   24  C23 UNL     1      26.668  51.285  -8.148  1.00  0.00     0.154 C
HETATM   25  C24 UNL     1      27.961  49.698  -6.713  1.00  0.00     0.154 C
ENDBRANCH  20  21
ENDBRANCH  19  20
ENDBRANCH  18  19
ENDBRANCH  17  18
ENDBRANCH  16  17
ENDBRANCH  15  16
ENDBRANCH  13  15
ENDBRANCH   9  11
BRANCH   5  26
HETATM   26  C5  UNL     1      18.097  41.532  -8.256  1.00  0.00     0.111 C
BRANCH  26  27
HETATM   27  N2  UNL     1      17.679  41.181  -9.528  1.00  0.00    -0.314 N
HETATM   28  C6  UNL     1      17.740  39.783  -9.906  1.00  0.00     0.365 C
HETATM   29  O2  UNL     1      18.166  38.973  -9.060  1.00  0.00    -0.238 OA
ATOM     30  H2  UNL     1      17.338  41.887 -10.181  1.00  0.00     0.170 HD
BRANCH  28  31
HETATM   31  O3  UNL     1      17.344  39.356 -11.152  1.00  0.00    -0.294 OA
BRANCH  31  32
HETATM   32  C7  UNL     1      18.201  39.355 -12.276  1.00  0.00     0.061 C
HETATM   33  C8  UNL     1      18.225  38.004 -12.961  1.00  0.00     0.046 C
HETATM   34  C9  UNL     1      17.729  40.443 -13.216  1.00  0.00     0.046 C
HETATM   35  C10 UNL     1      19.627  39.681 -11.890  1.00  0.00     0.046 C
ENDBRANCH  31  32
ENDBRANCH  28  31
ENDBRANCH  26  27
ENDBRANCH   5  26
BRANCH   1  36
HETATM   36  C2  UNL     1      19.801  44.491  -5.245  1.00  0.00     0.154 C
HETATM   37  C1  UNL     1      20.867  45.390  -5.666  1.00  0.00     0.093 C
HETATM   38  O1  UNL     1      19.341  44.767  -4.113  1.00  0.00    -0.296 OA
ENDBRANCH   1  36
BRANCH  10  39
HETATM   39  C26 UNL     1      20.742  41.872  -4.565  1.00  0.00     0.180 C
HETATM   40  O7  UNL     1      21.965  42.006  -4.748  1.00  0.00    -0.648 OA
HETATM   41  O8  UNL     1      20.262  41.620  -3.305  1.00  0.00    -0.648 OA
ENDBRANCH  10  39
TORSDOF 14
ENDMDL