MODEL 3
REMARK VINA RESULT: -8.746320785      3.027      5.348
REMARK  15 active torsions:
REMARK  status: ('A' for Active; 'I' for Inactive)
REMARK    1  A    between atoms: C3_3  and  C4_4
REMARK    2  A    between atoms: C4_4  and  N1_5
REMARK    3  A    between atoms: N1_5  and  C5_6
REMARK    4  A    between atoms: N1_5  and  C8_9
REMARK    5  A    between atoms: C10_13  and  C11_14
REMARK    6  A    between atoms: C13_16  and  C14_17
REMARK    7  A    between atoms: C14_17  and  O1_18
REMARK    8  A    between atoms: C14_17  and  N3_20
REMARK    9  A    between atoms: N3_20  and  C15_21
REMARK   10  A    between atoms: N3_20  and  C19_26
REMARK   11  A    between atoms: C15_21  and  C16_22
REMARK   12  A    between atoms: C16_22  and  N4_23
REMARK   13  A    between atoms: C19_26  and  C20_27
REMARK   14  A    between atoms: C28_39  and  N7_40
REMARK   15  A    between atoms: N7_40  and  N8_42
ROOT
HETATM    1  C1  UNL     1      19.014  48.194  -0.582  1.00  0.00     0.097 C
HETATM    2  C2  UNL     1      19.928  47.880  -1.336  1.00  0.00    -0.182 C
HETATM    3  C3  UNL     1      21.021  47.561  -2.226  1.00  0.00     0.125 C
ENDROOT
BRANCH   3   4
HETATM    4  C4  UNL     1      20.735  46.841  -3.465  1.00  0.00     0.099 C
BRANCH   4   5
HETATM    5  N1  UNL     1      21.625  46.001  -4.142  1.00  0.00    -0.164 N
BRANCH   5   6
HETATM    6  C5  UNL     1      23.037  46.034  -4.295  1.00  0.00     0.177 C
HETATM    7  C6  UNL     1      23.580  47.139  -5.051  1.00  0.00    -0.071 C
HETATM    8  C7  UNL     1      24.055  48.043  -5.717  1.00  0.00     0.018 C
ENDBRANCH   5   6
BRANCH   5   9
HETATM    9  C8  UNL     1      20.990  44.851  -4.821  1.00  0.00     0.688 A
HETATM   10  N2  UNL     1      21.702  43.798  -5.204  1.00  0.00    -0.200 N
HETATM   11  C9  UNL     1      21.126  42.733  -5.820  1.00  0.00     0.121 A
ATOM     12  H2  UNL     1      22.708  43.789  -5.032  1.00  0.00     0.183 HD
HETATM   13  C10 UNL     1      19.777  42.757  -6.044  1.00  0.00     0.022 A
HETATM   14  C30 UNL     1      19.031  43.845  -5.649  1.00  0.00     0.121 A
HETATM   15  N10 UNL     1      19.678  44.887  -5.035  1.00  0.00    -0.200 N
ATOM     16  H10 UNL     1      19.143  45.703  -4.737  1.00  0.00     0.183 HD
BRANCH  13  17
HETATM   17  C11 UNL     1      19.094  41.630  -6.698  1.00  0.00     0.046 A
HETATM   18  C12 UNL     1      19.592  40.744  -7.595  1.00  0.00     0.047 A
HETATM   19  C13 UNL     1      18.604  39.818  -7.986  1.00  0.00     0.032 A
HETATM   20  C29 UNL     1      17.508  40.207  -7.275  1.00  0.00     0.104 A
HETATM   21  N9  UNL     1      17.816  41.304  -6.499  1.00  0.00    -0.364 N
ATOM     22  H9  UNL     1      17.171  41.789  -5.874  1.00  0.00     0.165 HD
BRANCH  19  23
HETATM   23  C14 UNL     1      18.834  38.742  -8.920  1.00  0.00     0.150 C
BRANCH  23  24
HETATM   24  O1  UNL     1      19.228  37.602  -8.387  1.00  0.00    -0.345 OA
ATOM     25  H1  UNL     1      20.165  37.450  -8.392  1.00  0.00     0.219 HD
ENDBRANCH  23  24
BRANCH  23  26
HETATM   26  N3  UNL     1      18.719  38.683 -10.310  1.00  0.00    -0.354 N
BRANCH  26  27
HETATM   27  C15 UNL     1      17.742  37.693 -10.819  1.00  0.00     0.155 C
BRANCH  27  28
HETATM   28  C16 UNL     1      16.357  37.908 -10.355  1.00  0.00     0.291 C
BRANCH  28  29
HETATM   29  N4  UNL     1      15.716  36.769  -9.801  1.00  0.00     0.081 N
HETATM   30  C17 UNL     1      15.932  36.695  -8.358  1.00  0.00     0.309 C
HETATM   31  C18 UNL     1      16.107  35.566 -10.492  1.00  0.00     0.309 C
ENDBRANCH  28  29
ENDBRANCH  27  28
ENDBRANCH  26  27
BRANCH  26  32
HETATM   32  C19 UNL     1      19.442  39.478 -11.240  1.00  0.00     0.186 C
BRANCH  32  33
HETATM   33  C20 UNL     1      19.578  40.894 -10.798  1.00  0.00     0.073 A
HETATM   34  N5  UNL     1      20.768  41.356 -10.368  1.00  0.00    -0.353 N
HETATM   35  C21 UNL     1      21.000  42.597  -9.947  1.00  0.00     0.059 A
ATOM     36  H5  UNL     1      21.552  40.703 -10.363  1.00  0.00     0.166 HD
HETATM   37  C22 UNL     1      22.205  43.079  -9.504  1.00  0.00     0.032 A
HETATM   38  C27 UNL     1      19.906  43.460  -9.966  1.00  0.00     0.061 A
HETATM   39  C23 UNL     1      22.360  44.367  -9.085  1.00  0.00     0.009 A
HETATM   40  C24 UNL     1      21.310  45.251  -9.087  1.00  0.00    -0.060 A
HETATM   41  C25 UNL     1      21.484  46.661  -8.624  1.00  0.00     0.048 C
HETATM   42  C26 UNL     1      20.099  44.778  -9.530  1.00  0.00     0.038 A
HETATM   43  N6  UNL     1      18.719  43.042 -10.383  1.00  0.00    -0.338 N
HETATM   44  C28 UNL     1      18.506  41.743 -10.816  1.00  0.00     0.144 A
ATOM     45  H6  UNL     1      17.938  43.697 -10.384  1.00  0.00     0.167 HD
BRANCH  44  46
HETATM   46  N7  UNL     1      17.330  41.448 -11.189  1.00  0.00    -0.290 N
ATOM     47  H7  UNL     1      16.747  41.052 -10.453  1.00  0.00     0.188 HD
BRANCH  46  48
HETATM   48  N8  UNL     1      16.718  41.559 -12.368  1.00  0.00    -0.344 N
ATOM     49  H82 UNL     1      15.719  41.357 -12.315  1.00  0.00     0.176 HD
ATOM     50  H81 UNL     1      17.065  41.807 -13.294  1.00  0.00     0.176 HD
ENDBRANCH  46  48
ENDBRANCH  44  46
ENDBRANCH  32  33
ENDBRANCH  26  32
ENDBRANCH  23  26
ENDBRANCH  19  23
ENDBRANCH  13  17
ENDBRANCH   5   9
ENDBRANCH   4   5
ENDBRANCH   3   4
TORSDOF 15
ENDMDL