MODEL 5
REMARK VINA RESULT: -7.787154978      1.705      2.357
REMARK  15 active torsions:
REMARK  status: ('A' for Active; 'I' for Inactive)
REMARK    1  A    between atoms: C2_2  and  C3_3
REMARK    2  A    between atoms: C3_3  and  C4_4
REMARK    3  A    between atoms: C4_4  and  C5_5
REMARK    4  A    between atoms: C5_5  and  C6_6
REMARK    5  A    between atoms: C6_6  and  N1_7
REMARK    6  A    between atoms: C10_13  and  N3_14
REMARK    7  A    between atoms: N3_14  and  C11_16
REMARK    8  A    between atoms: C11_16  and  C12_17
REMARK    9  A    between atoms: C12_17  and  O1_18
REMARK   10  A    between atoms: N5_27  and  C18_28
REMARK   11  A    between atoms: C18_28  and  C19_29
REMARK   12  A    between atoms: C19_29  and  C20_30
REMARK   13  A    between atoms: C20_30  and  N6_31
REMARK       I    between atoms: N6_31  and  C21_33
REMARK   14  A    between atoms: C21_33  and  O3_35
REMARK   15  A    between atoms: O3_35  and  C22_36
ROOT
HETATM    1  C4  UNL     1      17.493  32.814  15.594  1.00  0.00     0.002 C
ENDROOT
BRANCH   1   2
HETATM    2  C3  UNL     1      16.106  33.280  15.889  1.00  0.00     0.009 C
BRANCH   2   3
HETATM    3  C2  UNL     1      16.106  34.446  16.815  1.00  0.00    -0.041 C
HETATM    4  C1  UNL     1      14.824  34.408  17.615  1.00  0.00     0.015 C
HETATM    5  C16 UNL     1      17.317  34.270  17.738  1.00  0.00     0.039 C
HETATM    6  C17 UNL     1      17.312  35.326  18.778  1.00  0.00     0.273 C
HETATM    7  N5  UNL     1      17.314  36.694  18.255  1.00  0.00     0.088 N
HETATM    8  C26 UNL     1      16.267  36.842  17.259  1.00  0.00     0.273 C
HETATM    9  C27 UNL     1      16.258  35.788  16.198  1.00  0.00     0.039 C
BRANCH   7  10
HETATM   10  C18 UNL     1      18.629  37.040  17.754  1.00  0.00     0.274 C
BRANCH  10  11
HETATM   11  C19 UNL     1      18.601  38.514  17.345  1.00  0.00     0.050 C
BRANCH  11  12
HETATM   12  C20 UNL     1      20.026  38.924  16.946  1.00  0.00     0.127 C
BRANCH  12  13
HETATM   13  N6  UNL     1      20.878  37.812  16.733  1.00  0.00    -0.337 N
HETATM   14  C21 UNL     1      21.819  37.384  17.688  1.00  0.00     0.361 C
HETATM   15  O2  UNL     1      21.950  37.987  18.807  1.00  0.00    -0.238 OA
ATOM     16  H6  UNL     1      20.808  37.302  15.853  1.00  0.00     0.164 HD
BRANCH  14  17
HETATM   17  O3  UNL     1      22.639  36.300  17.452  1.00  0.00    -0.294 OA
BRANCH  17  18
HETATM   18  C22 UNL     1      22.106  35.013  17.421  1.00  0.00     0.061 C
HETATM   19  C23 UNL     1      23.282  34.035  17.424  1.00  0.00     0.046 C
HETATM   20  C24 UNL     1      21.269  34.735  18.642  1.00  0.00     0.046 C
HETATM   21  C25 UNL     1      21.292  34.717  16.174  1.00  0.00     0.046 C
ENDBRANCH  17  18
ENDBRANCH  14  17
ENDBRANCH  12  13
ENDBRANCH  11  12
ENDBRANCH  10  11
ENDBRANCH   7  10
ENDBRANCH   2   3
ENDBRANCH   1   2
BRANCH   1  22
HETATM   22  C5  UNL     1      17.471  31.282  15.500  1.00  0.00     0.030 C
BRANCH  22  23
HETATM   23  C6  UNL     1      18.706  30.767  16.160  1.00  0.00     0.273 C
BRANCH  23  24
HETATM   24  N1  UNL     1      19.726  30.381  15.220  1.00  0.00     0.094 N
HETATM   25  C7  UNL     1      20.778  31.325  15.057  1.00  0.00     0.279 C
HETATM   26  C8  UNL     1      22.057  30.694  14.626  1.00  0.00     0.089 C
HETATM   27  C9  UNL     1      21.871  29.490  13.765  1.00  0.00     0.037 A
HETATM   28  N2  UNL     1      22.594  29.253  12.658  1.00  0.00    -0.343 N
HETATM   29  C14 UNL     1      20.881  28.610  14.189  1.00  0.00     0.060 A
HETATM   30  C10 UNL     1      22.383  28.132  11.905  1.00  0.00     0.117 A
ATOM     31  H2  UNL     1      23.312  29.919  12.375  1.00  0.00     0.167 HD
HETATM   32  C13 UNL     1      21.399  27.279  12.347  1.00  0.00     0.136 A
HETATM   33  N4  UNL     1      20.662  27.520  13.473  1.00  0.00    -0.363 N
ATOM     34  H4  UNL     1      19.942  26.857  13.760  1.00  0.00     0.165 HD
HETATM   35  C15 UNL     1      20.165  29.009  15.430  1.00  0.00     0.331 C
BRANCH  30  36
HETATM   36  N3  UNL     1      23.101  27.958  10.859  1.00  0.00    -0.373 N
ATOM     37  H3  UNL     1      23.013  28.660  10.123  1.00  0.00     0.161 HD
BRANCH  36  38
HETATM   38  C11 UNL     1      24.004  26.893  10.616  1.00  0.00     0.147 C
BRANCH  38  39
HETATM   39  C12 UNL     1      25.086  26.889  11.680  1.00  0.00     0.183 C
BRANCH  39  40
HETATM   40  O1  UNL     1      25.019  25.668  12.361  1.00  0.00    -0.399 OA
ATOM     41  H1  UNL     1      25.280  25.819  13.261  1.00  0.00     0.209 HD
ENDBRANCH  39  40
ENDBRANCH  38  39
ENDBRANCH  36  38
ENDBRANCH  30  36
ENDBRANCH  23  24
ENDBRANCH  22  23
ENDBRANCH   1  22
TORSDOF 15
ENDMDL