MODEL 4
REMARK VINA RESULT: -7.027135662      4.137      9.072
REMARK  15 active torsions:
REMARK  status: ('A' for Active; 'I' for Inactive)
REMARK    1  A    between atoms: C2_2  and  C3_3
REMARK    2  A    between atoms: C3_3  and  S1_4
REMARK    3  A    between atoms: S1_4  and  C4_5
REMARK    4  A    between atoms: C4_5  and  C5_6
REMARK    5  A    between atoms: C5_6  and  O1_7
REMARK    6  A    between atoms: C5_6  and  N1_9
REMARK    7  A    between atoms: C5_6  and  C22_35
REMARK    8  A    between atoms: N1_9  and  C6_10
REMARK    9  A    between atoms: N1_9  and  C8_14
REMARK   10  A    between atoms: C6_10  and  C7_11
REMARK   11  A    between atoms: C8_14  and  C9_15
REMARK   12  A    between atoms: C8_14  and  C11_19
REMARK   13  A    between atoms: C9_15  and  C10_16
REMARK       I    between atoms: C11_19  and  N2_21
REMARK   14  A    between atoms: N2_21  and  C12_23
REMARK   15  A    between atoms: C19_30  and  O7_31
ROOT
HETATM    1  C8  UNL     1      21.333  30.321  12.987  1.00  0.00     0.112 C
ENDROOT
BRANCH   1   2
HETATM    2  N1  UNL     1      21.173  28.910  13.048  1.00  0.00    -0.311 N
BRANCH   2   3
HETATM    3  C5  UNL     1      21.676  28.221  11.938  1.00  0.00     0.153 C
BRANCH   3   4
HETATM    4  C4  UNL     1      20.829  26.962  11.636  1.00  0.00     0.136 C
BRANCH   4   5
HETATM    5  S1  UNL     1      19.117  27.006  11.739  1.00  0.00    -0.161 SA
BRANCH   5   6
HETATM    6  C3  UNL     1      18.093  27.495  10.403  1.00  0.00     0.100 C
BRANCH   6   7
HETATM    7  C2  UNL     1      17.015  28.397  10.874  1.00  0.00    -0.027 C
HETATM    8  C1  UNL     1      17.087  29.059  11.989  1.00  0.00     0.007 C
ENDBRANCH   6   7
ENDBRANCH   5   6
ENDBRANCH   4   5
ENDBRANCH   3   4
BRANCH   3   9
HETATM    9  O1  UNL     1      21.349  29.014  10.814  1.00  0.00    -0.369 OA
ATOM     10  H1  UNL     1      22.210  29.346  10.589  1.00  0.00     0.212 HD
ENDBRANCH   3   9
BRANCH   3  11
HETATM   11  C22 UNL     1      23.083  27.843  11.750  1.00  0.00     0.000 C
HETATM   12  C23 UNL     1      23.040  26.295  11.524  1.00  0.00     0.019 C
HETATM   13  C24 UNL     1      24.014  27.937  12.925  1.00  0.00     0.019 C
HETATM   14  C25 UNL     1      23.758  28.326  10.481  1.00  0.00     0.019 C
ENDBRANCH   3  11
ENDBRANCH   2   3
BRANCH   2  15
HETATM   15  C6  UNL     1      21.155  28.289  14.306  1.00  0.00     0.178 C
BRANCH  15  16
HETATM   16  C7  UNL     1      20.050  28.473  15.248  1.00  0.00     0.215 C
HETATM   17  O2  UNL     1      20.090  29.085  16.354  1.00  0.00    -0.643 OA
HETATM   18  O3  UNL     1      18.759  27.949  14.993  1.00  0.00    -0.643 OA
ENDBRANCH  15  16
ENDBRANCH   2  15
ENDBRANCH   1   2
BRANCH   1  19
HETATM   19  C9  UNL     1      22.541  31.063  13.294  1.00  0.00     0.119 C
BRANCH  19  20
HETATM   20  C10 UNL     1      22.772  31.733  14.563  1.00  0.00     0.201 C
HETATM   21  O4  UNL     1      23.789  32.488  14.680  1.00  0.00    -0.644 OA
HETATM   22  O5  UNL     1      21.996  31.661  15.717  1.00  0.00    -0.644 OA
ENDBRANCH  19  20
ENDBRANCH   1  19
BRANCH   1  23
HETATM   23  C11 UNL     1      20.056  31.102  13.121  1.00  0.00     0.269 C
HETATM   24  O6  UNL     1      19.658  31.701  12.116  1.00  0.00    -0.266 OA
HETATM   25  N2  UNL     1      19.318  31.177  14.303  1.00  0.00    -0.350 N
ATOM     26  H2  UNL     1      19.640  30.681  15.134  1.00  0.00     0.163 HD
BRANCH  25  27
HETATM   27  C12 UNL     1      18.079  31.969  14.359  1.00  0.00     0.093 C
HETATM   28  C13 UNL     1      18.369  33.423  14.438  1.00  0.00     0.012 C
HETATM   29  C14 UNL     1      17.069  34.211  14.368  1.00  0.00     0.011 C
HETATM   30  C21 UNL     1      19.094  33.747  15.701  1.00  0.00     0.044 C
HETATM   31  C15 UNL     1      16.226  33.802  15.544  1.00  0.00    -0.011 C
HETATM   32  C16 UNL     1      15.917  32.343  15.423  1.00  0.00     0.011 C
HETATM   33  C20 UNL     1      16.927  34.158  16.816  1.00  0.00     0.042 C
HETATM   34  C17 UNL     1      17.215  31.553  15.501  1.00  0.00     0.012 C
HETATM   35  C18 UNL     1      17.839  31.895  16.835  1.00  0.00     0.044 C
HETATM   36  C19 UNL     1      18.219  33.358  16.868  1.00  0.00     0.059 C
BRANCH  36  37
HETATM   37  O7  UNL     1      18.932  33.562  18.031  1.00  0.00    -0.390 OA
ATOM     38  H7  UNL     1      19.274  34.447  17.993  1.00  0.00     0.210 HD
ENDBRANCH  36  37
ENDBRANCH  25  27
ENDBRANCH   1  23
TORSDOF 15
ENDMDL