MODEL 4
REMARK VINA RESULT: -9.539973751      2.217      6.024
REMARK  12 active torsions:
REMARK  status: ('A' for Active; 'I' for Inactive)
REMARK    1  A    between atoms: C5_7  and  N2_8
REMARK    2  A    between atoms: N2_8  and  C6_10
REMARK    3  A    between atoms: C6_10  and  O1_11
REMARK    4  A    between atoms: C7_13  and  N3_14
REMARK    5  A    between atoms: N3_14  and  C8_15
REMARK       I    between atoms: N3_14  and  C14_25
REMARK    6  A    between atoms: C8_15  and  C9_16
REMARK    7  A    between atoms: C14_25  and  C15_27
REMARK    8  A    between atoms: C15_27  and  C16_28
REMARK    9  A    between atoms: C16_28  and  C17_29
REMARK   10  A    between atoms: C17_29  and  C18_30
REMARK   11  A    between atoms: C18_30  and  C19_31
REMARK   12  A    between atoms: C19_31  and  N6_32
ROOT
HETATM    1  N3  UNL     1      19.195  32.469  15.646  1.00  0.00    -0.299 N
HETATM    2  C14 UNL     1      17.896  32.714  15.069  1.00  0.00     0.227 C
HETATM    3  O2  UNL     1      17.809  33.700  14.296  1.00  0.00    -0.273 OA
ENDROOT
BRANCH   1   4
HETATM    4  C7  UNL     1      19.337  31.349  16.507  1.00  0.00     0.155 C
HETATM    5  C6  UNL     1      19.895  30.083  16.142  1.00  0.00     0.158 C
BRANCH   5   6
HETATM    6  N2  UNL     1      20.350  29.559  14.926  1.00  0.00    -0.322 N
ATOM      7  H2  UNL     1      21.264  29.850  14.579  1.00  0.00     0.169 HD
BRANCH   6   8
HETATM    8  C5  UNL     1      19.582  28.628  14.148  1.00  0.00     0.113 A
HETATM    9  N1  UNL     1      18.386  28.164  14.578  1.00  0.00    -0.352 N
HETATM   10  C4  UNL     1      17.654  27.294  13.860  1.00  0.00     0.090 A
ATOM     11  H1  UNL     1      18.028  28.487  15.477  1.00  0.00     0.166 HD
HETATM   12  C3  UNL     1      18.097  26.830  12.640  1.00  0.00     0.024 A
HETATM   13  C2  UNL     1      19.310  27.290  12.183  1.00  0.00    -0.051 A
HETATM   14  C1  UNL     1      19.825  26.806  10.857  1.00  0.00     0.049 C
HETATM   15  C24 UNL     1      20.053  28.193  12.943  1.00  0.00    -0.012 A
HETATM   16  C25 UNL     1      21.363  28.640  12.365  1.00  0.00     0.052 C
ENDBRANCH   6   8
ENDBRANCH   5   6
BRANCH   5  17
HETATM   17  O1  UNL     1      20.003  29.228  17.138  1.00  0.00    -0.345 OA
ATOM     18  H1  UNL     1      19.352  29.367  17.815  1.00  0.00     0.219 HD
ENDBRANCH   5  17
ENDBRANCH   1   4
BRANCH   1  19
HETATM   19  C8  UNL     1      20.197  33.451  15.543  1.00  0.00     0.115 C
BRANCH  19  20
HETATM   20  C9  UNL     1      21.185  33.835  16.485  1.00  0.00     0.027 A
HETATM   21  C10 UNL     1      22.492  33.244  16.386  1.00  0.00     0.035 A
HETATM   22  C11 UNL     1      22.953  32.285  15.376  1.00  0.00     0.070 C
HETATM   23  N4  UNL     1      23.231  33.715  17.378  1.00  0.00    -0.304 N
HETATM   24  N5  UNL     1      22.555  34.554  18.123  1.00  0.00    -0.304 N
ATOM     25  H4  UNL     1      24.205  33.458  17.542  1.00  0.00     0.186 HD
HETATM   26  C12 UNL     1      21.295  34.621  17.565  1.00  0.00     0.035 A
ATOM     27  H5  UNL     1      22.891  35.055  18.946  1.00  0.00     0.186 HD
HETATM   28  C13 UNL     1      20.269  35.475  18.195  1.00  0.00     0.070 C
ENDBRANCH  19  20
ENDBRANCH   1  19
BRANCH   2  29
HETATM   29  C15 UNL     1      16.736  31.865  15.367  1.00  0.00     0.103 C
BRANCH  29  30
HETATM   30  C16 UNL     1      15.615  32.535  16.078  1.00  0.00     0.009 C
BRANCH  30  31
HETATM   31  C17 UNL     1      15.982  33.506  17.144  1.00  0.00     0.002 C
BRANCH  31  32
HETATM   32  C18 UNL     1      15.509  34.902  16.830  1.00  0.00     0.020 C
BRANCH  32  33
HETATM   33  C19 UNL     1      16.598  35.934  16.963  1.00  0.00     0.133 C
BRANCH  33  34
HETATM   34  N6  UNL     1      16.108  37.082  17.711  1.00  0.00    -0.310 N
HETATM   35  C20 UNL     1      15.235  36.911  18.725  1.00  0.00     0.101 A
HETATM   36  C21 UNL     1      14.763  37.987  19.442  1.00  0.00     0.092 A
HETATM   37  C22 UNL     1      15.180  39.284  19.134  1.00  0.00     0.250 A
HETATM   38  O3  UNL     1      14.787  40.287  19.748  1.00  0.00    -0.268 OA
HETATM   39  N7  UNL     1      16.058  39.408  18.108  1.00  0.00    -0.275 N
HETATM   40  C23 UNL     1      16.494  38.331  17.433  1.00  0.00     0.329 A
ATOM     41  H7  UNL     1      16.393  40.335  17.845  1.00  0.00     0.173 HD
HETATM   42  O4  UNL     1      17.316  38.495  16.478  1.00  0.00    -0.246 OA
ENDBRANCH  33  34
ENDBRANCH  32  33
ENDBRANCH  31  32
ENDBRANCH  30  31
ENDBRANCH  29  30
ENDBRANCH   2  29
TORSDOF 12
ENDMDL