MODEL 5
REMARK VINA RESULT: -8.470233605      1.838      4.296
REMARK  13 active torsions:
REMARK  status: ('A' for Active; 'I' for Inactive)
REMARK    1  A    between atoms: C2_2  and  N1_3
REMARK    2  A    between atoms: N1_3  and  C3_5
REMARK    3  A    between atoms: C4_8  and  N3_9
REMARK    4  A    between atoms: C7_14  and  N5_15
REMARK    5  A    between atoms: N5_15  and  C8_17
REMARK    6  A    between atoms: C13_22  and  O1_23
REMARK    7  A    between atoms: O1_23  and  C14_24
REMARK    8  A    between atoms: C14_24  and  C15_25
REMARK    9  A    between atoms: C15_25  and  C16_26
REMARK   10  A    between atoms: C16_26  and  C17_27
REMARK   11  A    between atoms: C17_27  and  C18_28
REMARK   12  A    between atoms: C18_28  and  N6_29
REMARK   13  A    between atoms: N7_32  and  C21_33
ROOT
HETATM    1  C8  UNL     1      20.311  30.970  16.608  1.00  0.00     0.083 A
HETATM    2  C9  UNL     1      21.523  31.465  17.026  1.00  0.00     0.040 A
HETATM    3  C10 UNL     1      21.686  32.799  17.221  1.00  0.00    -0.046 A
HETATM    4  C11 UNL     1      20.629  33.649  16.997  1.00  0.00    -0.024 A
HETATM    5  C12 UNL     1      19.399  33.128  16.572  1.00  0.00     0.048 A
HETATM    6  C13 UNL     1      19.191  31.789  16.362  1.00  0.00     0.096 A
HETATM    7  C25 UNL     1      20.711  35.125  17.180  1.00  0.00     0.271 C
HETATM    8  N8  UNL     1      22.014  35.564  17.566  1.00  0.00    -0.071 N
ATOM      9  H81 UNL     1      22.093  35.620  18.582  1.00  0.00     0.277 HD
ATOM     10  H82 UNL     1      22.149  36.549  17.334  1.00  0.00     0.277 HD
HETATM   11  C26 UNL     1      23.076  34.751  17.009  1.00  0.00     0.237 C
HETATM   12  C27 UNL     1      22.985  33.397  17.682  1.00  0.00     0.066 C
ENDROOT
BRANCH   1  13
HETATM   13  N5  UNL     1      20.115  29.572  16.387  1.00  0.00    -0.188 N
ATOM     14  H5  UNL     1      19.781  28.963  17.133  1.00  0.00     0.184 HD
BRANCH  13  15
HETATM   15  C7  UNL     1      20.372  29.106  15.219  1.00  0.00     0.712 A
HETATM   16  N4  UNL     1      19.363  28.719  14.429  1.00  0.00    -0.021 N
HETATM   17  C4  UNL     1      19.549  28.222  13.208  1.00  0.00     0.708 A
ATOM     18  H4  UNL     1      18.409  28.809  14.778  1.00  0.00     0.203 HD
HETATM   19  N2  UNL     1      20.801  28.108  12.761  1.00  0.00    -0.021 N
HETATM   20  C3  UNL     1      21.854  28.481  13.508  1.00  0.00     0.707 A
ATOM     21  H2  UNL     1      20.963  27.730  11.828  1.00  0.00     0.203 HD
HETATM   22  N9  UNL     1      21.624  28.982  14.745  1.00  0.00    -0.021 N
ATOM     23  H9  UNL     1      22.412  29.270  15.325  1.00  0.00     0.203 HD
BRANCH  17  24
HETATM   24  N3  UNL     1      18.393  27.849  12.473  1.00  0.00    -0.225 N
HETATM   25  C5  UNL     1      18.226  26.450  12.143  1.00  0.00     0.168 C
HETATM   26  C6  UNL     1      17.450  28.868  12.093  1.00  0.00     0.168 C
ENDBRANCH  17  24
BRANCH  20  27
HETATM   27  N1  UNL     1      23.037  28.342  13.010  1.00  0.00    -0.225 N
ATOM     28  H1  UNL     1      23.788  28.971  13.297  1.00  0.00     0.177 HD
BRANCH  27  29
HETATM   29  C2  UNL     1      23.303  27.290  12.042  1.00  0.00     0.133 C
HETATM   30  C1  UNL     1      24.775  26.974  12.069  1.00  0.00     0.027 C
ENDBRANCH  27  29
ENDBRANCH  20  27
ENDBRANCH  13  15
ENDBRANCH   1  13
BRANCH   6  31
HETATM   31  O1  UNL     1      18.058  31.179  15.963  1.00  0.00    -0.349 OA
BRANCH  31  32
HETATM   32  C14 UNL     1      17.029  31.775  15.205  1.00  0.00     0.175 C
BRANCH  32  33
HETATM   33  C15 UNL     1      15.840  32.002  16.057  1.00  0.00     0.027 C
BRANCH  33  34
HETATM   34  C16 UNL     1      15.573  33.385  16.457  1.00  0.00     0.004 C
BRANCH  34  35
HETATM   35  C17 UNL     1      15.573  33.875  17.831  1.00  0.00     0.030 C
BRANCH  35  36
HETATM   36  C18 UNL     1      14.696  35.032  18.127  1.00  0.00     0.272 C
BRANCH  36  37
HETATM   37  N6  UNL     1      15.321  36.064  18.920  1.00  0.00     0.091 N
HETATM   38  C19 UNL     1      14.426  37.223  18.941  1.00  0.00     0.302 C
HETATM   39  C20 UNL     1      15.235  38.504  19.090  1.00  0.00     0.302 C
HETATM   40  N7  UNL     1      16.017  38.723  17.881  1.00  0.00     0.091 N
HETATM   41  C23 UNL     1      16.464  37.457  17.339  1.00  0.00     0.302 C
HETATM   42  C24 UNL     1      16.616  36.420  18.431  1.00  0.00     0.302 C
BRANCH  40  43
HETATM   43  C21 UNL     1      17.078  39.670  18.061  1.00  0.00     0.268 C
HETATM   44  C22 UNL     1      17.179  40.470  16.763  1.00  0.00     0.037 C
ENDBRANCH  40  43
ENDBRANCH  36  37
ENDBRANCH  35  36
ENDBRANCH  34  35
ENDBRANCH  33  34
ENDBRANCH  32  33
ENDBRANCH  31  32
ENDBRANCH   6  31
TORSDOF 13
ENDMDL