MODEL 5
REMARK VINA RESULT: -7.605733408      1.120      1.217
REMARK  12 active torsions:
REMARK  status: ('A' for Active; 'I' for Inactive)
REMARK    1  A    between atoms: C2_2  and  C3_3
REMARK    2  A    between atoms: C3_3  and  C4_4
REMARK    3  A    between atoms: C4_4  and  C5_6
REMARK    4  A    between atoms: C6_9  and  C7_10
REMARK       I    between atoms: C7_10  and  N2_12
REMARK    5  A    between atoms: C8_14  and  C9_15
REMARK    6  A    between atoms: C8_14  and  C13_21
REMARK    7  A    between atoms: C9_15  and  C10_16
REMARK    8  A    between atoms: C10_16  and  O4_18
REMARK    9  A    between atoms: O4_18  and  C11_19
REMARK   10  A    between atoms: C21_33  and  C22_34
REMARK   11  A    between atoms: C22_34  and  C23_35
REMARK   12  A    between atoms: C23_35  and  C24_36
ROOT
HETATM    1  C7  UNL     1      17.328  33.051  16.740  1.00  0.00     0.272 C
HETATM    2  O2  UNL     1      16.081  33.112  16.708  1.00  0.00    -0.266 OA
HETATM    3  N2  UNL     1      18.147  33.658  17.653  1.00  0.00    -0.328 N
ATOM      4  H2  UNL     1      19.039  33.175  17.760  1.00  0.00     0.168 HD
HETATM    5  C8  UNL     1      18.055  34.684  18.401  1.00  0.00     0.006 C
ENDROOT
BRANCH   1   6
HETATM    6  C6  UNL     1      17.978  32.236  15.676  1.00  0.00     0.108 A
HETATM    7  N1  UNL     1      17.500  31.102  15.163  1.00  0.00    -0.348 N
HETATM    8  C5  UNL     1      18.350  30.594  14.201  1.00  0.00     0.086 A
ATOM      9  H1  UNL     1      16.622  30.668  15.443  1.00  0.00     0.166 HD
HETATM   10  C21 UNL     1      19.417  31.447  14.097  1.00  0.00    -0.016 A
HETATM   11  C19 UNL     1      19.165  32.471  15.036  1.00  0.00    -0.021 A
HETATM   12  C20 UNL     1      20.060  33.607  15.342  1.00  0.00     0.051 C
BRANCH   8  13
HETATM   13  C4  UNL     1      18.031  29.339  13.567  1.00  0.00     0.176 C
HETATM   14  O1  UNL     1      18.225  28.262  14.267  1.00  0.00    -0.291 OA
BRANCH  13  15
HETATM   15  C3  UNL     1      17.519  29.154  12.222  1.00  0.00     0.085 C
BRANCH  15  16
HETATM   16  C2  UNL     1      18.369  28.124  11.442  1.00  0.00     0.003 C
HETATM   17  C1  UNL     1      17.565  27.470  10.369  1.00  0.00     0.005 C
ENDBRANCH  15  16
ENDBRANCH  13  15
ENDBRANCH   8  13
BRANCH  10  18
HETATM   18  C22 UNL     1      20.606  31.402  13.267  1.00  0.00     0.074 C
BRANCH  18  19
HETATM   19  C23 UNL     1      21.769  30.623  13.678  1.00  0.00     0.048 C
BRANCH  19  20
HETATM   20  C24 UNL     1      21.809  29.179  13.566  1.00  0.00     0.251 C
HETATM   21  N4  UNL     1      22.208  28.627  12.281  1.00  0.00    -0.058 NA
HETATM   22  O6  UNL     1      21.541  28.382  14.455  1.00  0.00    -0.272 OA
ENDBRANCH  19  20
ENDBRANCH  18  19
ENDBRANCH  10  18
ENDBRANCH   1   6
BRANCH   5  23
HETATM   23  C9  UNL     1      19.239  34.974  19.264  1.00  0.00     0.164 C
BRANCH  23  24
HETATM   24  C10 UNL     1      20.380  35.408  18.423  1.00  0.00     0.264 C
HETATM   25  O3  UNL     1      20.281  36.177  17.427  1.00  0.00    -0.265 OA
BRANCH  24  26
HETATM   26  O4  UNL     1      21.681  34.978  18.691  1.00  0.00    -0.322 OA
BRANCH  26  27
HETATM   27  C11 UNL     1      22.730  35.165  17.780  1.00  0.00     0.174 C
HETATM   28  C12 UNL     1      23.470  33.937  17.404  1.00  0.00     0.034 C
ENDBRANCH  26  27
ENDBRANCH  24  26
ENDBRANCH  23  24
ENDBRANCH   5  23
BRANCH   5  29
HETATM   29  C13 UNL     1      16.838  35.498  18.367  1.00  0.00     0.071 A
HETATM   30  C14 UNL     1      16.729  36.552  17.401  1.00  0.00     0.109 A
HETATM   31  N3  UNL     1      17.733  37.355  16.792  1.00  0.00    -0.355 N
HETATM   32  C18 UNL     1      16.880  36.850  18.910  1.00  0.00     0.082 A
HETATM   33  C15 UNL     1      17.716  38.800  16.908  1.00  0.00     0.218 C
ATOM     34  H3  UNL     1      18.480  36.904  16.264  1.00  0.00     0.162 HD
HETATM   35  O5  UNL     1      18.521  39.411  16.159  1.00  0.00    -0.274 OA
HETATM   36  C16 UNL     1      16.905  39.702  17.764  1.00  0.00     0.113 C
HETATM   37  C17 UNL     1      15.489  39.186  17.991  1.00  0.00     0.083 C
HETATM   38  S1  UNL     1      15.477  37.891  19.303  1.00  0.00    -0.161 SA
ENDBRANCH   5  29
TORSDOF 12
ENDMDL