MODEL 1
REMARK VINA RESULT: -8.376052876      0.000      0.000
REMARK  12 active torsions:
REMARK  status: ('A' for Active; 'I' for Inactive)
REMARK    1  A    between atoms: C2_2  and  O1_3
REMARK    2  A    between atoms: O1_3  and  C3_4
REMARK    3  A    between atoms: C3_4  and  C4_6
REMARK    4  A    between atoms: C4_6  and  S1_7
REMARK    5  A    between atoms: S1_7  and  C5_8
REMARK    6  A    between atoms: C7_10  and  C8_11
REMARK    7  A    between atoms: C8_11  and  N1_12
REMARK    8  A    between atoms: N1_12  and  C9_14
REMARK    9  A    between atoms: C17_22  and  O3_23
REMARK   10  A    between atoms: C19_25  and  C20_26
REMARK       I    between atoms: C20_26  and  N2_28
REMARK   11  A    between atoms: N2_28  and  C21_30
REMARK   12  A    between atoms: C21_30  and  C22_31
REMARK       I    between atoms: C22_31  and  N3_33
ROOT
HETATM    1  C5  UNL     1      21.744  31.850  14.946  1.00  0.00     0.049 C
HETATM    2  C6  UNL     1      20.763  31.247  15.875  1.00  0.00     0.024 C
HETATM    3  C7  UNL     1      19.900  30.174  15.339  1.00  0.00     0.034 C
HETATM    4  C17 UNL     1      20.009  29.845  13.884  1.00  0.00     0.139 C
HETATM    5  C19 UNL     1      21.207  30.336  13.161  1.00  0.00     0.108 C
HETATM    6  C26 UNL     1      22.354  30.754  14.087  1.00  0.00     0.032 C
ENDROOT
BRANCH   5   7
HETATM    7  C20 UNL     1      21.837  29.286  12.279  1.00  0.00     0.225 C
HETATM    8  O4  UNL     1      21.505  29.274  11.089  1.00  0.00    -0.273 OA
HETATM    9  N2  UNL     1      22.762  28.361  12.797  1.00  0.00    -0.343 N
ATOM     10  H2  UNL     1      22.995  28.418  13.789  1.00  0.00     0.163 HD
BRANCH   9  11
HETATM   11  C21 UNL     1      23.395  27.346  12.017  1.00  0.00     0.114 A
HETATM   12  C24 UNL     1      24.839  27.021  12.455  1.00  0.00     0.044 A
HETATM   13  C25 UNL     1      24.536  27.601  11.106  1.00  0.00     0.044 A
BRANCH  11  14
HETATM   14  C22 UNL     1      22.604  26.101  11.712  1.00  0.00     0.245 C
HETATM   15  O5  UNL     1      23.242  25.050  11.376  1.00  0.00    -0.271 OA
HETATM   16  N3  UNL     1      21.207  26.043  11.780  1.00  0.00    -0.363 N
HETATM   17  C23 UNL     1      20.524  24.773  11.464  1.00  0.00     0.149 C
ATOM     18  H3  UNL     1      20.668  26.868  12.045  1.00  0.00     0.162 HD
ENDBRANCH  11  14
ENDBRANCH   9  11
ENDBRANCH   5   7
BRANCH   4  19
HETATM   19  O3  UNL     1      18.897  30.359  13.171  1.00  0.00    -0.389 OA
HETATM   20  C18 UNL     1      18.213  29.420  12.455  1.00  0.00     0.202 C
ENDBRANCH   4  19
BRANCH   3  21
HETATM   21  C8  UNL     1      18.437  30.546  15.634  1.00  0.00     0.121 C
BRANCH  21  22
HETATM   22  N1  UNL     1      18.201  31.934  15.599  1.00  0.00    -0.417 N
ATOM     23  H1  UNL     1      18.633  32.525  14.890  1.00  0.00     0.153 HD
BRANCH  22  24
HETATM   24  C9  UNL     1      17.338  32.480  16.588  1.00  0.00     0.076 C
HETATM   25  C10 UNL     1      15.983  32.891  16.120  1.00  0.00     0.025 C
HETATM   26  C11 UNL     1      15.922  34.379  15.789  1.00  0.00     0.011 C
HETATM   27  C12 UNL     1      15.992  35.206  17.063  1.00  0.00    -0.048 C
HETATM   28  C13 UNL     1      16.598  36.558  16.706  1.00  0.00     0.015 C
HETATM   29  C14 UNL     1      14.634  35.405  17.683  1.00  0.00     0.015 C
HETATM   30  C15 UNL     1      16.886  34.444  18.017  1.00  0.00     0.011 C
HETATM   31  C16 UNL     1      17.971  33.672  17.283  1.00  0.00     0.025 C
ENDBRANCH  22  24
ENDBRANCH  21  22
ENDBRANCH   3  21
BRANCH   1  32
HETATM   32  S1  UNL     1      23.045  32.769  15.765  1.00  0.00    -0.154 SA
BRANCH  32  33
HETATM   33  C4  UNL     1      22.820  33.120  17.484  1.00  0.00     0.185 C
BRANCH  33  34
HETATM   34  C3  UNL     1      22.507  34.515  17.853  1.00  0.00     0.268 C
HETATM   35  O2  UNL     1      23.031  35.110  18.827  1.00  0.00    -0.264 OA
BRANCH  34  36
HETATM   36  O1  UNL     1      21.580  35.271  17.114  1.00  0.00    -0.321 OA
BRANCH  36  37
HETATM   37  C2  UNL     1      21.411  36.648  17.333  1.00  0.00     0.174 C
HETATM   38  C1  UNL     1      20.075  36.862  18.029  1.00  0.00     0.034 C
ENDBRANCH  36  37
ENDBRANCH  34  36
ENDBRANCH  33  34
ENDBRANCH  32  33
ENDBRANCH   1  32
TORSDOF 12
ENDMDL