MODEL 2
REMARK VINA RESULT: -8.176510899      0.800      1.408
REMARK  12 active torsions:
REMARK  status: ('A' for Active; 'I' for Inactive)
REMARK    1  A    between atoms: C5_7  and  C6_8
REMARK    2  A    between atoms: C12_16  and  O3_17
REMARK    3  A    between atoms: C13_19  and  O4_20
REMARK    4  A    between atoms: O4_20  and  C14_21
REMARK    5  A    between atoms: C14_21  and  C15_22
REMARK    6  A    between atoms: C15_22  and  C16_23
REMARK    7  A    between atoms: C16_23  and  C17_24
REMARK    8  A    between atoms: C18_25  and  C19_26
REMARK    9  A    between atoms: C19_26  and  C20_27
REMARK   10  A    between atoms: C20_27  and  C21_28
REMARK   11  A    between atoms: C23_30  and  O5_31
REMARK       I    between atoms: N2_34  and  C25_35
REMARK   12  A    between atoms: C25_35  and  C26_37
ROOT
HETATM    1  C6  UNL     1      18.694  31.661  15.502  1.00  0.00     0.131 C
HETATM    2  O1  UNL     1      17.678  30.775  15.083  1.00  0.00    -0.352 OA
HETATM    3  C7  UNL     1      18.464  30.219  14.093  1.00  0.00     0.155 C
HETATM    4  C8  UNL     1      17.883  30.059  12.729  1.00  0.00     0.058 C
HETATM    5  C9  UNL     1      19.045  28.928  14.552  1.00  0.00     0.171 C
HETATM    6  O2  UNL     1      18.578  27.838  14.290  1.00  0.00    -0.294 OA
HETATM    7  C10 UNL     1      20.248  29.310  15.346  1.00  0.00     0.093 C
HETATM    8  C11 UNL     1      19.788  29.753  16.698  1.00  0.00     0.050 C
HETATM    9  C12 UNL     1      19.403  31.213  16.757  1.00  0.00     0.157 C
HETATM   10  C13 UNL     1      20.728  30.503  14.547  1.00  0.00     0.173 C
HETATM   11  C23 UNL     1      19.475  31.296  14.303  1.00  0.00     0.156 C
ENDROOT
BRANCH   1  12
HETATM   12  C5  UNL     1      18.234  33.085  15.635  1.00  0.00     0.057 C
HETATM   13  C4  UNL     1      17.641  33.683  14.400  1.00  0.00     0.037 C
HETATM   14  C3  UNL     1      16.460  34.621  14.706  1.00  0.00     0.100 C
HETATM   15  N1  UNL     1      15.396  33.820  15.344  1.00  0.00    -0.386 N
HETATM   16  C28 UNL     1      16.932  35.579  15.778  1.00  0.00     0.151 C
HETATM   17  C2  UNL     1      15.897  33.007  16.398  1.00  0.00     0.019 C
ATOM     18  H1  UNL     1      14.416  33.847  15.062  1.00  0.00     0.160 HD
HETATM   19  C1  UNL     1      15.236  32.054  17.014  1.00  0.00     0.040 C
HETATM   20  C24 UNL     1      17.307  33.333  16.782  1.00  0.00     0.143 C
HETATM   21  N2  UNL     1      17.264  34.797  16.968  1.00  0.00    -0.340 N
HETATM   22  C25 UNL     1      17.503  35.411  18.213  1.00  0.00     0.220 C
HETATM   23  O6  UNL     1      17.751  34.708  19.213  1.00  0.00    -0.273 OA
BRANCH  22  24
HETATM   24  C26 UNL     1      17.450  36.878  18.296  1.00  0.00     0.098 C
HETATM   25  C27 UNL     1      16.126  37.353  18.912  1.00  0.00     0.014 C
ENDBRANCH  22  24
ENDBRANCH   1  12
BRANCH   9  26
HETATM   26  O3  UNL     1      20.495  32.061  16.945  1.00  0.00    -0.392 OA
ATOM     27  H3  UNL     1      21.240  31.518  17.172  1.00  0.00     0.210 HD
ENDBRANCH   9  26
BRANCH  11  28
HETATM   28  O5  UNL     1      19.588  32.274  13.322  1.00  0.00    -0.380 OA
ATOM     29  H5  UNL     1      19.459  31.987  12.425  1.00  0.00     0.211 HD
ENDBRANCH  11  28
BRANCH  10  30
HETATM   30  O4  UNL     1      21.150  29.990  13.306  1.00  0.00    -0.382 OA
BRANCH  30  31
HETATM   31  C14 UNL     1      22.322  29.278  13.421  1.00  0.00     0.168 C
BRANCH  31  32
HETATM   32  C15 UNL     1      22.202  28.001  12.620  1.00  0.00     0.030 C
BRANCH  32  33
HETATM   33  C16 UNL     1      23.216  27.978  11.480  1.00  0.00     0.029 C
BRANCH  33  34
HETATM   34  C17 UNL     1      24.520  27.456  11.955  1.00  0.00    -0.031 C
HETATM   35  C18 UNL     1      25.046  26.299  11.665  1.00  0.00    -0.031 C
BRANCH  35  36
HETATM   36  C19 UNL     1      24.486  25.262  10.819  1.00  0.00     0.027 C
BRANCH  36  37
HETATM   37  C20 UNL     1      24.528  25.437   9.349  1.00  0.00     0.003 C
BRANCH  37  38
HETATM   38  C21 UNL     1      23.643  24.595   8.503  1.00  0.00    -0.004 C
HETATM   39  C22 UNL     1      24.152  24.425   7.101  1.00  0.00     0.005 C
ENDBRANCH  37  38
ENDBRANCH  36  37
ENDBRANCH  35  36
ENDBRANCH  33  34
ENDBRANCH  32  33
ENDBRANCH  31  32
ENDBRANCH  30  31
ENDBRANCH  10  30
TORSDOF 12
ENDMDL