MODEL 3
REMARK VINA RESULT: -8.021944465      1.061      1.588
REMARK  13 active torsions:
REMARK  status: ('A' for Active; 'I' for Inactive)
REMARK    1  A    between atoms: N1_7  and  C7_8
REMARK    2  A    between atoms: C8_11  and  N3_12
REMARK    3  A    between atoms: N3_12  and  C9_14
REMARK    4  A    between atoms: C13_18  and  N4_19
REMARK    5  A    between atoms: N4_19  and  C14_21
REMARK    6  A    between atoms: C14_21  and  C15_22
REMARK    7  A    between atoms: C15_22  and  C16_23
REMARK    8  A    between atoms: C16_23  and  N5_24
REMARK    9  A    between atoms: N6_27  and  C19_28
REMARK   10  A    between atoms: C19_28  and  C20_29
REMARK   11  A    between atoms: C20_29  and  C21_30
REMARK   12  A    between atoms: C21_30  and  N7_31
REMARK   13  A    between atoms: N7_31  and  C22_33
ROOT
HETATM    1  C1  UNL     1      17.022  31.555  15.730  1.00  0.00     0.012 C
HETATM    2  C2  UNL     1      16.323  32.529  15.929  1.00  0.00    -0.111 C
HETATM    3  C3  UNL     1      15.488  33.719  16.151  1.00  0.00     0.083 C
HETATM    4  C4  UNL     1      15.143  33.767  17.616  1.00  0.00     0.020 C
HETATM    5  C5  UNL     1      14.710  35.144  18.062  1.00  0.00     0.022 C
HETATM    6  C6  UNL     1      15.705  36.227  17.719  1.00  0.00     0.141 C
HETATM    7  N1  UNL     1      16.748  35.685  16.877  1.00  0.00    -0.216 N
HETATM    8  C26 UNL     1      16.331  34.904  15.730  1.00  0.00     0.158 C
ENDROOT
BRANCH   7   9
HETATM    9  C7  UNL     1      18.097  35.952  17.219  1.00  0.00     0.683 A
HETATM   10  N2  UNL     1      18.632  37.186  17.224  1.00  0.00    -0.177 N
HETATM   11  C8  UNL     1      19.909  37.442  17.557  1.00  0.00     0.120 A
ATOM     12  H2  UNL     1      18.036  37.971  16.961  1.00  0.00     0.185 HD
HETATM   13  C12 UNL     1      20.686  36.336  17.911  1.00  0.00     0.097 A
HETATM   14  C13 UNL     1      20.167  35.060  17.915  1.00  0.00     0.120 A
HETATM   15  N8  UNL     1      18.875  34.919  17.563  1.00  0.00    -0.177 N
ATOM     16  H8  UNL     1      18.471  33.981  17.560  1.00  0.00     0.185 HD
BRANCH  11  17
HETATM   17  N3  UNL     1      20.425  38.631  17.555  1.00  0.00    -0.372 N
ATOM     18  H3  UNL     1      20.077  39.371  18.165  1.00  0.00     0.161 HD
BRANCH  17  19
HETATM   19  C9  UNL     1      21.537  38.849  16.628  1.00  0.00     0.075 C
HETATM   20  C10 UNL     1      22.695  39.528  17.327  1.00  0.00     0.031 C
HETATM   21  C11 UNL     1      21.050  39.619  15.443  1.00  0.00     0.031 C
ENDBRANCH  17  19
ENDBRANCH  11  17
BRANCH  14  22
HETATM   22  N4  UNL     1      20.946  33.927  18.279  1.00  0.00    -0.376 N
ATOM     23  H4  UNL     1      20.668  33.319  19.048  1.00  0.00     0.161 HD
BRANCH  22  24
HETATM   24  C14 UNL     1      22.151  33.671  17.516  1.00  0.00     0.123 C
BRANCH  24  25
HETATM   25  C15 UNL     1      21.799  32.556  16.520  1.00  0.00     0.050 C
BRANCH  25  26
HETATM   26  C16 UNL     1      21.671  33.105  15.127  1.00  0.00     0.274 C
BRANCH  26  27
HETATM   27  N5  UNL     1      21.631  32.033  14.189  1.00  0.00     0.091 N
HETATM   28  C17 UNL     1      22.187  30.793  14.623  1.00  0.00     0.302 C
HETATM   29  C18 UNL     1      21.290  29.610  14.352  1.00  0.00     0.302 C
HETATM   30  N6  UNL     1      20.787  29.570  12.993  1.00  0.00     0.091 N
HETATM   31  C24 UNL     1      20.483  30.870  12.477  1.00  0.00     0.302 C
HETATM   32  C25 UNL     1      20.338  31.910  13.600  1.00  0.00     0.302 C
BRANCH  30  33
HETATM   33  C19 UNL     1      21.654  28.769  12.197  1.00  0.00     0.274 C
BRANCH  33  34
HETATM   34  C20 UNL     1      21.502  27.293  12.337  1.00  0.00     0.050 C
BRANCH  34  35
HETATM   35  C21 UNL     1      20.473  26.699  11.433  1.00  0.00     0.122 C
BRANCH  35  36
HETATM   36  N7  UNL     1      19.264  26.331  12.127  1.00  0.00    -0.385 N
ATOM     37  H7  UNL     1      19.119  25.353  12.380  1.00  0.00     0.160 HD
BRANCH  36  38
HETATM   38  C22 UNL     1      18.277  27.274  12.465  1.00  0.00     0.069 C
HETATM   39  C23 UNL     1      17.832  27.418  13.904  1.00  0.00     0.081 C
HETATM   40  S1  UNL     1      17.540  28.278  11.418  1.00  0.00    -0.066 SA
ENDBRANCH  36  38
ENDBRANCH  35  36
ENDBRANCH  34  35
ENDBRANCH  33  34
ENDBRANCH  30  33
ENDBRANCH  26  27
ENDBRANCH  25  26
ENDBRANCH  24  25
ENDBRANCH  22  24
ENDBRANCH  14  22
ENDBRANCH   7   9
TORSDOF 13
ENDMDL