MODEL 5
REMARK VINA RESULT: -8.240389100      2.169      2.515
REMARK  14 active torsions:
REMARK  status: ('A' for Active; 'I' for Inactive)
REMARK    1  A    between atoms: C2_2  and  C3_3
REMARK    2  A    between atoms: C3_3  and  C4_4
REMARK    3  A    between atoms: C4_4  and  C5_5
REMARK    4  A    between atoms: C5_5  and  C6_6
REMARK    5  A    between atoms: C7_7  and  O1_8
REMARK    6  A    between atoms: C8_10  and  O2_11
REMARK    7  A    between atoms: C9_13  and  O3_14
REMARK    8  A    between atoms: C10_16  and  O4_17
REMARK    9  A    between atoms: N1_19  and  C12_20
REMARK   10  A    between atoms: C12_20  and  C13_21
REMARK   11  A    between atoms: C13_21  and  C14_22
REMARK       I    between atoms: N2_26  and  C18_27
REMARK   12  A    between atoms: C18_27  and  C19_29
REMARK   13  A    between atoms: C23_34  and  C24_35
REMARK   14  A    between atoms: C24_35  and  C25_36
ROOT
HETATM    1  C12 UNL     1      20.088  32.049  13.759  1.00  0.00     0.121 C
ENDROOT
BRANCH   1   2
HETATM    2  N1  UNL     1      20.811  30.831  13.735  1.00  0.00    -0.379 N
HETATM    3  C6  UNL     1      20.446  29.899  12.685  1.00  0.00     0.113 C
HETATM    4  C7  UNL     1      19.674  28.740  13.174  1.00  0.00     0.172 C
HETATM    5  C8  UNL     1      19.198  28.904  14.622  1.00  0.00     0.181 C
HETATM    6  C9  UNL     1      20.422  29.127  15.457  1.00  0.00     0.198 C
HETATM    7  C10 UNL     1      21.249  30.281  14.949  1.00  0.00     0.250 C
BRANCH   3   8
HETATM    8  C5  UNL     1      21.558  29.640  11.746  1.00  0.00     0.028 C
BRANCH   8   9
HETATM    9  C4  UNL     1      22.205  28.348  11.593  1.00  0.00     0.002 C
BRANCH   9  10
HETATM   10  C3  UNL     1      23.338  27.947  12.456  1.00  0.00    -0.000 C
BRANCH  10  11
HETATM   11  C2  UNL     1      24.556  27.526  11.606  1.00  0.00    -0.005 C
HETATM   12  C1  UNL     1      24.613  26.016  11.707  1.00  0.00     0.005 C
ENDBRANCH  10  11
ENDBRANCH   9  10
ENDBRANCH   8   9
ENDBRANCH   3   8
BRANCH   4  13
HETATM   13  O1  UNL     1      18.448  28.645  12.422  1.00  0.00    -0.391 OA
ATOM     14  H1  UNL     1      17.782  28.246  12.969  1.00  0.00     0.210 HD
ENDBRANCH   4  13
BRANCH   5  15
HETATM   15  O2  UNL     1      18.688  27.639  14.980  1.00  0.00    -0.390 OA
ATOM     16  H2  UNL     1      19.427  27.177  15.358  1.00  0.00     0.210 HD
ENDBRANCH   5  15
BRANCH   6  17
HETATM   17  O3  UNL     1      20.038  29.313  16.787  1.00  0.00    -0.389 OA
ATOM     18  H3  UNL     1      20.809  29.506  17.308  1.00  0.00     0.210 HD
ENDBRANCH   6  17
BRANCH   7  19
HETATM   19  O4  UNL     1      21.204  31.273  15.928  1.00  0.00    -0.369 OA
HETATM   20  C11 UNL     1      22.459  31.852  16.132  1.00  0.00     0.204 C
ENDBRANCH   7  19
ENDBRANCH   1   2
BRANCH   1  21
HETATM   21  C13 UNL     1      18.629  31.812  13.847  1.00  0.00     0.029 C
BRANCH  21  22
HETATM   22  C14 UNL     1      17.914  32.564  14.943  1.00  0.00    -0.040 C
HETATM   23  C15 UNL     1      17.442  33.888  14.329  1.00  0.00     0.015 C
HETATM   24  C16 UNL     1      18.765  32.892  16.111  1.00  0.00     0.029 C
HETATM   25  C17 UNL     1      17.913  33.077  17.341  1.00  0.00     0.126 C
HETATM   26  N2  UNL     1      16.549  33.413  17.091  1.00  0.00    -0.352 N
HETATM   27  C18 UNL     1      15.946  34.556  17.660  1.00  0.00     0.224 C
HETATM   28  C27 UNL     1      15.770  32.543  16.235  1.00  0.00     0.126 C
HETATM   29  O5  UNL     1      14.725  34.780  17.354  1.00  0.00    -0.273 OA
HETATM   30  C28 UNL     1      16.657  31.785  15.271  1.00  0.00     0.029 C
BRANCH  27  31
HETATM   31  C19 UNL     1      16.586  35.511  18.571  1.00  0.00     0.089 C
HETATM   32  C20 UNL     1      15.589  36.517  19.082  1.00  0.00     0.022 C
HETATM   33  C21 UNL     1      15.746  37.731  18.200  1.00  0.00     0.079 C
HETATM   34  C22 UNL     1      16.852  37.445  17.253  1.00  0.00     0.132 C
HETATM   35  O6  UNL     1      17.037  38.030  16.211  1.00  0.00    -0.298 OA
HETATM   36  C23 UNL     1      17.634  36.330  17.859  1.00  0.00     0.068 C
BRANCH  36  37
HETATM   37  C24 UNL     1      18.650  36.884  18.830  1.00  0.00     0.013 C
BRANCH  37  38
HETATM   38  C25 UNL     1      19.923  37.177  18.070  1.00  0.00    -0.004 C
HETATM   39  C26 UNL     1      20.557  35.911  17.550  1.00  0.00     0.005 C
ENDBRANCH  37  38
ENDBRANCH  36  37
ENDBRANCH  27  31
ENDBRANCH  21  22
ENDBRANCH   1  21
TORSDOF 14
ENDMDL