MODEL 4
REMARK VINA RESULT: -8.819590890      1.561      3.662
REMARK  14 active torsions:
REMARK  status: ('A' for Active; 'I' for Inactive)
REMARK    1  A    between atoms: C2_2  and  C3_3
REMARK    2  A    between atoms: C3_3  and  N1_4
REMARK    3  A    between atoms: N1_4  and  C4_5
REMARK    4  A    between atoms: N1_4  and  C15_27
REMARK    5  A    between atoms: C4_5  and  C5_6
REMARK    6  A    between atoms: C6_9  and  N3_10
REMARK    7  A    between atoms: N3_10  and  C7_12
REMARK    8  A    between atoms: C10_17  and  N5_18
REMARK    9  A    between atoms: N5_18  and  C11_20
REMARK   10  A    between atoms: C11_20  and  C12_21
REMARK   11  A    between atoms: C12_21  and  C13_22
REMARK   12  A    between atoms: C13_22  and  O1_23
REMARK   13  A    between atoms: C17_29  and  N7_30
REMARK   14  A    between atoms: N9_39  and  C23_41
ROOT
HETATM    1  N1  UNL     1      19.041  30.358  14.373  1.00  0.00    -0.374 N
ENDROOT
BRANCH   1   2
HETATM    2  C3  UNL     1      18.924  30.743  13.011  1.00  0.00     0.123 C
BRANCH   2   3
HETATM    3  C2  UNL     1      20.026  31.485  12.377  1.00  0.00     0.015 C
HETATM    4  C1  UNL     1      21.412  30.982  12.506  1.00  0.00     0.006 C
ENDBRANCH   2   3
ENDBRANCH   1   2
BRANCH   1   5
HETATM    5  C4  UNL     1      19.190  29.013  14.854  1.00  0.00     0.200 C
BRANCH   5   6
HETATM    6  C5  UNL     1      19.659  28.052  13.798  1.00  0.00     0.131 A
HETATM    7  N2  UNL     1      18.788  27.315  13.087  1.00  0.00    -0.178 N
HETATM    8  C6  UNL     1      19.124  26.436  12.130  1.00  0.00     0.694 A
ATOM      9  H2  UNL     1      17.796  27.433  13.291  1.00  0.00     0.185 HD
HETATM   10  N4  UNL     1      20.431  26.302  11.883  1.00  0.00    -0.022 N
HETATM   11  C10 UNL     1      21.379  27.021  12.566  1.00  0.00     0.694 A
ATOM     12  H4  UNL     1      20.733  25.645  11.164  1.00  0.00     0.203 HD
HETATM   13  N6  UNL     1      20.963  27.883  13.513  1.00  0.00    -0.178 N
ATOM     14  H6  UNL     1      21.657  28.424  14.029  1.00  0.00     0.185 HD
BRANCH   8  15
HETATM   15  N3  UNL     1      18.276  25.752  11.473  1.00  0.00    -0.222 N
ATOM     16  H3  UNL     1      18.023  24.866  11.910  1.00  0.00     0.178 HD
BRANCH  15  17
HETATM   17  C7  UNL     1      17.628  25.997  10.251  1.00  0.00     0.091 C
HETATM   18  C8  UNL     1      18.281  25.132   9.176  1.00  0.00     0.032 C
HETATM   19  C9  UNL     1      17.524  27.418   9.822  1.00  0.00     0.032 C
ENDBRANCH  15  17
ENDBRANCH   8  15
BRANCH  11  20
HETATM   20  N5  UNL     1      22.608  26.827  12.258  1.00  0.00    -0.225 N
ATOM     21  H5  UNL     1      22.922  25.858  12.300  1.00  0.00     0.177 HD
BRANCH  20  22
HETATM   22  C11 UNL     1      23.592  27.769  11.867  1.00  0.00     0.140 C
BRANCH  22  23
HETATM   23  C12 UNL     1      24.949  27.150  12.240  1.00  0.00     0.046 C
BRANCH  23  24
HETATM   24  C13 UNL     1      25.313  26.170  11.167  1.00  0.00     0.168 C
BRANCH  24  25
HETATM   25  O1  UNL     1      24.590  25.002  11.253  1.00  0.00    -0.396 OA
HETATM   26  C14 UNL     1      24.198  24.580  10.004  1.00  0.00     0.201 C
ENDBRANCH  24  25
ENDBRANCH  23  24
ENDBRANCH  22  23
ENDBRANCH  20  22
ENDBRANCH  11  20
ENDBRANCH   5   6
ENDBRANCH   1   5
BRANCH   1  27
HETATM   27  C15 UNL     1      19.064  31.431  15.348  1.00  0.00     0.037 A
HETATM   28  C16 UNL     1      20.243  31.941  15.858  1.00  0.00     0.078 A
HETATM   29  C17 UNL     1      20.230  32.993  16.746  1.00  0.00     0.113 A
HETATM   30  N8  UNL     1      19.051  33.558  17.144  1.00  0.00    -0.329 N
HETATM   31  C22 UNL     1      17.876  33.105  16.682  1.00  0.00     0.104 A
ATOM     32  H8  UNL     1      19.065  34.336  17.802  1.00  0.00     0.169 HD
HETATM   33  N9  UNL     1      16.727  33.559  16.964  1.00  0.00    -0.372 N
HETATM   34  C26 UNL     1      17.908  32.035  15.779  1.00  0.00     0.077 A
ATOM     35  H9  UNL     1      15.945  33.082  16.514  1.00  0.00     0.161 HD
BRANCH  29  36
HETATM   36  N7  UNL     1      21.401  33.559  17.305  1.00  0.00    -0.304 N
HETATM   37  C18 UNL     1      22.730  33.035  16.958  1.00  0.00     0.134 C
HETATM   38  C19 UNL     1      23.726  33.926  17.621  1.00  0.00     0.029 C
HETATM   39  C20 UNL     1      22.961  35.141  18.063  1.00  0.00     0.105 C
HETATM   40  C21 UNL     1      21.572  34.632  18.220  1.00  0.00     0.225 C
HETATM   41  O2  UNL     1      20.670  35.026  18.992  1.00  0.00    -0.273 OA
ENDBRANCH  29  36
BRANCH  33  42
HETATM   42  C23 UNL     1      16.371  34.644  17.823  1.00  0.00     0.075 C
HETATM   43  C24 UNL     1      16.602  35.982  17.162  1.00  0.00     0.031 C
HETATM   44  C25 UNL     1      14.964  34.604  18.345  1.00  0.00     0.031 C
ENDBRANCH  33  42
ENDBRANCH   1  27
TORSDOF 14
ENDMDL