MODEL 5
REMARK VINA RESULT: -8.395715031      1.306      1.708
REMARK  11 active torsions:
REMARK  status: ('A' for Active; 'I' for Inactive)
REMARK    1  A    between atoms: N1_1  and  S1_4
REMARK    2  A    between atoms: S1_4  and  N2_5
REMARK    3  A    between atoms: S1_4  and  C1_9
REMARK    4  A    between atoms: C9_17  and  C10_18
REMARK    5  A    between atoms: C10_18  and  C11_19
REMARK    6  A    between atoms: N3_27  and  C18_28
REMARK    7  A    between atoms: C18_28  and  C19_29
REMARK    8  A    between atoms: C19_29  and  C20_30
REMARK    9  A    between atoms: C20_30  and  C21_31
REMARK   10  A    between atoms: N6_38  and  C24_39
REMARK   11  A    between atoms: C24_39  and  C25_40
ROOT
HETATM    1  C1  UNL     1      17.811  29.374  13.642  1.00  0.00     0.132 C
HETATM    2  C2  UNL     1      17.105  29.021  12.534  1.00  0.00     0.054 C
HETATM    3  C3  UNL     1      17.426  27.983  11.570  1.00  0.00    -0.023 A
HETATM    4  C4  UNL     1      16.310  27.699  10.783  1.00  0.00     0.012 A
HETATM    5  C5  UNL     1      16.386  26.723   9.788  1.00  0.00     0.002 A
HETATM    6  C6  UNL     1      17.579  26.063   9.620  1.00  0.00     0.018 A
HETATM    7  C7  UNL     1      18.707  26.341  10.409  1.00  0.00     0.042 A
HETATM    8  C8  UNL     1      18.612  27.299  11.369  1.00  0.00     0.006 A
HETATM    9  C9  UNL     1      19.950  27.484  11.967  1.00  0.00     0.150 C
HETATM   10  C17 UNL     1      19.900  27.957  13.349  1.00  0.00     0.258 C
HETATM   11  O2  UNL     1      20.803  27.534  14.095  1.00  0.00    -0.270 OA
HETATM   12  N3  UNL     1      19.022  28.840  14.102  1.00  0.00    -0.306 N
HETATM   13  N6  UNL     1      20.670  26.308  11.655  1.00  0.00    -0.321 N
HETATM   14  C31 UNL     1      19.990  25.673  10.513  1.00  0.00     0.256 C
HETATM   15  O3  UNL     1      20.460  24.757   9.814  1.00  0.00    -0.267 OA
ENDROOT
BRANCH  12  16
HETATM   16  C18 UNL     1      19.403  29.173  15.425  1.00  0.00     0.133 C
BRANCH  16  17
HETATM   17  C19 UNL     1      20.453  30.170  15.677  1.00  0.00     0.026 C
BRANCH  17  18
HETATM   18  C20 UNL     1      19.994  31.496  16.299  1.00  0.00     0.060 C
BRANCH  18  19
HETATM   19  C21 UNL     1      21.203  32.337  16.597  1.00  0.00     0.025 A
HETATM   20  C22 UNL     1      21.354  33.668  16.423  1.00  0.00     0.113 A
HETATM   21  N4  UNL     1      22.603  33.989  16.826  1.00  0.00    -0.360 N
HETATM   22  C23 UNL     1      23.224  32.879  17.244  1.00  0.00     0.180 A
ATOM     23  H4  UNL     1      23.008  34.926  16.814  1.00  0.00     0.166 HD
HETATM   24  N5  UNL     1      22.351  31.867  17.098  1.00  0.00    -0.355 N
ATOM     25  H5  UNL     1      22.535  30.892  17.333  1.00  0.00     0.166 HD
ENDBRANCH  18  19
ENDBRANCH  17  18
ENDBRANCH  16  17
ENDBRANCH  12  16
BRANCH   1  26
HETATM   26  S1  UNL     1      17.073  30.639  14.482  1.00  0.00     0.147 S
HETATM   27  O1  UNL     1      15.608  30.679  13.959  1.00  0.00    -0.222 OA
BRANCH  26  28
HETATM   28  N1  UNL     1      16.805  30.580  15.972  1.00  0.00    -0.340 N
ATOM     29  H12 UNL     1      17.313  29.977  16.620  1.00  0.00     0.167 HD
ATOM     30  H11 UNL     1      16.055  31.223  16.225  1.00  0.00     0.167 HD
ENDBRANCH  26  28
BRANCH  26  31
HETATM   31  N2  UNL     1      17.614  32.241  14.019  1.00  0.00    -0.340 N
ATOM     32  H22 UNL     1      18.453  32.688  14.390  1.00  0.00     0.167 HD
ATOM     33  H21 UNL     1      16.976  32.650  13.336  1.00  0.00     0.167 HD
ENDBRANCH  26  31
ENDBRANCH   1  26
BRANCH   9  34
HETATM   34  C10 UNL     1      20.618  28.712  11.260  1.00  0.00     0.085 C
BRANCH  34  35
HETATM   35  C11 UNL     1      21.398  29.570  12.093  1.00  0.00    -0.055 A
HETATM   36  C12 UNL     1      22.604  29.177  12.626  1.00  0.00     0.007 A
HETATM   37  C13 UNL     1      23.398  29.964  13.425  1.00  0.00     0.001 A
HETATM   38  C14 UNL     1      22.989  31.230  13.729  1.00  0.00     0.000 A
HETATM   39  C15 UNL     1      21.786  31.676  13.219  1.00  0.00     0.001 A
HETATM   40  C16 UNL     1      21.006  30.863  12.418  1.00  0.00     0.007 A
ENDBRANCH  34  35
ENDBRANCH   9  34
BRANCH  13  41
HETATM   41  C24 UNL     1      21.906  25.684  12.165  1.00  0.00     0.166 C
BRANCH  41  42
HETATM   42  C25 UNL     1      23.123  26.093  11.434  1.00  0.00    -0.040 A
HETATM   43  C26 UNL     1      23.244  26.159  10.080  1.00  0.00     0.009 A
HETATM   44  C27 UNL     1      24.401  26.542   9.409  1.00  0.00     0.001 A
HETATM   45  C28 UNL     1      25.497  26.879  10.170  1.00  0.00     0.000 A
HETATM   46  C29 UNL     1      25.449  26.836  11.542  1.00  0.00     0.001 A
HETATM   47  C30 UNL     1      24.281  26.450  12.151  1.00  0.00     0.009 A
ENDBRANCH  41  42
ENDBRANCH  13  41
TORSDOF 11
ENDMDL