MODEL 2
REMARK VINA RESULT: -5.130690972      2.264      8.893
REMARK  12 active torsions:
REMARK  status: ('A' for Active; 'I' for Inactive)
REMARK    1  A    between atoms: C2_2  and  C3_3
REMARK    2  A    between atoms: C3_3  and  C5_5
REMARK    3  A    between atoms: C7_10  and  C8_11
REMARK    4  A    between atoms: C8_11  and  C9_12
REMARK    5  A    between atoms: C9_12  and  C10_13
REMARK    6  A    between atoms: C10_13  and  C11_14
REMARK    7  A    between atoms: C11_14  and  N2_15
REMARK    8  A    between atoms: N3_19  and  C12_20
REMARK    9  A    between atoms: C12_20  and  O2_22
REMARK   10  A    between atoms: C17_30  and  C18_31
REMARK   11  A    between atoms: C24_40  and  C25_41
REMARK   12  A    between atoms: C25_41  and  C26_42
ROOT
HETATM    1  C5  UNL     1      18.199  33.753  16.119  1.00  0.00     0.084 C
HETATM    2  N1  UNL     1      18.474  32.387  16.376  1.00  0.00    -0.320 N
ATOM      3  H1  UNL     1      18.688  32.247  17.363  1.00  0.00     0.169 HD
HETATM    4  C6  UNL     1      18.539  31.195  15.696  1.00  0.00     0.272 C
HETATM    5  O1  UNL     1      19.567  30.504  15.951  1.00  0.00    -0.266 OA
HETATM    6  C7  UNL     1      17.607  30.590  14.721  1.00  0.00     0.102 C
HETATM    7  N3  UNL     1      18.196  29.680  13.777  1.00  0.00    -0.314 N
HETATM    8  C14 UNL     1      19.588  29.812  13.353  1.00  0.00     0.180 C
HETATM    9  C15 UNL     1      19.731  30.075  11.862  1.00  0.00     0.043 C
HETATM   10  C16 UNL     1      20.467  28.690  13.704  1.00  0.00     0.240 C
HETATM   11  O3  UNL     1      20.094  27.668  14.339  1.00  0.00    -0.271 OA
HETATM   12  N4  UNL     1      21.860  28.661  13.347  1.00  0.00    -0.354 N
ATOM     13  H4  UNL     1      22.269  27.762  13.091  1.00  0.00     0.162 HD
HETATM   14  C17 UNL     1      22.709  29.813  13.326  1.00  0.00     0.089 C
HETATM   15  C21 UNL     1      23.172  30.168  14.711  1.00  0.00     0.045 C
HETATM   16  C22 UNL     1      22.910  31.615  15.057  1.00  0.00     0.125 C
HETATM   17  N5  UNL     1      23.025  31.851  16.473  1.00  0.00    -0.356 N
ATOM     18  H5  UNL     1      23.655  31.250  17.004  1.00  0.00     0.162 HD
HETATM   19  C23 UNL     1      22.325  32.858  17.180  1.00  0.00     0.268 C
HETATM   20  O4  UNL     1      22.431  32.824  18.415  1.00  0.00    -0.266 OA
HETATM   21  C24 UNL     1      21.509  33.900  16.543  1.00  0.00     0.102 C
HETATM   22  N6  UNL     1      20.427  34.432  17.352  1.00  0.00    -0.313 N
HETATM   23  C29 UNL     1      20.614  34.761  18.768  1.00  0.00     0.160 C
HETATM   24  C30 UNL     1      19.095  34.685  16.876  1.00  0.00     0.271 C
HETATM   25  O5  UNL     1      18.638  35.835  17.139  1.00  0.00    -0.266 OA
ENDROOT
BRANCH   6  26
HETATM   26  C8  UNL     1      16.316  30.179  15.309  1.00  0.00     0.009 C
BRANCH  26  27
HETATM   27  C9  UNL     1      15.063  30.899  15.044  1.00  0.00     0.031 C
BRANCH  27  28
HETATM   28  C10 UNL     1      14.901  32.288  15.557  1.00  0.00     0.031 C
BRANCH  28  29
HETATM   29  C11 UNL     1      14.967  32.175  17.093  1.00  0.00     0.230 C
BRANCH  29  30
HETATM   30  N2  UNL     1      14.887  33.516  17.622  1.00  0.00    -0.079 N
ATOM     31  H23 UNL     1      15.599  33.713  18.326  1.00  0.00     0.274 HD
ATOM     32  H22 UNL     1      15.168  34.229  16.949  1.00  0.00     0.274 HD
ATOM     33  H21 UNL     1      13.936  33.645  17.968  1.00  0.00     0.274 HD
ENDBRANCH  29  30
ENDBRANCH  28  29
ENDBRANCH  27  28
ENDBRANCH  26  27
ENDBRANCH   6  26
BRANCH   7  34
HETATM   34  C12 UNL     1      17.421  28.679  13.181  1.00  0.00     0.114 C
HETATM   35  C13 UNL     1      16.403  28.857  12.099  1.00  0.00     0.097 C
BRANCH  34  36
HETATM   36  O2  UNL     1      17.509  27.426  13.521  1.00  0.00    -0.349 OA
ATOM     37  H2  UNL     1      18.210  26.860  13.219  1.00  0.00     0.219 HD
ENDBRANCH  34  36
ENDBRANCH   7  34
BRANCH   1  38
HETATM   38  C3  UNL     1      17.845  34.239  14.791  1.00  0.00     0.037 C
HETATM   39  C4  UNL     1      18.211  33.293  13.660  1.00  0.00     0.016 C
BRANCH  38  40
HETATM   40  C2  UNL     1      16.404  34.624  14.538  1.00  0.00     0.006 C
HETATM   41  C1  UNL     1      16.018  35.774  15.489  1.00  0.00     0.006 C
ENDBRANCH  38  40
ENDBRANCH   1  38
BRANCH  14  42
HETATM   42  C18 UNL     1      23.882  29.522  12.435  1.00  0.00     0.000 C
HETATM   43  C19 UNL     1      24.988  28.785  13.137  1.00  0.00     0.011 C
HETATM   44  C20 UNL     1      23.518  28.738  11.194  1.00  0.00     0.011 C
ENDBRANCH  14  42
BRANCH  21  45
HETATM   45  C25 UNL     1      22.185  34.821  15.629  1.00  0.00     0.012 C
BRANCH  45  46
HETATM   46  C26 UNL     1      23.373  35.591  15.920  1.00  0.00     0.002 C
HETATM   47  C27 UNL     1      23.307  36.509  17.119  1.00  0.00     0.013 C
HETATM   48  C28 UNL     1      24.685  34.854  16.008  1.00  0.00     0.013 C
ENDBRANCH  45  46
ENDBRANCH  21  45
TORSDOF 12
ENDMDL