MODEL 4
REMARK VINA RESULT: -6.842200759      1.180      1.758
REMARK  11 active torsions:
REMARK  status: ('A' for Active; 'I' for Inactive)
REMARK    1  A    between atoms: C2_2  and  C3_3
REMARK    2  A    between atoms: C3_3  and  C4_4
REMARK    3  A    between atoms: C4_4  and  C5_5
REMARK    4  A    between atoms: C6_6  and  O1_7
REMARK    5  A    between atoms: C7_11  and  C8_12
REMARK    6  A    between atoms: C8_12  and  C9_13
REMARK    7  A    between atoms: C13_20  and  C14_21
REMARK    8  A    between atoms: C14_21  and  C15_22
REMARK    9  A    between atoms: C15_22  and  C18_25
REMARK   10  A    between atoms: C22_29  and  O3_30
REMARK   11  A    between atoms: C23_34  and  C24_35
ROOT
HETATM    1  C5  UNL     1      18.415  26.713  11.007  1.00  0.00     0.064 C
HETATM    2  C6  UNL     1      18.379  26.523  12.422  1.00  0.00     0.160 C
HETATM    3  N1  UNL     1      18.252  27.304  13.568  1.00  0.00    -0.356 N
ATOM      4  H1  UNL     1      17.715  26.866  14.316  1.00  0.00     0.162 HD
HETATM    5  C7  UNL     1      18.740  28.613  13.884  1.00  0.00     0.176 C
HETATM    6  C12 UNL     1      20.142  28.468  14.427  1.00  0.00     0.241 C
HETATM    7  O2  UNL     1      20.365  27.357  15.027  1.00  0.00    -0.271 OA
HETATM    8  N2  UNL     1      21.117  29.437  14.301  1.00  0.00    -0.347 N
ATOM      9  H2  UNL     1      22.033  29.207  14.687  1.00  0.00     0.163 HD
HETATM   10  C13 UNL     1      20.992  30.767  13.675  1.00  0.00     0.159 C
HETATM   11  C22 UNL     1      21.554  30.634  12.317  1.00  0.00     0.135 C
HETATM   12  N3  UNL     1      22.818  30.220  11.915  1.00  0.00    -0.359 N
ATOM     13  H3  UNL     1      23.384  30.944  11.474  1.00  0.00     0.162 HD
HETATM   14  C23 UNL     1      23.459  28.931  12.021  1.00  0.00     0.179 C
HETATM   15  C27 UNL     1      23.337  28.283  10.690  1.00  0.00     0.241 C
HETATM   16  O4  UNL     1      24.144  28.652   9.803  1.00  0.00    -0.271 OA
HETATM   17  N4  UNL     1      22.382  27.287  10.362  1.00  0.00    -0.346 N
ATOM     18  H4  UNL     1      22.062  27.249   9.395  1.00  0.00     0.163 HD
HETATM   19  C28 UNL     1      21.824  26.323  11.280  1.00  0.00     0.173 C
HETATM   20  C29 UNL     1      22.970  25.380  11.598  1.00  0.00     0.042 C
HETATM   21  C30 UNL     1      20.704  25.560  10.713  1.00  0.00     0.246 C
HETATM   22  O5  UNL     1      20.928  24.294  10.580  1.00  0.00    -0.271 OA
HETATM   23  N5  UNL     1      19.442  25.961  10.292  1.00  0.00    -0.320 N
HETATM   24  C31 UNL     1      19.067  25.568   8.907  1.00  0.00     0.159 C
ENDROOT
BRANCH  10  25
HETATM   25  C14 UNL     1      21.633  31.687  14.614  1.00  0.00     0.042 C
BRANCH  25  26
HETATM   26  C15 UNL     1      20.981  32.154  15.863  1.00  0.00    -0.042 C
HETATM   27  C16 UNL     1      22.024  32.588  16.913  1.00  0.00     0.015 C
HETATM   28  C17 UNL     1      20.065  31.116  16.375  1.00  0.00     0.015 C
BRANCH  26  29
HETATM   29  C18 UNL     1      20.308  33.480  15.502  1.00  0.00    -0.003 A
HETATM   30  C19 UNL     1      18.836  33.558  15.344  1.00  0.00     0.010 A
HETATM   31  C20 UNL     1      19.675  34.442  16.330  1.00  0.00    -0.013 A
HETATM   32  C21 UNL     1      19.130  34.405  17.699  1.00  0.00     0.010 C
ENDBRANCH  26  29
ENDBRANCH  25  26
ENDBRANCH  10  25
BRANCH  11  33
HETATM   33  O3  UNL     1      20.723  30.958  11.366  1.00  0.00    -0.348 OA
ATOM     34  H3  UNL     1      21.112  31.481  10.674  1.00  0.00     0.219 HD
ENDBRANCH  11  33
BRANCH   5  35
HETATM   35  C8  UNL     1      17.924  29.301  14.945  1.00  0.00     0.038 C
BRANCH  35  36
HETATM   36  C9  UNL     1      16.853  30.222  14.518  1.00  0.00    -0.020 C
HETATM   37  C10 UNL     1      16.278  31.147  15.541  1.00  0.00     0.009 C
HETATM   38  C11 UNL     1      17.431  31.109  13.412  1.00  0.00     0.009 C
ENDBRANCH  35  36
ENDBRANCH   5  35
BRANCH  14  39
HETATM   39  C24 UNL     1      24.913  29.011  12.400  1.00  0.00     0.009 C
HETATM   40  C25 UNL     1      25.474  27.642  12.750  1.00  0.00     0.012 C
HETATM   41  C26 UNL     1      25.216  29.940  13.545  1.00  0.00     0.012 C
ENDBRANCH  14  39
BRANCH   2  42
HETATM   42  O1  UNL     1      18.500  25.247  12.749  1.00  0.00    -0.345 OA
ATOM     43  H1  UNL     1      17.688  24.772  12.622  1.00  0.00     0.219 HD
ENDBRANCH   2  42
BRANCH   1  44
HETATM   44  C4  UNL     1      18.255  28.024  10.358  1.00  0.00     0.062 C
BRANCH  44  45
HETATM   45  C3  UNL     1      16.884  28.376   9.842  1.00  0.00     0.006 C
BRANCH  45  46
HETATM   46  C2  UNL     1      15.952  28.774  10.973  1.00  0.00    -0.004 C
HETATM   47  C1  UNL     1      15.030  27.645  11.337  1.00  0.00     0.005 C
ENDBRANCH  45  46
ENDBRANCH  44  45
ENDBRANCH   1  44
TORSDOF 11
ENDMDL