MODEL 4
REMARK VINA RESULT: -2.260042758      8.159     11.831
REMARK  10 active torsions:
REMARK  status: ('A' for Active; 'I' for Inactive)
REMARK    1  A    between atoms: C4_4  and  C5_5
REMARK    2  A    between atoms: C5_5  and  C6_6
REMARK    3  A    between atoms: C8_8  and  C9_9
REMARK    4  A    between atoms: C10_12  and  C11_13
REMARK    5  A    between atoms: C14_19  and  C15_20
REMARK    6  A    between atoms: C15_20  and  C16_21
REMARK    7  A    between atoms: C20_28  and  C21_29
REMARK    8  A    between atoms: C26_36  and  C27_37
REMARK    9  A    between atoms: C27_37  and  C28_38
REMARK   10  A    between atoms: C31_43  and  O6_44
ROOT
HETATM    1  C1  UNL     1      24.438  25.064   7.556  1.00  0.00     0.017 C
HETATM    2  C2  UNL     1      24.301  25.790   8.524  1.00  0.00    -0.090 C
HETATM    3  C3  UNL     1      24.146  26.650   9.633  1.00  0.00     0.060 C
HETATM    4  C4  UNL     1      24.128  27.973   9.488  1.00  0.00    -0.013 C
ENDROOT
BRANCH   4   5
HETATM    5  C5  UNL     1      23.967  28.907  10.617  1.00  0.00     0.070 C
BRANCH   5   6
HETATM    6  C6  UNL     1      23.058  28.334  11.702  1.00  0.00    -0.007 C
HETATM    7  C7  UNL     1      22.198  27.468  11.219  1.00  0.00     0.002 C
HETATM    8  C8  UNL     1      21.150  26.693  11.940  1.00  0.00     0.133 C
HETATM    9  C10 UNL     1      19.826  27.131  11.439  1.00  0.00     0.102 C
HETATM   10  N1  UNL     1      18.726  26.427  12.114  1.00  0.00    -0.354 N
HETATM   11  C13 UNL     1      17.712  27.040  12.843  1.00  0.00     0.240 C
ATOM     12  H1  UNL     1      18.705  25.410  12.042  1.00  0.00     0.163 HD
HETATM   13  O3  UNL     1      17.094  26.426  13.751  1.00  0.00    -0.271 OA
HETATM   14  C14 UNL     1      17.265  28.470  12.621  1.00  0.00     0.177 C
HETATM   15  N2  UNL     1      17.512  29.197  13.836  1.00  0.00    -0.343 N
HETATM   16  C19 UNL     1      17.769  30.533  14.083  1.00  0.00     0.265 C
ATOM     17  H2  UNL     1      17.495  28.618  14.675  1.00  0.00     0.163 HD
HETATM   18  O4  UNL     1      17.161  30.999  15.122  1.00  0.00    -0.266 OA
HETATM   19  C20 UNL     1      18.580  31.530  13.419  1.00  0.00     0.086 C
HETATM   20  N3  UNL     1      19.928  31.318  13.050  1.00  0.00    -0.315 N
HETATM   21  C24 UNL     1      20.272  31.758  11.660  1.00  0.00     0.159 C
HETATM   22  C25 UNL     1      21.045  30.774  13.713  1.00  0.00     0.274 C
HETATM   23  O5  UNL     1      22.143  31.432  13.506  1.00  0.00    -0.266 OA
HETATM   24  C26 UNL     1      21.279  29.647  14.584  1.00  0.00     0.099 C
HETATM   25  N4  UNL     1      22.449  28.821  14.198  1.00  0.00    -0.332 N
HETATM   26  C31 UNL     1      23.241  28.757  13.082  1.00  0.00     0.146 C
ATOM     27  H4  UNL     1      22.723  28.157  14.921  1.00  0.00     0.168 HD
BRANCH   8  28
HETATM   28  C9  UNL     1      21.459  25.251  11.910  1.00  0.00     0.182 C
HETATM   29  O1  UNL     1      22.675  24.838  11.782  1.00  0.00    -0.647 OA
HETATM   30  O2  UNL     1      20.552  24.213  12.008  1.00  0.00    -0.647 OA
ENDBRANCH   8  28
BRANCH   9  31
HETATM   31  C11 UNL     1      19.554  27.160   9.999  1.00  0.00     0.022 C
HETATM   32  C12 UNL     1      18.953  25.976   9.348  1.00  0.00     0.007 C
ENDBRANCH   9  31
BRANCH  14  33
HETATM   33  C15 UNL     1      15.776  28.309  12.329  1.00  0.00     0.038 C
BRANCH  33  34
HETATM   34  C16 UNL     1      15.436  28.147  10.897  1.00  0.00    -0.020 C
HETATM   35  C17 UNL     1      16.314  28.903   9.949  1.00  0.00     0.009 C
HETATM   36  C18 UNL     1      15.547  26.672  10.549  1.00  0.00     0.009 C
ENDBRANCH  33  34
ENDBRANCH  14  33
BRANCH  19  37
HETATM   37  C21 UNL     1      18.274  32.961  13.891  1.00  0.00     0.033 C
HETATM   38  C22 UNL     1      19.257  33.492  14.874  1.00  0.00     0.016 C
HETATM   39  C23 UNL     1      16.898  33.110  14.493  1.00  0.00     0.016 C
ENDBRANCH  19  37
BRANCH  24  40
HETATM   40  C27 UNL     1      21.241  29.798  16.046  1.00  0.00     0.012 C
BRANCH  40  41
HETATM   41  C28 UNL     1      21.637  31.038  16.716  1.00  0.00     0.002 C
HETATM   42  C29 UNL     1      20.365  31.934  16.676  1.00  0.00     0.013 C
HETATM   43  C30 UNL     1      22.722  31.881  16.202  1.00  0.00     0.013 C
ENDBRANCH  40  41
ENDBRANCH  24  40
BRANCH  26  44
HETATM   44  O6  UNL     1      24.468  29.170  13.284  1.00  0.00    -0.346 OA
ATOM     45  H6  UNL     1      25.073  28.733  12.695  1.00  0.00     0.219 HD
ENDBRANCH  26  44
ENDBRANCH   5   6
ENDBRANCH   4   5
TORSDOF 10
ENDMDL