MODEL 3
REMARK VINA RESULT: -4.590547787     11.247     16.136
REMARK  11 active torsions:
REMARK  status: ('A' for Active; 'I' for Inactive)
REMARK    1  A    between atoms: C2_2  and  C3_3
REMARK    2  A    between atoms: C3_3  and  C5_5
REMARK    3  A    between atoms: C7_10  and  C8_11
REMARK    4  A    between atoms: C8_11  and  C9_12
REMARK    5  A    between atoms: C13_19  and  C14_20
REMARK    6  A    between atoms: C14_20  and  C15_21
REMARK    7  A    between atoms: C19_28  and  C20_29
REMARK    8  A    between atoms: C20_29  and  C21_30
REMARK    9  A    between atoms: C24_35  and  O4_36
REMARK   10  A    between atoms: C25_38  and  C26_39
REMARK   11  A    between atoms: C26_39  and  C28_41
ROOT
HETATM    1  C5  UNL     1      21.930  37.387  16.108  1.00  0.00     0.180 C
HETATM    2  N1  UNL     1      20.708  36.963  16.746  1.00  0.00    -0.346 N
ATOM      3  H1  UNL     1      19.921  37.571  16.518  1.00  0.00     0.163 HD
HETATM    4  C6  UNL     1      20.348  35.937  17.586  1.00  0.00     0.241 C
HETATM    5  O1  UNL     1      20.201  36.180  18.843  1.00  0.00    -0.271 OA
HETATM    6  C7  UNL     1      20.066  34.494  17.329  1.00  0.00     0.177 C
HETATM    7  N2  UNL     1      18.666  34.203  17.690  1.00  0.00    -0.346 N
ATOM      8  H2  UNL     1      18.460  33.224  17.888  1.00  0.00     0.163 HD
HETATM    9  C12 UNL     1      17.594  35.066  17.798  1.00  0.00     0.241 C
HETATM   10  O2  UNL     1      16.906  35.062  18.885  1.00  0.00    -0.271 OA
HETATM   11  C13 UNL     1      17.080  36.054  16.797  1.00  0.00     0.177 C
HETATM   12  N3  UNL     1      16.387  37.165  17.428  1.00  0.00    -0.346 N
ATOM     13  H3  UNL     1      15.541  36.892  17.927  1.00  0.00     0.163 HD
HETATM   14  C18 UNL     1      16.653  38.517  17.482  1.00  0.00     0.241 C
HETATM   15  O3  UNL     1      15.861  39.341  16.893  1.00  0.00    -0.271 OA
HETATM   16  C19 UNL     1      17.797  39.231  18.166  1.00  0.00     0.176 C
HETATM   17  N4  UNL     1      18.277  40.287  17.340  1.00  0.00    -0.356 N
ATOM     18  H4  UNL     1      17.548  40.955  17.092  1.00  0.00     0.162 HD
HETATM   19  C24 UNL     1      19.502  40.611  16.799  1.00  0.00     0.160 C
HETATM   20  C25 UNL     1      20.897  40.512  17.231  1.00  0.00     0.068 C
HETATM   21  N5  UNL     1      21.809  40.001  16.210  1.00  0.00    -0.320 N
HETATM   22  C30 UNL     1      22.826  41.002  15.732  1.00  0.00     0.159 C
HETATM   23  C31 UNL     1      21.893  38.773  15.589  1.00  0.00     0.247 C
HETATM   24  O5  UNL     1      21.954  38.837  14.295  1.00  0.00    -0.271 OA
ENDROOT
BRANCH   1  25
HETATM   25  C3  UNL     1      22.215  36.334  15.064  1.00  0.00     0.013 C
HETATM   26  C4  UNL     1      21.052  35.437  14.754  1.00  0.00     0.012 C
BRANCH  25  27
HETATM   27  C2  UNL     1      23.521  35.643  15.151  1.00  0.00     0.002 C
HETATM   28  C1  UNL     1      23.511  34.325  14.346  1.00  0.00     0.005 C
ENDBRANCH  25  27
ENDBRANCH   1  25
BRANCH   6  29
HETATM   29  C8  UNL     1      21.033  33.676  18.155  1.00  0.00     0.038 C
BRANCH  29  30
HETATM   30  C9  UNL     1      22.391  33.527  17.562  1.00  0.00    -0.020 C
HETATM   31  C10 UNL     1      22.678  32.040  17.287  1.00  0.00     0.009 C
HETATM   32  C11 UNL     1      23.496  33.997  18.476  1.00  0.00     0.009 C
ENDBRANCH  29  30
ENDBRANCH   6  29
BRANCH  20  33
HETATM   33  C26 UNL     1      21.186  40.055  18.610  1.00  0.00     0.036 C
HETATM   34  C27 UNL     1      22.722  40.025  18.755  1.00  0.00     0.016 C
BRANCH  33  35
HETATM   35  C28 UNL     1      20.844  41.201  19.599  1.00  0.00     0.006 C
HETATM   36  C29 UNL     1      21.886  42.287  19.530  1.00  0.00     0.006 C
ENDBRANCH  33  35
ENDBRANCH  20  33
BRANCH  19  37
HETATM   37  O4  UNL     1      19.460  41.143  15.598  1.00  0.00    -0.345 OA
ATOM     38  H4  UNL     1      19.574  40.531  14.881  1.00  0.00     0.219 HD
ENDBRANCH  19  37
BRANCH  11  39
HETATM   39  C14 UNL     1      16.032  35.245  15.990  1.00  0.00     0.038 C
BRANCH  39  40
HETATM   40  C15 UNL     1      16.469  33.892  15.599  1.00  0.00    -0.020 C
HETATM   41  C16 UNL     1      15.192  33.025  15.575  1.00  0.00     0.009 C
HETATM   42  C17 UNL     1      17.102  33.747  14.263  1.00  0.00     0.009 C
ENDBRANCH  39  40
ENDBRANCH  11  39
BRANCH  16  43
HETATM   43  C20 UNL     1      17.325  39.517  19.535  1.00  0.00     0.038 C
BRANCH  43  44
HETATM   44  C21 UNL     1      17.146  40.888  20.017  1.00  0.00    -0.020 C
HETATM   45  C22 UNL     1      17.486  41.039  21.470  1.00  0.00     0.009 C
HETATM   46  C23 UNL     1      15.651  41.253  19.900  1.00  0.00     0.009 C
ENDBRANCH  43  44
ENDBRANCH  16  43
TORSDOF 11
ENDMDL