MODEL 4
REMARK VINA RESULT: -10.021946977      1.767      4.682
REMARK  11 active torsions:
REMARK  status: ('A' for Active; 'I' for Inactive)
REMARK    1  A    between atoms: N1_5  and  C5_6
REMARK    2  A    between atoms: C5_6  and  C6_7
REMARK    3  A    between atoms: C6_7  and  C7_8
REMARK    4  A    between atoms: C7_8  and  O1_9
REMARK    5  A    between atoms: O1_9  and  C8_10
REMARK    6  A    between atoms: C12_14  and  C13_15
REMARK    7  A    between atoms: C13_15  and  C14_16
REMARK    8  A    between atoms: C17_19  and  C18_20
REMARK    9  A    between atoms: C18_20  and  C19_21
REMARK   10  A    between atoms: C23_28  and  C24_29
REMARK   11  A    between atoms: C30_40  and  O6_41
ROOT
HETATM    1  C8  UNL     1      19.026  35.938  17.784  1.00  0.00     0.069 A
HETATM    2  C9  UNL     1      19.857  34.840  17.841  1.00  0.00     0.037 A
HETATM    3  C10 UNL     1      19.422  33.630  17.333  1.00  0.00     0.016 A
HETATM    4  C11 UNL     1      18.172  33.462  16.761  1.00  0.00    -0.006 A
HETATM    5  C12 UNL     1      17.736  32.257  16.254  1.00  0.00     0.044 A
HETATM    6  C29 UNL     1      16.469  32.190  15.700  1.00  0.00     0.258 A
HETATM    7  O5  UNL     1      16.041  31.085  15.224  1.00  0.00    -0.267 OA
HETATM    8  N3  UNL     1      15.664  33.267  15.648  1.00  0.00    -0.303 N
ATOM      9  H3  UNL     1      14.733  33.200  15.237  1.00  0.00     0.171 HD
HETATM   10  C30 UNL     1      16.108  34.431  16.146  1.00  0.00     0.154 A
HETATM   11  C31 UNL     1      17.366  34.584  16.719  1.00  0.00     0.029 A
HETATM   12  C32 UNL     1      17.792  35.791  17.222  1.00  0.00     0.053 A
ENDROOT
BRANCH   5  13
HETATM   13  C13 UNL     1      18.608  31.119  16.315  1.00  0.00     0.029 C
BRANCH  13  14
HETATM   14  C14 UNL     1      19.417  30.825  15.309  1.00  0.00    -0.035 A
HETATM   15  C15 UNL     1      19.492  31.602  14.173  1.00  0.00     0.012 A
HETATM   16  C16 UNL     1      20.340  31.290  13.127  1.00  0.00     0.012 A
HETATM   17  C17 UNL     1      21.151  30.178  13.186  1.00  0.00    -0.035 A
HETATM   18  C27 UNL     1      21.088  29.394  14.314  1.00  0.00     0.012 A
HETATM   19  C28 UNL     1      20.228  29.714  15.369  1.00  0.00     0.012 A
BRANCH  17  20
HETATM   20  C18 UNL     1      21.961  29.889  12.174  1.00  0.00     0.025 C
BRANCH  20  21
HETATM   21  C19 UNL     1      22.566  28.587  11.969  1.00  0.00    -0.006 A
HETATM   22  C20 UNL     1      23.902  28.432  12.245  1.00  0.00     0.019 A
HETATM   23  C21 UNL     1      24.773  29.539  12.747  1.00  0.00     0.069 C
HETATM   24  N2  UNL     1      24.481  27.216  12.058  1.00  0.00    -0.326 N
HETATM   25  C22 UNL     1      23.792  26.150  11.611  1.00  0.00     0.263 A
ATOM     26  H2  UNL     1      25.474  27.108  12.264  1.00  0.00     0.169 HD
HETATM   27  O2  UNL     1      24.369  25.029  11.450  1.00  0.00    -0.267 OA
HETATM   28  C23 UNL     1      22.448  26.263  11.323  1.00  0.00     0.115 A
HETATM   29  C25 UNL     1      21.848  27.509  11.511  1.00  0.00    -0.027 A
HETATM   30  C26 UNL     1      20.400  27.623  11.198  1.00  0.00     0.050 C
BRANCH  28  31
HETATM   31  C24 UNL     1      21.713  25.102  10.841  1.00  0.00     0.215 C
HETATM   32  O3  UNL     1      21.651  24.769   9.620  1.00  0.00    -0.644 OA
HETATM   33  O4  UNL     1      21.029  24.289  11.743  1.00  0.00    -0.644 OA
ENDBRANCH  28  31
ENDBRANCH  20  21
ENDBRANCH  17  20
ENDBRANCH  13  14
ENDBRANCH   5  13
BRANCH  10  34
HETATM   34  O6  UNL     1      15.305  35.568  16.111  1.00  0.00    -0.345 OA
ATOM     35  H6  UNL     1      14.465  35.551  15.668  1.00  0.00     0.219 HD
ENDBRANCH  10  34
BRANCH   1  36
HETATM   36  O1  UNL     1      19.463  37.172  18.298  1.00  0.00    -0.351 OA
BRANCH  36  37
HETATM   37  C7  UNL     1      20.071  38.134  17.457  1.00  0.00     0.177 C
BRANCH  37  38
HETATM   38  C6  UNL     1      21.566  38.068  17.638  1.00  0.00     0.047 C
BRANCH  38  39
HETATM   39  C5  UNL     1      22.209  37.730  16.328  1.00  0.00     0.130 C
BRANCH  39  40
HETATM   40  N1  UNL     1      22.433  36.306  16.179  1.00  0.00    -0.366 N
HETATM   41  C4  UNL     1      23.108  35.623  17.111  1.00  0.00     0.091 A
HETATM   42  C3  UNL     1      23.356  34.264  17.030  1.00  0.00     0.024 A
HETATM   43  C2  UNL     1      22.889  33.553  15.935  1.00  0.00    -0.059 A
HETATM   44  C1  UNL     1      23.110  32.094  15.771  1.00  0.00     0.048 C
HETATM   45  C34 UNL     1      22.195  34.268  14.981  1.00  0.00     0.024 A
HETATM   46  C33 UNL     1      21.974  35.631  15.110  1.00  0.00     0.091 A
ENDBRANCH  39  40
ENDBRANCH  38  39
ENDBRANCH  37  38
ENDBRANCH  36  37
ENDBRANCH   1  36
TORSDOF 11
ENDMDL