MODEL 1
REMARK VINA RESULT: -6.329416003      0.000      0.000
REMARK  11 active torsions:
REMARK  status: ('A' for Active; 'I' for Inactive)
REMARK    1  A    between atoms: C2_2  and  C3_3
REMARK    2  A    between atoms: C3_3  and  C4_4
REMARK    3  A    between atoms: C5_7  and  O1_8
REMARK    4  A    between atoms: C6_10  and  C7_11
REMARK    5  A    between atoms: C7_11  and  C9_13
REMARK    6  A    between atoms: C12_19  and  C13_20
REMARK    7  A    between atoms: C16_25  and  O3_26
REMARK    8  A    between atoms: C17_28  and  C18_29
REMARK    9  A    between atoms: C23_37  and  C24_38
REMARK   10  A    between atoms: C24_38  and  C25_39
REMARK   11  A    between atoms: C28_44  and  C29_45
ROOT
HETATM    1  C4  UNL     1      17.889  38.287  18.189  1.00  0.00     0.175 C
HETATM    2  N1  UNL     1      18.133  37.001  18.742  1.00  0.00    -0.359 N
ATOM      3  H1  UNL     1      18.199  37.075  19.757  1.00  0.00     0.162 HD
HETATM    4  C5  UNL     1      18.309  35.692  18.367  1.00  0.00     0.135 C
HETATM    5  C6  UNL     1      17.586  34.729  17.513  1.00  0.00     0.162 C
HETATM    6  N2  UNL     1      17.841  34.738  16.112  1.00  0.00    -0.347 N
ATOM      7  H2  UNL     1      17.654  35.638  15.669  1.00  0.00     0.163 HD
HETATM    8  C11 UNL     1      18.298  33.755  15.213  1.00  0.00     0.241 C
HETATM    9  O2  UNL     1      17.529  33.357  14.243  1.00  0.00    -0.271 OA
HETATM   10  C12 UNL     1      19.588  33.041  15.167  1.00  0.00     0.179 C
HETATM   11  N3  UNL     1      20.475  33.271  16.253  1.00  0.00    -0.359 N
ATOM     12  H3  UNL     1      20.088  33.006  17.159  1.00  0.00     0.162 HD
HETATM   13  C16 UNL     1      21.755  33.782  16.328  1.00  0.00     0.135 C
HETATM   14  C17 UNL     1      22.399  34.953  15.752  1.00  0.00     0.162 C
HETATM   15  N4  UNL     1      21.591  35.916  15.097  1.00  0.00    -0.348 N
ATOM     16  H4  UNL     1      20.745  35.557  14.652  1.00  0.00     0.163 HD
HETATM   17  C21 UNL     1      21.804  37.307  14.981  1.00  0.00     0.226 C
HETATM   18  O4  UNL     1      21.968  37.843  13.813  1.00  0.00    -0.273 OA
HETATM   19  C22 UNL     1      21.872  38.315  16.068  1.00  0.00     0.124 A
HETATM   20  C23 UNL     1      21.307  37.869  17.378  1.00  0.00     0.102 A
HETATM   21  N5  UNL     1      20.241  38.810  17.341  1.00  0.00    -0.339 N
HETATM   22  C27 UNL     1      19.211  39.098  18.202  1.00  0.00     0.243 C
HETATM   23  O5  UNL     1      19.148  40.000  19.093  1.00  0.00    -0.271 OA
HETATM   24  C28 UNL     1      20.673  39.256  16.072  1.00  0.00     0.106 A
ENDROOT
BRANCH   5  25
HETATM   25  C7  UNL     1      16.071  34.773  17.845  1.00  0.00     0.012 C
HETATM   26  C8  UNL     1      15.626  33.330  17.866  1.00  0.00     0.012 C
BRANCH  25  27
HETATM   27  C9  UNL     1      15.374  35.629  16.858  1.00  0.00     0.002 C
HETATM   28  C10 UNL     1      14.687  34.845  15.760  1.00  0.00     0.005 C
ENDBRANCH  25  27
ENDBRANCH   5  25
BRANCH   4  29
HETATM   29  O1  UNL     1      19.381  35.143  18.893  1.00  0.00    -0.348 OA
ATOM     30  H1  UNL     1      19.915  34.681  18.258  1.00  0.00     0.219 HD
ENDBRANCH   4  29
BRANCH   1  31
HETATM   31  C3  UNL     1      17.232  38.431  16.878  1.00  0.00     0.034 C
BRANCH  31  32
HETATM   32  C2  UNL     1      16.478  39.766  16.862  1.00  0.00    -0.002 C
HETATM   33  C1  UNL     1      15.489  39.838  18.001  1.00  0.00     0.005 C
ENDBRANCH  31  32
ENDBRANCH   1  31
BRANCH  10  34
HETATM   34  C13 UNL     1      19.302  31.538  15.002  1.00  0.00     0.009 C
HETATM   35  C14 UNL     1      20.346  30.820  14.226  1.00  0.00     0.012 C
HETATM   36  C15 UNL     1      19.017  30.901  16.328  1.00  0.00     0.012 C
ENDBRANCH  10  34
BRANCH  13  37
HETATM   37  O3  UNL     1      22.585  33.092  17.062  1.00  0.00    -0.348 OA
ATOM     38  H3  UNL     1      23.354  33.566  17.355  1.00  0.00     0.219 HD
ENDBRANCH  13  37
BRANCH  20  39
HETATM   39  C24 UNL     1      22.364  37.987  18.441  1.00  0.00     0.026 C
BRANCH  39  40
HETATM   40  C25 UNL     1      23.362  39.090  18.208  1.00  0.00    -0.002 C
HETATM   41  C26 UNL     1      22.981  40.203  19.197  1.00  0.00     0.005 C
ENDBRANCH  39  40
ENDBRANCH  20  39
BRANCH  24  42
HETATM   42  C29 UNL     1      20.976  40.708  15.840  1.00  0.00     0.001 C
HETATM   43  C30 UNL     1      19.745  41.598  15.974  1.00  0.00     0.011 C
HETATM   44  C31 UNL     1      21.700  41.051  14.596  1.00  0.00     0.011 C
ENDBRANCH  24  42
BRANCH  14  45
HETATM   45  C18 UNL     1      23.571  34.486  14.893  1.00  0.00     0.008 C
HETATM   46  C19 UNL     1      23.333  33.154  14.268  1.00  0.00     0.012 C
HETATM   47  C20 UNL     1      24.870  34.455  15.660  1.00  0.00     0.012 C
ENDBRANCH  14  45
TORSDOF 11
ENDMDL