MODEL 5
REMARK VINA RESULT: -8.026911078      2.672      4.566
REMARK  9 active torsions:
REMARK  status: ('A' for Active; 'I' for Inactive)
REMARK    1  A    between atoms: C2_2  and  C3_3
REMARK    2  A    between atoms: C3_3  and  C4_4
REMARK    3  A    between atoms: C6_9  and  C7_10
REMARK    4  A    between atoms: C7_10  and  C8_11
REMARK    5  A    between atoms: C16_22  and  C17_23
REMARK    6  A    between atoms: C22_30  and  C23_31
REMARK    7  A    between atoms: C23_31  and  C24_32
REMARK    8  A    between atoms: C27_36  and  C28_37
REMARK    9  A    between atoms: C28_37  and  C29_38
ROOT
HETATM    1  C4  UNL     1      22.812  28.448  12.863  1.00  0.00     0.176 C
HETATM    2  N1  UNL     1      21.934  28.228  13.976  1.00  0.00    -0.346 N
ATOM      3  H1  UNL     1      22.378  27.755  14.764  1.00  0.00     0.163 HD
HETATM    4  C5  UNL     1      20.608  28.532  14.187  1.00  0.00     0.241 C
HETATM    5  O1  UNL     1      19.844  27.542  14.516  1.00  0.00    -0.271 OA
HETATM    6  C6  UNL     1      19.864  29.795  14.110  1.00  0.00     0.180 C
HETATM    7  N2  UNL     1      18.447  29.636  13.828  1.00  0.00    -0.346 N
ATOM      8  H2  UNL     1      17.855  30.428  14.078  1.00  0.00     0.163 HD
HETATM    9  C15 UNL     1      17.784  28.535  13.256  1.00  0.00     0.241 C
HETATM   10  O2  UNL     1      16.850  28.022  13.974  1.00  0.00    -0.271 OA
HETATM   11  C16 UNL     1      18.018  27.906  11.957  1.00  0.00     0.182 C
HETATM   12  N3  UNL     1      17.716  26.523  11.836  1.00  0.00    -0.342 N
HETATM   13  C20 UNL     1      16.741  25.802  12.663  1.00  0.00     0.153 C
HETATM   14  C21 UNL     1      18.372  25.735  10.858  1.00  0.00     0.231 C
HETATM   15  O3  UNL     1      17.800  24.683  10.397  1.00  0.00    -0.273 OA
HETATM   16  C22 UNL     1      19.712  26.001  10.277  1.00  0.00     0.149 C
HETATM   17  C26 UNL     1      20.711  25.467  11.266  1.00  0.00     0.162 C
HETATM   18  O4  UNL     1      20.286  24.673  12.112  1.00  0.00    -0.295 OA
HETATM   19  C27 UNL     1      22.111  25.882  11.219  1.00  0.00     0.155 C
HETATM   20  N4  UNL     1      22.065  27.283  10.699  1.00  0.00    -0.348 N
ATOM     21  H4  UNL     1      21.955  27.428   9.696  1.00  0.00     0.163 HD
HETATM   22  C32 UNL     1      22.169  28.415  11.542  1.00  0.00     0.241 C
HETATM   23  O5  UNL     1      21.657  29.475  11.096  1.00  0.00    -0.271 OA
ENDROOT
BRANCH   6  24
HETATM   24  C7  UNL     1      19.956  30.556  15.435  1.00  0.00     0.073 C
BRANCH  24  25
HETATM   25  C8  UNL     1      21.014  31.540  15.520  1.00  0.00    -0.056 A
HETATM   26  C9  UNL     1      21.338  32.333  14.424  1.00  0.00     0.007 A
HETATM   27  C10 UNL     1      22.332  33.286  14.485  1.00  0.00     0.007 A
HETATM   28  C11 UNL     1      23.058  33.499  15.638  1.00  0.00    -0.062 A
HETATM   29  C12 UNL     1      24.123  34.532  15.665  1.00  0.00     0.048 C
HETATM   30  C13 UNL     1      22.750  32.723  16.734  1.00  0.00     0.007 A
HETATM   31  C14 UNL     1      21.748  31.769  16.660  1.00  0.00     0.007 A
ENDBRANCH  24  25
ENDBRANCH   6  24
BRANCH   1  32
HETATM   32  C3  UNL     1      23.678  29.700  13.043  1.00  0.00     0.034 C
BRANCH  32  33
HETATM   33  C2  UNL     1      25.095  29.428  12.600  1.00  0.00    -0.002 C
HETATM   34  C1  UNL     1      25.529  28.042  13.059  1.00  0.00     0.005 C
ENDBRANCH  32  33
ENDBRANCH   1  32
BRANCH  11  35
HETATM   35  C17 UNL     1      17.348  28.637  10.813  1.00  0.00     0.009 C
HETATM   36  C18 UNL     1      15.950  29.095  11.177  1.00  0.00     0.012 C
HETATM   37  C19 UNL     1      17.297  27.852   9.549  1.00  0.00     0.012 C
ENDBRANCH  11  35
BRANCH  19  38
HETATM   38  C28 UNL     1      23.135  25.139  10.496  1.00  0.00     0.037 C
BRANCH  38  39
HETATM   39  C29 UNL     1      23.904  25.860   9.465  1.00  0.00    -0.020 C
HETATM   40  C30 UNL     1      25.272  26.300   9.789  1.00  0.00     0.009 C
HETATM   41  C31 UNL     1      23.953  25.026   8.159  1.00  0.00     0.009 C
ENDBRANCH  38  39
ENDBRANCH  19  38
BRANCH  16  42
HETATM   42  C23 UNL     1      19.853  25.405   8.900  1.00  0.00     0.021 C
BRANCH  42  43
HETATM   43  C24 UNL     1      19.082  26.195   7.864  1.00  0.00    -0.003 C
HETATM   44  C25 UNL     1      18.334  25.255   6.948  1.00  0.00     0.005 C
ENDBRANCH  42  43
ENDBRANCH  16  42
TORSDOF 9
ENDMDL