MODEL 1
REMARK VINA RESULT: -3.880585882      0.000      0.000
REMARK  9 active torsions:
REMARK  status: ('A' for Active; 'I' for Inactive)
REMARK    1  A    between atoms: C2_2  and  C3_3
REMARK    2  A    between atoms: C3_3  and  C4_4
REMARK    3  A    between atoms: C4_4  and  C5_5
REMARK    4  A    between atoms: C5_5  and  C6_6
REMARK    5  A    between atoms: C8_11  and  C9_12
REMARK    6  A    between atoms: C9_12  and  C10_13
REMARK    7  A    between atoms: C14_20  and  C15_21
REMARK    8  A    between atoms: C24_35  and  C25_36
REMARK    9  A    between atoms: C25_36  and  C26_37
ROOT
HETATM    1  C6  UNL     1      21.668  38.063  15.995  1.00  0.00     0.097 C
HETATM    2  N1  UNL     1      22.373  39.268  16.398  1.00  0.00    -0.354 N
ATOM      3  H1  UNL     1      23.206  39.490  15.854  1.00  0.00     0.162 HD
HETATM    4  C7  UNL     1      22.069  40.166  17.425  1.00  0.00     0.240 C
HETATM    5  O1  UNL     1      21.995  41.389  17.127  1.00  0.00    -0.271 OA
HETATM    6  C8  UNL     1      21.820  39.861  18.867  1.00  0.00     0.177 C
HETATM    7  N2  UNL     1      20.491  40.043  19.325  1.00  0.00    -0.346 N
ATOM      8  H2  UNL     1      20.325  39.631  20.243  1.00  0.00     0.163 HD
HETATM    9  C13 UNL     1      19.358  40.667  18.790  1.00  0.00     0.241 C
HETATM   10  O2  UNL     1      18.917  41.744  19.337  1.00  0.00    -0.271 OA
HETATM   11  C14 UNL     1      18.530  40.260  17.627  1.00  0.00     0.180 C
HETATM   12  N3  UNL     1      17.426  39.460  18.197  1.00  0.00    -0.346 N
ATOM     13  H3  UNL     1      16.598  39.964  18.515  1.00  0.00     0.163 HD
HETATM   14  C18 UNL     1      17.424  38.064  18.337  1.00  0.00     0.241 C
HETATM   15  O3  UNL     1      17.280  37.547  19.510  1.00  0.00    -0.271 OA
HETATM   16  C19 UNL     1      17.577  37.114  17.207  1.00  0.00     0.179 C
HETATM   17  C20 UNL     1      16.361  37.107  16.293  1.00  0.00     0.037 C
HETATM   18  C21 UNL     1      15.482  36.011  16.804  1.00  0.00     0.022 C
HETATM   19  C22 UNL     1      16.237  35.377  17.949  1.00  0.00     0.127 C
HETATM   20  N4  UNL     1      17.622  35.733  17.691  1.00  0.00    -0.337 N
HETATM   21  C23 UNL     1      18.859  35.058  17.816  1.00  0.00     0.243 C
HETATM   22  O4  UNL     1      19.071  34.417  18.898  1.00  0.00    -0.271 OA
HETATM   23  C24 UNL     1      19.946  35.019  16.804  1.00  0.00     0.177 C
HETATM   24  N5  UNL     1      21.230  35.085  17.471  1.00  0.00    -0.347 N
ATOM     25  H5  UNL     1      21.408  34.369  18.176  1.00  0.00     0.163 HD
HETATM   26  C29 UNL     1      22.258  36.016  17.263  1.00  0.00     0.224 C
HETATM   27  O5  UNL     1      23.062  36.177  18.233  1.00  0.00    -0.273 OA
HETATM   28  C30 UNL     1      22.501  36.824  16.036  1.00  0.00     0.096 C
HETATM   29  C31 UNL     1      22.462  35.937  14.838  1.00  0.00     0.022 C
ENDROOT
BRANCH   1  30
HETATM   30  C5  UNL     1      20.956  38.330  14.688  1.00  0.00     0.026 C
BRANCH  30  31
HETATM   31  C4  UNL     1      21.267  39.638  14.056  1.00  0.00     0.002 C
BRANCH  31  32
HETATM   32  C3  UNL     1      21.826  39.485  12.645  1.00  0.00    -0.000 C
BRANCH  32  33
HETATM   33  C2  UNL     1      22.793  40.559  12.269  1.00  0.00    -0.005 C
HETATM   34  C1  UNL     1      22.952  41.453  13.505  1.00  0.00     0.005 C
ENDBRANCH  32  33
ENDBRANCH  31  32
ENDBRANCH  30  31
ENDBRANCH   1  30
BRANCH   6  35
HETATM   35  C9  UNL     1      22.907  40.519  19.698  1.00  0.00     0.038 C
BRANCH  35  36
HETATM   36  C10 UNL     1      24.059  39.692  20.101  1.00  0.00    -0.020 C
HETATM   37  C11 UNL     1      25.302  40.447  19.535  1.00  0.00     0.009 C
HETATM   38  C12 UNL     1      24.336  39.665  21.600  1.00  0.00     0.009 C
ENDBRANCH  35  36
ENDBRANCH   6  35
BRANCH  23  39
HETATM   39  C25 UNL     1      19.886  33.608  16.210  1.00  0.00     0.038 C
BRANCH  39  40
HETATM   40  C26 UNL     1      18.503  33.088  16.035  1.00  0.00    -0.020 C
HETATM   41  C27 UNL     1      18.614  31.559  16.141  1.00  0.00     0.009 C
HETATM   42  C28 UNL     1      17.879  33.388  14.710  1.00  0.00     0.009 C
ENDBRANCH  39  40
ENDBRANCH  23  39
BRANCH  11  43
HETATM   43  C15 UNL     1      17.840  41.440  17.001  1.00  0.00     0.009 C
HETATM   44  C16 UNL     1      16.581  40.922  16.294  1.00  0.00     0.012 C
HETATM   45  C17 UNL     1      18.631  42.286  16.089  1.00  0.00     0.012 C
ENDBRANCH  11  43
TORSDOF 9
ENDMDL