MODEL 5
REMARK VINA RESULT: -3.564926153      6.631     10.460
REMARK  10 active torsions:
REMARK  status: ('A' for Active; 'I' for Inactive)
REMARK    1  A    between atoms: C2_2  and  C3_3
REMARK    2  A    between atoms: C4_4  and  O1_5
REMARK    3  A    between atoms: C5_9  and  C6_10
REMARK    4  A    between atoms: C6_10  and  C7_11
REMARK    5  A    between atoms: C11_18  and  C12_19
REMARK    6  A    between atoms: C12_19  and  C13_20
REMARK    7  A    between atoms: C18_29  and  C19_30
REMARK    8  A    between atoms: C19_30  and  C20_31
REMARK    9  A    between atoms: C25_39  and  C26_40
REMARK   10  A    between atoms: C26_40  and  C27_41
ROOT
HETATM    1  C3  UNL     1      18.824  31.613  14.279  1.00  0.00     0.160 C
HETATM    2  C4  UNL     1      18.571  30.257  14.772  1.00  0.00     0.135 C
HETATM    3  N1  UNL     1      18.628  29.022  14.145  1.00  0.00    -0.359 N
ATOM      4  H1  UNL     1      19.290  28.377  14.577  1.00  0.00     0.162 HD
HETATM    5  C5  UNL     1      17.945  28.466  13.016  1.00  0.00     0.176 C
HETATM    6  C10 UNL     1      18.192  26.988  12.896  1.00  0.00     0.242 C
HETATM    7  O2  UNL     1      17.526  26.194  13.668  1.00  0.00    -0.271 OA
HETATM    8  N2  UNL     1      19.090  26.366  12.014  1.00  0.00    -0.338 N
ATOM      9  H2  UNL     1      19.058  25.347  11.997  1.00  0.00     0.164 HD
HETATM   10  C11 UNL     1      20.050  26.976  11.129  1.00  0.00     0.193 C
HETATM   11  N3  UNL     1      21.377  26.639  11.599  1.00  0.00    -0.338 N
ATOM     12  H3  UNL     1      21.732  25.723  11.323  1.00  0.00     0.164 HD
HETATM   13  C17 UNL     1      22.224  27.415  12.382  1.00  0.00     0.242 C
HETATM   14  O4  UNL     1      22.636  26.895  13.482  1.00  0.00    -0.271 OA
HETATM   15  C18 UNL     1      22.715  28.804  12.084  1.00  0.00     0.177 C
HETATM   16  N4  UNL     1      23.862  29.013  12.927  1.00  0.00    -0.348 N
ATOM     17  H4  UNL     1      24.754  28.682  12.558  1.00  0.00     0.163 HD
HETATM   18  C23 UNL     1      23.907  29.619  14.202  1.00  0.00     0.219 C
HETATM   19  O5  UNL     1      24.365  28.868  15.139  1.00  0.00    -0.274 OA
HETATM   20  C24 UNL     1      23.503  30.983  14.582  1.00  0.00     0.117 C
HETATM   21  C25 UNL     1      22.104  31.179  15.041  1.00  0.00     0.087 C
HETATM   22  C30 UNL     1      21.344  32.020  14.021  1.00  0.00     0.224 C
HETATM   23  O6  UNL     1      22.072  32.995  13.590  1.00  0.00    -0.273 OA
HETATM   24  N5  UNL     1      20.047  31.840  13.560  1.00  0.00    -0.344 N
HETATM   25  C31 UNL     1      19.864  31.913  12.091  1.00  0.00     0.153 C
ENDROOT
BRANCH  10  26
HETATM   26  C12 UNL     1      19.914  26.555   9.696  1.00  0.00     0.112 C
BRANCH  26  27
HETATM   27  C13 UNL     1      18.669  25.915   9.312  1.00  0.00     0.056 A
HETATM   28  C14 UNL     1      17.919  26.288   8.214  1.00  0.00     0.035 A
HETATM   29  C15 UNL     1      16.820  25.466   8.170  1.00  0.00     0.027 A
HETATM   30  C16 UNL     1      16.929  24.617   9.236  1.00  0.00     0.142 A
HETATM   31  O3  UNL     1      18.032  24.934   9.861  1.00  0.00    -0.327 OA
ENDBRANCH  26  27
ENDBRANCH  10  26
BRANCH   5  32
HETATM   32  C6  UNL     1      16.436  28.569  13.045  1.00  0.00     0.038 C
BRANCH  32  33
HETATM   33  C7  UNL     1      15.925  28.703  11.624  1.00  0.00    -0.020 C
HETATM   34  C8  UNL     1      15.318  27.437  11.087  1.00  0.00     0.009 C
HETATM   35  C9  UNL     1      17.156  28.991  10.754  1.00  0.00     0.009 C
ENDBRANCH  32  33
ENDBRANCH   5  32
BRANCH  15  36
HETATM   36  C19 UNL     1      22.998  28.998  10.649  1.00  0.00     0.038 C
BRANCH  36  37
HETATM   37  C20 UNL     1      24.316  28.646  10.096  1.00  0.00    -0.020 C
HETATM   38  C21 UNL     1      25.487  29.069  10.904  1.00  0.00     0.009 C
HETATM   39  C22 UNL     1      24.459  27.123   9.892  1.00  0.00     0.009 C
ENDBRANCH  36  37
ENDBRANCH  15  36
BRANCH   2  40
HETATM   40  O1  UNL     1      18.233  30.188  16.029  1.00  0.00    -0.348 OA
ATOM     41  H1  UNL     1      18.063  29.309  16.347  1.00  0.00     0.219 HD
ENDBRANCH   2  40
BRANCH   1  42
HETATM   42  C2  UNL     1      17.611  32.228  13.543  1.00  0.00     0.029 C
HETATM   43  C1  UNL     1      17.239  33.459  14.387  1.00  0.00     0.007 C
ENDBRANCH   1  42
BRANCH  21  44
HETATM   44  C26 UNL     1      21.831  31.804  16.337  1.00  0.00     0.018 C
BRANCH  44  45
HETATM   45  C27 UNL     1      21.825  33.255  16.559  1.00  0.00    -0.022 C
HETATM   46  C28 UNL     1      22.773  33.557  17.786  1.00  0.00     0.009 C
HETATM   47  C29 UNL     1      20.499  33.827  17.024  1.00  0.00     0.009 C
ENDBRANCH  44  45
ENDBRANCH  21  44
TORSDOF 10
ENDMDL