MODEL 3
REMARK VINA RESULT: -5.769874537      2.337      7.741
REMARK  13 active torsions:
REMARK  status: ('A' for Active; 'I' for Inactive)
REMARK    1  A    between atoms: C2_2  and  C4_4
REMARK    2  A    between atoms: C4_4  and  C5_5
REMARK    3  A    between atoms: C7_10  and  C8_11
REMARK    4  A    between atoms: C8_11  and  C9_12
REMARK    5  A    between atoms: C11_19  and  C12_20
REMARK    6  A    between atoms: C12_20  and  C13_21
REMARK    7  A    between atoms: C17_28  and  C18_29
REMARK    8  A    between atoms: C18_29  and  C19_30
REMARK    9  A    between atoms: C23_37  and  C24_38
REMARK   10  A    between atoms: C24_38  and  C25_39
REMARK   11  A    between atoms: C29_46  and  C30_47
REMARK   12  A    between atoms: C30_47  and  C31_48
REMARK   13  A    between atoms: C34_53  and  O7_54
ROOT
HETATM    1  C5  UNL     1       4.005 -10.634  17.534  1.00  0.00     0.159 C
HETATM    2  N1  UNL     1       3.651  -9.253  17.301  1.00  0.00    -0.347 N
ATOM      3  H1  UNL     1       2.712  -9.082  16.942  1.00  0.00     0.163 HD
HETATM    4  C6  UNL     1       4.449  -8.122  17.512  1.00  0.00     0.241 C
HETATM    5  O1  UNL     1       4.377  -7.175  16.681  1.00  0.00    -0.271 OA
HETATM    6  C7  UNL     1       5.396  -7.902  18.635  1.00  0.00     0.185 C
HETATM    7  N3  UNL     1       6.640  -7.449  18.009  1.00  0.00    -0.346 N
ATOM      8  H3  UNL     1       6.565  -6.755  17.266  1.00  0.00     0.163 HD
HETATM    9  C10 UNL     1       7.924  -7.891  18.350  1.00  0.00     0.241 C
HETATM   10  O3  UNL     1       8.906  -7.076  18.420  1.00  0.00    -0.271 OA
HETATM   11  C11 UNL     1       8.243  -9.309  18.651  1.00  0.00     0.177 C
HETATM   12  N4  UNL     1       9.125  -9.449  19.806  1.00  0.00    -0.346 N
ATOM     13  H4  UNL     1       9.728  -8.663  20.048  1.00  0.00     0.163 HD
HETATM   14  C16 UNL     1       9.194 -10.610  20.607  1.00  0.00     0.244 C
HETATM   15  O4  UNL     1      10.366 -11.006  20.911  1.00  0.00    -0.271 OA
HETATM   16  C17 UNL     1       7.996 -11.382  21.106  1.00  0.00     0.200 C
HETATM   17  N5  UNL     1       7.973 -12.699  20.529  1.00  0.00    -0.343 N
ATOM     18  H5  UNL     1       8.892 -13.040  20.246  1.00  0.00     0.163 HD
HETATM   19  C22 UNL     1       6.941 -13.601  20.283  1.00  0.00     0.241 C
HETATM   20  O5  UNL     1       6.796 -14.049  19.077  1.00  0.00    -0.271 OA
HETATM   21  C23 UNL     1       5.936 -14.159  21.219  1.00  0.00     0.177 C
HETATM   22  N6  UNL     1       4.712 -13.430  21.334  1.00  0.00    -0.346 N
ATOM     23  H6  UNL     1       4.441 -13.242  22.299  1.00  0.00     0.163 HD
HETATM   24  C28 UNL     1       3.821 -12.929  20.407  1.00  0.00     0.241 C
HETATM   25  O6  UNL     1       3.507 -11.679  20.523  1.00  0.00    -0.271 OA
HETATM   26  C29 UNL     1       3.143 -13.593  19.275  1.00  0.00     0.175 C
HETATM   27  N7  UNL     1       2.584 -12.676  18.310  1.00  0.00    -0.359 N
ATOM     28  H7  UNL     1       1.886 -13.108  17.704  1.00  0.00     0.162 HD
HETATM   29  C34 UNL     1       2.789 -11.350  18.034  1.00  0.00     0.135 C
ENDROOT
BRANCH   1  30
HETATM   30  C4  UNL     1       4.533 -11.241  16.272  1.00  0.00     0.037 C
BRANCH  30  31
HETATM   31  C2  UNL     1       3.662 -11.267  15.082  1.00  0.00    -0.020 C
HETATM   32  C1  UNL     1       3.342 -12.743  14.721  1.00  0.00     0.009 C
HETATM   33  C3  UNL     1       4.215 -10.689  13.809  1.00  0.00     0.009 C
ENDBRANCH  30  31
ENDBRANCH   1  30
BRANCH  29  34
HETATM   34  O7  UNL     1       1.750 -10.593  18.241  1.00  0.00    -0.348 OA
ATOM     35  H7  UNL     1       1.405 -10.618  19.125  1.00  0.00     0.219 HD
ENDBRANCH  29  34
BRANCH   6  36
HETATM   36  C8  UNL     1       4.926  -6.678  19.434  1.00  0.00     0.134 C
BRANCH  36  37
HETATM   37  C9  UNL     1       3.617  -6.841  20.048  1.00  0.00     0.233 C
HETATM   38  N2  UNL     1       2.981  -8.108  20.054  1.00  0.00    -0.062 NA
HETATM   39  O2  UNL     1       3.010  -5.893  20.587  1.00  0.00    -0.277 OA
ENDBRANCH  36  37
ENDBRANCH   6  36
BRANCH  26  40
HETATM   40  C30 UNL     1       2.172 -14.663  19.663  1.00  0.00     0.038 C
BRANCH  40  41
HETATM   41  C31 UNL     1       1.340 -14.529  20.846  1.00  0.00    -0.020 C
HETATM   42  C32 UNL     1       0.142 -13.657  20.818  1.00  0.00     0.009 C
HETATM   43  C33 UNL     1       0.908 -15.868  21.464  1.00  0.00     0.009 C
ENDBRANCH  40  41
ENDBRANCH  26  40
BRANCH  11  44
HETATM   44  C12 UNL     1       8.731 -10.054  17.452  1.00  0.00     0.038 C
BRANCH  44  45
HETATM   45  C13 UNL     1       8.624 -11.533  17.500  1.00  0.00    -0.020 C
HETATM   46  C14 UNL     1      10.069 -12.062  17.458  1.00  0.00     0.009 C
HETATM   47  C15 UNL     1       7.953 -12.162  16.298  1.00  0.00     0.009 C
ENDBRANCH  44  45
ENDBRANCH  11  44
BRANCH  21  48
HETATM   48  C24 UNL     1       5.679 -15.643  20.885  1.00  0.00     0.038 C
BRANCH  48  49
HETATM   49  C25 UNL     1       4.749 -16.249  21.902  1.00  0.00    -0.020 C
HETATM   50  C26 UNL     1       4.225 -17.603  21.518  1.00  0.00     0.009 C
HETATM   51  C27 UNL     1       5.607 -16.448  23.163  1.00  0.00     0.009 C
ENDBRANCH  48  49
ENDBRANCH  21  48
BRANCH  16  52
HETATM   52  C18 UNL     1       7.726 -11.249  22.538  1.00  0.00     0.010 C
BRANCH  52  53
HETATM   53  C19 UNL     1       8.174 -12.198  23.554  1.00  0.00    -0.089 C
HETATM   54  C20 UNL     1       9.433 -11.873  24.305  1.00  0.00     0.042 C
HETATM   55  C21 UNL     1       7.098 -12.812  24.424  1.00  0.00     0.042 C
ENDBRANCH  52  53
ENDBRANCH  16  52
TORSDOF 13
ENDMDL