MODEL 5
REMARK VINA RESULT: -6.209655017      1.998      5.394
REMARK  17 active torsions:
REMARK  status: ('A' for Active; 'I' for Inactive)
REMARK    1  A    between atoms: O1_2  and  C2_3
REMARK    2  A    between atoms: C6_7  and  C7_8
REMARK    3  A    between atoms: C7_8  and  C8_9
REMARK    4  A    between atoms: C10_14  and  C11_15
REMARK    5  A    between atoms: C11_15  and  C12_16
REMARK    6  A    between atoms: C15_21  and  O3_22
REMARK    7  A    between atoms: C16_24  and  C17_25
REMARK    8  A    between atoms: C17_25  and  C18_26
REMARK    9  A    between atoms: C22_31  and  O4_32
REMARK   10  A    between atoms: C23_34  and  C24_35
REMARK   11  A    between atoms: C24_35  and  C25_36
REMARK   12  A    between atoms: C25_36  and  C26_37
REMARK   13  A    between atoms: C26_37  and  N4_38
REMARK   14  A    between atoms: C27_44  and  O5_45
REMARK   15  A    between atoms: C28_47  and  C29_48
REMARK   16  A    between atoms: C29_48  and  C30_49
REMARK   17  A    between atoms: C30_49  and  C31_50
ROOT
HETATM    1  C8  UNL     1       7.608   2.400  11.382  1.00  0.00     0.181 C
HETATM    2  N1  UNL     1       6.939   2.886  12.556  1.00  0.00    -0.346 N
ATOM      3  H1  UNL     1       7.212   3.806  12.902  1.00  0.00     0.163 HD
HETATM    4  C9  UNL     1       5.943   2.205  13.269  1.00  0.00     0.241 C
HETATM    5  O2  UNL     1       5.860   2.226  14.519  1.00  0.00    -0.271 OA
HETATM    6  C10 UNL     1       4.892   1.390  12.554  1.00  0.00     0.175 C
HETATM    7  N2  UNL     1       3.713   2.263  12.629  1.00  0.00    -0.359 N
ATOM      8  H2  UNL     1       3.195   2.247  13.507  1.00  0.00     0.162 HD
HETATM    9  C15 UNL     1       3.221   3.112  11.635  1.00  0.00     0.135 C
HETATM   10  C16 UNL     1       2.778   2.674  10.309  1.00  0.00     0.160 C
HETATM   11  N3  UNL     1       2.423   3.775   9.398  1.00  0.00    -0.356 N
HETATM   12  C21 UNL     1       1.681   4.888   9.944  1.00  0.00     0.152 C
HETATM   13  C22 UNL     1       2.726   3.785   8.011  1.00  0.00     0.137 C
HETATM   14  C23 UNL     1       4.056   3.624   7.379  1.00  0.00     0.158 C
HETATM   15  N5  UNL     1       5.147   4.227   8.083  1.00  0.00    -0.357 N
ATOM     16  H5  UNL     1       4.836   4.776   8.883  1.00  0.00     0.162 HD
HETATM   17  C27 UNL     1       6.516   4.244   7.939  1.00  0.00     0.159 C
HETATM   18  C28 UNL     1       7.589   3.257   8.091  1.00  0.00     0.062 C
HETATM   19  N6  UNL     1       8.476   3.534   9.230  1.00  0.00    -0.325 N
ATOM     20  H6  UNL     1       9.447   3.748   8.999  1.00  0.00     0.169 HD
HETATM   21  C34 UNL     1       8.157   3.541  10.577  1.00  0.00     0.245 C
HETATM   22  O6  UNL     1       8.337   4.622  11.249  1.00  0.00    -0.271 OA
ENDROOT
BRANCH   1  23
HETATM   23  C7  UNL     1       8.773   1.524  11.879  1.00  0.00     0.073 C
BRANCH  23  24
HETATM   24  C6  UNL     1       8.324   0.298  12.535  1.00  0.00    -0.053 A
HETATM   25  C5  UNL     1       7.435  -0.529  11.913  1.00  0.00     0.007 A
HETATM   26  C4  UNL     1       7.015  -1.676  12.541  1.00  0.00     0.003 A
HETATM   27  C3  UNL     1       7.458  -2.025  13.784  1.00  0.00     0.037 A
HETATM   28  C2  UNL     1       8.362  -1.166  14.395  1.00  0.00     0.068 A
HETATM   29  C35 UNL     1       8.799  -0.010  13.784  1.00  0.00     0.044 A
BRANCH  28  30
HETATM   30  O1  UNL     1       8.868  -1.442  15.660  1.00  0.00    -0.356 OA
HETATM   31  C1  UNL     1       9.860  -2.470  15.783  1.00  0.00     0.210 C
ENDBRANCH  28  30
ENDBRANCH  23  24
ENDBRANCH   1  23
BRANCH   6  32
HETATM   32  C11 UNL     1       4.723   0.162  13.449  1.00  0.00     0.038 C
BRANCH  32  33
HETATM   33  C12 UNL     1       3.462  -0.594  13.227  1.00  0.00    -0.020 C
HETATM   34  C13 UNL     1       3.710  -2.102  13.223  1.00  0.00     0.009 C
HETATM   35  C14 UNL     1       2.515  -0.288  14.360  1.00  0.00     0.009 C
ENDBRANCH  32  33
ENDBRANCH   6  32
BRANCH  18  36
HETATM   36  C29 UNL     1       7.369   1.832   7.810  1.00  0.00     0.062 C
BRANCH  36  37
HETATM   37  C30 UNL     1       6.930   1.492   6.411  1.00  0.00     0.010 C
BRANCH  37  38
HETATM   38  C31 UNL     1       7.914   1.991   5.373  1.00  0.00    -0.023 C
HETATM   39  C32 UNL     1       7.288   2.978   4.441  1.00  0.00     0.009 C
HETATM   40  C33 UNL     1       8.467   0.811   4.640  1.00  0.00     0.009 C
ENDBRANCH  37  38
ENDBRANCH  36  37
ENDBRANCH  18  36
BRANCH  17  41
HETATM   41  O5  UNL     1       7.008   5.415   7.585  1.00  0.00    -0.345 OA
ATOM     42  H5  UNL     1       7.475   5.866   8.279  1.00  0.00     0.219 HD
ENDBRANCH  17  41
BRANCH   9  43
HETATM   43  O3  UNL     1       3.160   4.377  11.931  1.00  0.00    -0.348 OA
ATOM     44  H3  UNL     1       3.862   4.718  12.474  1.00  0.00     0.219 HD
ENDBRANCH   9  43
BRANCH  10  45
HETATM   45  C17 UNL     1       1.718   1.618  10.266  1.00  0.00     0.037 C
BRANCH  45  46
HETATM   46  C18 UNL     1       0.787   1.498  11.408  1.00  0.00    -0.020 C
HETATM   47  C19 UNL     1      -0.470   2.363  11.066  1.00  0.00     0.009 C
HETATM   48  C20 UNL     1       0.206   0.122  11.645  1.00  0.00     0.009 C
ENDBRANCH  45  46
ENDBRANCH  10  45
BRANCH  14  49
HETATM   49  C24 UNL     1       3.944   4.115   5.949  1.00  0.00     0.035 C
BRANCH  49  50
HETATM   50  C25 UNL     1       4.127   5.571   5.752  1.00  0.00     0.030 C
BRANCH  50  51
HETATM   51  C26 UNL     1       3.022   6.181   4.898  1.00  0.00     0.230 C
BRANCH  51  52
HETATM   52  N4  UNL     1       1.890   6.585   5.710  1.00  0.00    -0.079 N
ATOM     53  H43 UNL     1       1.248   5.808   5.870  1.00  0.00     0.274 HD
ATOM     54  H42 UNL     1       2.166   6.762   6.676  1.00  0.00     0.274 HD
ATOM     55  H41 UNL     1       1.410   7.389   5.304  1.00  0.00     0.274 HD
ENDBRANCH  51  52
ENDBRANCH  50  51
ENDBRANCH  49  50
ENDBRANCH  14  49
BRANCH  13  56
HETATM   56  O4  UNL     1       1.683   3.955   7.247  1.00  0.00    -0.348 OA
ATOM     57  H4  UNL     1       1.038   4.553   7.607  1.00  0.00     0.219 HD
ENDBRANCH  13  56
TORSDOF 17
ENDMDL