MODEL 2
REMARK VINA RESULT: -7.120862650      6.409     10.941
REMARK  14 active torsions:
REMARK  status: ('A' for Active; 'I' for Inactive)
REMARK    1  A    between atoms: C2_2  and  C3_3
REMARK    2  A    between atoms: C3_3  and  C4_4
REMARK    3  A    between atoms: C5_5  and  C6_6
REMARK    4  A    between atoms: C6_6  and  C7_7
REMARK    5  A    between atoms: N2_14  and  C12_15
REMARK    6  A    between atoms: C17_24  and  C18_25
REMARK    7  A    between atoms: C18_25  and  C19_26
REMARK    8  A    between atoms: C22_29  and  O3_30
REMARK    9  A    between atoms: C26_38  and  C27_39
REMARK   10  A    between atoms: C31_46  and  C32_47
REMARK   11  A    between atoms: C32_47  and  C33_48
REMARK   12  A    between atoms: C33_48  and  C34_49
REMARK   13  A    between atoms: C34_49  and  C35_50
REMARK   14  A    between atoms: C35_50  and  N6_51
ROOT
HETATM    1  C4  UNL     1       3.273   0.847  12.253  1.00  0.00     0.142 C
HETATM    2  C5  UNL     1       3.853   0.110  13.449  1.00  0.00     0.038 C
HETATM    3  N2  UNL     1       4.811   0.876  14.135  1.00  0.00    -0.318 N
HETATM    4  C14 UNL     1       5.835   1.469  13.303  1.00  0.00     0.256 C
HETATM    5  O1  UNL     1       6.898   1.912  13.808  1.00  0.00    -0.270 OA
HETATM    6  C15 UNL     1       5.589   1.539  11.807  1.00  0.00     0.273 C
HETATM    7  C16 UNL     1       6.572   2.468  11.282  1.00  0.00     0.250 C
HETATM    8  O2  UNL     1       6.817   3.507  12.011  1.00  0.00    -0.271 OA
HETATM    9  N3  UNL     1       7.310   2.401  10.082  1.00  0.00    -0.345 N
ATOM     10  H3  UNL     1       8.059   3.086   9.981  1.00  0.00     0.163 HD
HETATM   11  C17 UNL     1       7.141   1.492   8.988  1.00  0.00     0.180 C
HETATM   12  C25 UNL     1       7.169   2.095   7.644  1.00  0.00     0.241 C
HETATM   13  O4  UNL     1       7.495   1.270   6.705  1.00  0.00    -0.271 OA
HETATM   14  N4  UNL     1       6.891   3.415   7.264  1.00  0.00    -0.346 N
ATOM     15  H4  UNL     1       7.680   3.921   6.864  1.00  0.00     0.163 HD
HETATM   16  C26 UNL     1       5.671   4.166   7.350  1.00  0.00     0.180 C
HETATM   17  C30 UNL     1       5.515   4.978   8.571  1.00  0.00     0.241 C
HETATM   18  O5  UNL     1       6.237   6.011   8.677  1.00  0.00    -0.271 OA
HETATM   19  N5  UNL     1       4.637   4.721   9.640  1.00  0.00    -0.346 N
ATOM     20  H5  UNL     1       4.619   5.393  10.407  1.00  0.00     0.163 HD
HETATM   21  C31 UNL     1       3.748   3.560   9.734  1.00  0.00     0.176 C
HETATM   22  C36 UNL     1       3.621   3.017  11.093  1.00  0.00     0.244 C
HETATM   23  O6  UNL     1       2.858   3.719  11.864  1.00  0.00    -0.271 OA
HETATM   24  N7  UNL     1       4.196   1.855  11.678  1.00  0.00    -0.318 N
ENDROOT
BRANCH  11  25
HETATM   25  C18 UNL     1       8.033   0.320   9.205  1.00  0.00     0.073 C
BRANCH  25  26
HETATM   26  C19 UNL     1       8.384  -0.024  10.571  1.00  0.00    -0.056 A
HETATM   27  C20 UNL     1       9.640   0.358  11.070  1.00  0.00     0.010 A
HETATM   28  C21 UNL     1       9.993   0.057  12.364  1.00  0.00     0.037 A
HETATM   29  C22 UNL     1       9.132  -0.624  13.207  1.00  0.00     0.065 A
HETATM   30  C23 UNL     1       7.910  -1.001  12.736  1.00  0.00     0.037 A
HETATM   31  C24 UNL     1       7.568  -0.689  11.428  1.00  0.00     0.010 A
BRANCH  29  32
HETATM   32  O3  UNL     1       9.478  -0.933  14.518  1.00  0.00    -0.361 OA
ATOM     33  H3  UNL     1       9.033  -0.540  15.259  1.00  0.00     0.217 HD
ENDBRANCH  29  32
ENDBRANCH  25  26
ENDBRANCH  11  25
BRANCH  16  34
HETATM   34  C27 UNL     1       5.532   5.171   6.189  1.00  0.00     0.009 C
HETATM   35  C28 UNL     1       6.809   5.465   5.496  1.00  0.00     0.012 C
HETATM   36  C29 UNL     1       4.445   4.685   5.255  1.00  0.00     0.012 C
ENDBRANCH  16  34
BRANCH   3  37
HETATM   37  C12 UNL     1       4.982   1.184  15.529  1.00  0.00     0.127 C
HETATM   38  C13 UNL     1       5.373  -0.047  16.357  1.00  0.00     0.027 C
ENDBRANCH   3  37
BRANCH   1  39
HETATM   39  C3  UNL     1       2.832  -0.133  11.215  1.00  0.00     0.058 C
BRANCH  39  40
HETATM   40  C2  UNL     1       1.578   0.079  10.516  1.00  0.00    -0.035 C
HETATM   41  C1  UNL     1       0.609   0.890  10.930  1.00  0.00     0.007 C
ENDBRANCH  39  40
ENDBRANCH   1  39
BRANCH   2  42
HETATM   42  C6  UNL     1       2.805  -0.667  14.091  1.00  0.00     0.041 C
BRANCH  42  43
HETATM   43  C7  UNL     1       2.856  -2.061  14.460  1.00  0.00    -0.011 A
HETATM   44  C8  UNL     1       1.898  -2.717  15.236  1.00  0.00     0.030 A
HETATM   45  C9  UNL     1       2.329  -3.996  15.435  1.00  0.00     0.089 A
HETATM   46  N1  UNL     1       3.499  -4.161  14.824  1.00  0.00    -0.369 N
HETATM   47  C10 UNL     1       3.833  -2.981  14.221  1.00  0.00     0.015 A
ATOM     48  H1  UNL     1       4.050  -5.019  14.808  1.00  0.00     0.165 HD
HETATM   49  C11 UNL     1       5.075  -2.877  13.362  1.00  0.00     0.069 C
ENDBRANCH  42  43
ENDBRANCH   2  42
BRANCH  21  50
HETATM   50  C32 UNL     1       2.403   4.153   9.257  1.00  0.00     0.035 C
BRANCH  50  51
HETATM   51  C33 UNL     1       1.881   3.364   8.128  1.00  0.00     0.004 C
BRANCH  51  52
HETATM   52  C34 UNL     1       1.328   4.198   7.004  1.00  0.00     0.027 C
BRANCH  52  53
HETATM   53  C35 UNL     1       1.474   5.677   7.211  1.00  0.00     0.229 C
BRANCH  53  54
HETATM   54  N6  UNL     1       0.165   6.283   6.955  1.00  0.00    -0.079 N
ATOM     55  H63 UNL     1      -0.493   5.640   6.516  1.00  0.00     0.274 HD
ATOM     56  H62 UNL     1      -0.369   6.454   7.807  1.00  0.00     0.274 HD
ATOM     57  H61 UNL     1       0.324   7.128   6.406  1.00  0.00     0.274 HD
ENDBRANCH  53  54
ENDBRANCH  52  53
ENDBRANCH  51  52
ENDBRANCH  50  51
ENDBRANCH  21  50
TORSDOF 14
ENDMDL