MODEL 3
REMARK VINA RESULT: -6.156333543     14.375     19.478
REMARK  13 active torsions:
REMARK  status: ('A' for Active; 'I' for Inactive)
REMARK    1  A    between atoms: C2_2  and  C3_3
REMARK    2  A    between atoms: C3_3  and  C5_5
REMARK    3  A    between atoms: C6_8  and  O1_9
REMARK    4  A    between atoms: C7_11  and  C8_12
REMARK    5  A    between atoms: C8_12  and  C9_13
REMARK    6  A    between atoms: C13_20  and  C14_21
REMARK    7  A    between atoms: C14_21  and  C15_22
REMARK    8  A    between atoms: C15_22  and  C16_23
REMARK    9  A    between atoms: C16_23  and  N3_24
REMARK   10  A    between atoms: C18_31  and  O3_32
REMARK   11  A    between atoms: C19_34  and  C20_35
REMARK   12  A    between atoms: C20_35  and  C21_36
REMARK   13  A    between atoms: C25_41  and  C26_42
ROOT
HETATM    1  C5  UNL     1       2.919 -13.503  15.496  1.00  0.00     0.179 C
HETATM    2  N1  UNL     1       3.756 -12.350  15.550  1.00  0.00    -0.359 N
ATOM      3  H1  UNL     1       4.622 -12.442  15.019  1.00  0.00     0.162 HD
HETATM    4  C6  UNL     1       3.613 -11.133  16.189  1.00  0.00     0.135 C
HETATM    5  C7  UNL     1       3.296 -10.752  17.562  1.00  0.00     0.159 C
HETATM    6  N2  UNL     1       4.117  -9.607  17.953  1.00  0.00    -0.347 N
ATOM      7  H2  UNL     1       3.720  -8.690  17.748  1.00  0.00     0.163 HD
HETATM    8  C12 UNL     1       5.350  -9.600  18.560  1.00  0.00     0.241 C
HETATM    9  O2  UNL     1       5.553  -8.715  19.466  1.00  0.00    -0.271 OA
HETATM   10  C13 UNL     1       6.538 -10.477  18.335  1.00  0.00     0.175 C
HETATM   11  N6  UNL     1       7.432 -10.412  19.478  1.00  0.00    -0.356 N
ATOM     12  H6  UNL     1       7.987  -9.556  19.522  1.00  0.00     0.162 HD
HETATM   13  C18 UNL     1       7.672 -11.289  20.514  1.00  0.00     0.158 C
HETATM   14  C19 UNL     1       8.375 -12.581  20.617  1.00  0.00     0.058 C
HETATM   15  N7  UNL     1       8.786 -13.215  19.429  1.00  0.00    -0.273 NA
HETATM   16  C24 UNL     1      10.152 -13.045  19.034  1.00  0.00     0.118 C
HETATM   17  C25 UNL     1       8.444 -14.585  19.223  1.00  0.00     0.133 C
HETATM   18  C28 UNL     1       7.115 -14.845  18.655  1.00  0.00     0.155 C
HETATM   19  O4  UNL     1       6.149 -14.681  19.393  1.00  0.00    -0.295 OA
HETATM   20  C29 UNL     1       6.800 -15.287  17.273  1.00  0.00     0.038 C
HETATM   21  C30 UNL     1       7.941 -15.322  16.329  1.00  0.00     0.019 C
HETATM   22  C31 UNL     1       8.356 -16.769  16.173  1.00  0.00     0.001 C
HETATM   23  C32 UNL     1       7.143 -17.566  16.525  1.00  0.00     0.001 C
HETATM   24  C33 UNL     1       6.183 -16.658  17.260  1.00  0.00     0.019 C
HETATM   25  C34 UNL     1       5.722 -14.339  16.711  1.00  0.00     0.140 C
HETATM   26  N8  UNL     1       5.062 -14.901  15.586  1.00  0.00    -0.358 N
ATOM     27  H8  UNL     1       5.633 -15.479  14.969  1.00  0.00     0.162 HD
HETATM   28  C35 UNL     1       3.715 -14.750  15.229  1.00  0.00     0.240 C
HETATM   29  O5  UNL     1       3.155 -15.738  14.650  1.00  0.00    -0.271 OA
ENDROOT
BRANCH  10  30
HETATM   30  C14 UNL     1       7.229  -9.804  17.138  1.00  0.00     0.036 C
BRANCH  30  31
HETATM   31  C15 UNL     1       8.694  -9.699  17.237  1.00  0.00     0.022 C
BRANCH  31  32
HETATM   32  C16 UNL     1       9.026  -8.206  17.063  1.00  0.00     0.122 C
BRANCH  32  33
HETATM   33  N3  UNL     1       7.897  -7.425  17.567  1.00  0.00    -0.367 N
HETATM   34  C17 UNL     1       8.044  -6.339  18.219  1.00  0.00     0.196 C
HETATM   35  N4  UNL     1       9.326  -5.809  18.501  1.00  0.00    -0.067 NA
HETATM   36  N5  UNL     1       6.878  -5.658  18.664  1.00  0.00    -0.067 NA
ATOM     37  H3  UNL     1       6.951  -7.764  17.391  1.00  0.00     0.161 HD
ENDBRANCH  32  33
ENDBRANCH  31  32
ENDBRANCH  30  31
ENDBRANCH  10  30
BRANCH  13  38
HETATM   38  O3  UNL     1       7.189 -10.937  21.670  1.00  0.00    -0.345 OA
ATOM     39  H3  UNL     1       7.295 -11.572  22.369  1.00  0.00     0.219 HD
ENDBRANCH  13  38
BRANCH   5  40
HETATM   40  C8  UNL     1       3.263 -11.836  18.576  1.00  0.00     0.037 C
BRANCH  40  41
HETATM   41  C9  UNL     1       1.835 -12.010  19.116  1.00  0.00    -0.020 C
HETATM   42  C10 UNL     1       0.825 -11.307  18.256  1.00  0.00     0.009 C
HETATM   43  C11 UNL     1       1.554 -13.516  18.940  1.00  0.00     0.009 C
ENDBRANCH  40  41
ENDBRANCH   5  40
BRANCH  14  44
HETATM   44  C20 UNL     1       9.308 -12.566  21.759  1.00  0.00     0.005 C
BRANCH  44  45
HETATM   45  C21 UNL     1      10.387 -11.597  21.906  1.00  0.00     0.002 C
HETATM   46  C22 UNL     1      10.326 -10.587  23.017  1.00  0.00     0.013 C
HETATM   47  C23 UNL     1      11.700 -12.370  22.220  1.00  0.00     0.013 C
ENDBRANCH  44  45
ENDBRANCH  14  44
BRANCH   4  48
HETATM   48  O1  UNL     1       3.798 -10.100  15.418  1.00  0.00    -0.348 OA
ATOM     49  H1  UNL     1       3.146  -9.416  15.519  1.00  0.00     0.219 HD
ENDBRANCH   4  48
BRANCH  17  50
HETATM   50  C26 UNL     1       8.715 -15.469  20.448  1.00  0.00     0.023 C
HETATM   51  C27 UNL     1       8.893 -16.917  20.041  1.00  0.00     0.007 C
ENDBRANCH  17  50
BRANCH   1  52
HETATM   52  C3  UNL     1       1.891 -13.447  14.389  1.00  0.00     0.013 C
HETATM   53  C4  UNL     1       0.563 -12.896  14.863  1.00  0.00     0.012 C
BRANCH  52  54
HETATM   54  C2  UNL     1       2.331 -12.607  13.224  1.00  0.00     0.002 C
HETATM   55  C1  UNL     1       1.968 -13.325  11.942  1.00  0.00     0.005 C
ENDBRANCH  52  54
ENDBRANCH   1  52
TORSDOF 13
ENDMDL