MODEL 4
REMARK VINA RESULT: -7.678020675      2.226      2.690
REMARK  15 active torsions:
REMARK  status: ('A' for Active; 'I' for Inactive)
REMARK    1  A    between atoms: C2_2  and  C3_3
REMARK    2  A    between atoms: C3_3  and  C4_4
REMARK    3  A    between atoms: C4_4  and  C5_5
REMARK    4  A    between atoms: C9_14  and  O2_15
REMARK    5  A    between atoms: C10_17  and  C11_18
REMARK    6  A    between atoms: C14_21  and  C15_22
REMARK    7  A    between atoms: C15_22  and  C16_23
REMARK       I    between atoms: C16_23  and  N3_25
REMARK    8  A    between atoms: N3_25  and  C17_27
REMARK    9  A    between atoms: C17_27  and  C18_28
REMARK   10  A    between atoms: C23_36  and  O4_37
REMARK   11  A    between atoms: C24_39  and  C25_40
REMARK   12  A    between atoms: C25_40  and  C26_41
REMARK   13  A    between atoms: C29_46  and  O5_47
REMARK   14  A    between atoms: C30_49  and  C31_50
REMARK   15  A    between atoms: C31_50  and  C32_51
ROOT
HETATM    1  C5  UNL     1       3.891  -2.543  14.147  1.00  0.00     0.176 C
HETATM    2  N1  UNL     1       3.228  -3.825  14.245  1.00  0.00    -0.346 N
ATOM      3  H1  UNL     1       3.625  -4.569  13.671  1.00  0.00     0.163 HD
HETATM    4  C6  UNL     1       2.131  -4.182  15.009  1.00  0.00     0.240 C
HETATM    5  O1  UNL     1       1.184  -4.797  14.376  1.00  0.00    -0.271 OA
HETATM    6  C7  UNL     1       1.844  -3.984  16.439  1.00  0.00     0.171 C
HETATM    7  C8  UNL     1       2.502  -2.859  17.119  1.00  0.00     0.042 C
HETATM    8  N2  UNL     1       1.874  -5.267  17.097  1.00  0.00    -0.361 N
ATOM      9  H2  UNL     1       1.403  -5.974  16.535  1.00  0.00     0.162 HD
HETATM   10  C9  UNL     1       2.347  -5.800  18.245  1.00  0.00     0.118 C
HETATM   11  C10 UNL     1       3.703  -6.222  18.778  1.00  0.00     0.090 C
HETATM   12  C14 UNL     1       4.616  -6.710  17.743  1.00  0.00     0.123 C
HETATM   13  N5  UNL     1       6.019  -6.394  17.798  1.00  0.00    -0.364 N
ATOM     14  H5  UNL     1       6.434  -6.735  18.666  1.00  0.00     0.162 HD
HETATM   15  C23 UNL     1       6.960  -5.768  17.020  1.00  0.00     0.135 C
HETATM   16  C24 UNL     1       7.345  -4.386  16.675  1.00  0.00     0.158 C
HETATM   17  N6  UNL     1       6.525  -3.335  17.095  1.00  0.00    -0.361 N
ATOM     18  H6  UNL     1       5.961  -3.507  17.927  1.00  0.00     0.162 HD
HETATM   19  C29 UNL     1       6.387  -2.072  16.504  1.00  0.00     0.135 C
HETATM   20  C30 UNL     1       6.701  -1.538  15.198  1.00  0.00     0.159 C
HETATM   21  N7  UNL     1       6.453  -2.463  14.075  1.00  0.00    -0.347 N
ATOM     22  H7  UNL     1       7.256  -2.966  13.698  1.00  0.00     0.163 HD
HETATM   23  C35 UNL     1       5.205  -2.709  13.484  1.00  0.00     0.241 C
HETATM   24  O6  UNL     1       5.140  -3.114  12.266  1.00  0.00    -0.271 OA
ENDROOT
BRANCH  12  25
HETATM   25  C15 UNL     1       4.672  -8.262  17.784  1.00  0.00     0.073 C
BRANCH  25  26
HETATM   26  C16 UNL     1       5.869  -8.926  18.127  1.00  0.00     0.239 C
HETATM   27  O3  UNL     1       6.283  -9.160  19.271  1.00  0.00    -0.269 OA
HETATM   28  N3  UNL     1       6.715  -9.388  17.065  1.00  0.00    -0.356 N
ATOM     29  H3  UNL     1       6.437  -9.233  16.095  1.00  0.00     0.162 HD
BRANCH  28  30
HETATM   30  C17 UNL     1       7.949 -10.066  17.349  1.00  0.00     0.158 C
BRANCH  30  31
HETATM   31  C18 UNL     1       7.763 -11.569  17.382  1.00  0.00     0.240 C
HETATM   32  C19 UNL     1       8.734 -12.272  16.465  1.00  0.00     0.039 C
HETATM   33  C20 UNL     1       8.709 -13.689  17.000  1.00  0.00     0.032 C
HETATM   34  C21 UNL     1       8.638 -13.430  18.490  1.00  0.00     0.272 C
HETATM   35  N4  UNL     1       8.037 -12.134  18.662  1.00  0.00     0.090 N
HETATM   36  C22 UNL     1       8.896 -11.338  19.499  1.00  0.00     0.310 C
ENDBRANCH  30  31
ENDBRANCH  28  30
ENDBRANCH  25  26
ENDBRANCH  12  25
BRANCH  11  37
HETATM   37  C11 UNL     1       4.118  -5.208  19.795  1.00  0.00    -0.009 C
HETATM   38  C12 UNL     1       5.485  -5.361  20.403  1.00  0.00     0.010 C
HETATM   39  C13 UNL     1       3.151  -5.282  20.996  1.00  0.00     0.010 C
ENDBRANCH  11  37
BRANCH  10  40
HETATM   40  O2  UNL     1       1.434  -6.037  19.165  1.00  0.00    -0.349 OA
ATOM     41  H2  UNL     1       1.526  -5.526  19.961  1.00  0.00     0.219 HD
ENDBRANCH  10  40
BRANCH  15  42
HETATM   42  O4  UNL     1       7.802  -6.576  16.367  1.00  0.00    -0.348 OA
ATOM     43  H4  UNL     1       8.244  -6.193  15.620  1.00  0.00     0.219 HD
ENDBRANCH  15  42
BRANCH  16  44
HETATM   44  C25 UNL     1       8.838  -4.214  16.904  1.00  0.00     0.037 C
BRANCH  44  45
HETATM   45  C26 UNL     1       9.667  -4.002  15.698  1.00  0.00    -0.020 C
HETATM   46  C27 UNL     1      10.649  -2.863  16.079  1.00  0.00     0.009 C
HETATM   47  C28 UNL     1      10.591  -5.153  15.345  1.00  0.00     0.009 C
ENDBRANCH  44  45
ENDBRANCH  16  44
BRANCH  19  48
HETATM   48  O5  UNL     1       5.853  -1.173  17.309  1.00  0.00    -0.348 OA
ATOM     49  H5  UNL     1       6.161  -1.239  18.205  1.00  0.00     0.219 HD
ENDBRANCH  19  48
BRANCH  20  50
HETATM   50  C31 UNL     1       8.009  -0.902  14.934  1.00  0.00     0.037 C
BRANCH  50  51
HETATM   51  C32 UNL     1       8.334  -0.373  13.601  1.00  0.00    -0.020 C
HETATM   52  C33 UNL     1       9.648  -0.730  12.998  1.00  0.00     0.009 C
HETATM   53  C34 UNL     1       8.106   1.136  13.498  1.00  0.00     0.009 C
ENDBRANCH  50  51
ENDBRANCH  20  50
BRANCH   1  54
HETATM   54  C4  UNL     1       3.057  -1.444  13.585  1.00  0.00     0.035 C
BRANCH  54  55
HETATM   55  C3  UNL     1       2.275  -0.627  14.538  1.00  0.00     0.002 C
BRANCH  55  56
HETATM   56  C2  UNL     1       0.824  -0.622  14.029  1.00  0.00    -0.004 C
HETATM   57  C1  UNL     1       0.596   0.446  13.012  1.00  0.00     0.005 C
ENDBRANCH  55  56
ENDBRANCH  54  55
ENDBRANCH   1  54
TORSDOF 15
ENDMDL