MODEL 1
REMARK VINA RESULT: -5.317973409      0.000      0.000
REMARK  13 active torsions:
REMARK  status: ('A' for Active; 'I' for Inactive)
REMARK    1  A    between atoms: C2_2  and  C3_3
REMARK    2  A    between atoms: C5_8  and  C6_9
REMARK    3  A    between atoms: C6_9  and  C7_10
REMARK    4  A    between atoms: C11_17  and  C12_18
REMARK    5  A    between atoms: C17_26  and  C18_27
REMARK    6  A    between atoms: C18_27  and  C19_28
REMARK    7  A    between atoms: C19_28  and  C20_29
REMARK    8  A    between atoms: C20_29  and  C21_30
REMARK    9  A    between atoms: C21_30  and  N4_31
REMARK   10  A    between atoms: C23_39  and  C24_40
REMARK   11  A    between atoms: C24_40  and  C25_41
REMARK   12  A    between atoms: C29_48  and  C30_49
REMARK   13  A    between atoms: C30_49  and  C31_50
ROOT
HETATM    1  C3  UNL     1       5.494 -14.407  19.298  1.00  0.00     0.178 C
HETATM    2  C4  UNL     1       6.844 -14.877  19.773  1.00  0.00     0.241 C
HETATM    3  O1  UNL     1       6.824 -15.824  20.635  1.00  0.00    -0.271 OA
HETATM    4  N1  UNL     1       8.083 -14.359  19.345  1.00  0.00    -0.346 N
ATOM      5  H1  UNL     1       8.783 -14.275  20.083  1.00  0.00     0.163 HD
HETATM    6  C5  UNL     1       8.518 -13.941  18.084  1.00  0.00     0.177 C
HETATM    7  C10 UNL     1       8.372 -12.490  17.781  1.00  0.00     0.240 C
HETATM    8  O2  UNL     1       8.815 -12.302  16.575  1.00  0.00    -0.271 OA
HETATM    9  N2  UNL     1       7.896 -11.396  18.464  1.00  0.00    -0.354 N
ATOM     10  H2  UNL     1       6.955 -11.167  18.145  1.00  0.00     0.162 HD
HETATM   11  C11 UNL     1       8.302 -10.488  19.470  1.00  0.00     0.096 C
HETATM   12  C15 UNL     1       8.811  -9.168  18.922  1.00  0.00     0.128 C
HETATM   13  C16 UNL     1       8.182  -8.660  17.716  1.00  0.00     0.220 C
HETATM   14  O3  UNL     1       8.806  -8.922  16.638  1.00  0.00    -0.274 OA
HETATM   15  N3  UNL     1       6.991  -7.923  17.560  1.00  0.00    -0.348 N
ATOM     16  H3  UNL     1       7.076  -7.041  17.055  1.00  0.00     0.163 HD
HETATM   17  C17 UNL     1       5.664  -8.259  18.027  1.00  0.00     0.176 C
HETATM   18  C22 UNL     1       4.937  -8.646  16.750  1.00  0.00     0.241 C
HETATM   19  O4  UNL     1       4.717  -7.605  16.027  1.00  0.00    -0.271 OA
HETATM   20  N5  UNL     1       4.537  -9.900  16.342  1.00  0.00    -0.346 N
ATOM     21  H5  UNL     1       5.002 -10.221  15.493  1.00  0.00     0.163 HD
HETATM   22  C23 UNL     1       3.590 -10.849  16.877  1.00  0.00     0.177 C
HETATM   23  C28 UNL     1       3.117 -11.743  15.820  1.00  0.00     0.241 C
HETATM   24  O5  UNL     1       2.960 -11.289  14.669  1.00  0.00    -0.271 OA
HETATM   25  N6  UNL     1       2.822 -13.108  16.021  1.00  0.00    -0.346 N
ATOM     26  H6  UNL     1       2.444 -13.613  15.219  1.00  0.00     0.163 HD
HETATM   27  C29 UNL     1       2.997 -13.866  17.225  1.00  0.00     0.177 C
HETATM   28  C34 UNL     1       4.309 -14.602  17.092  1.00  0.00     0.243 C
HETATM   29  O6  UNL     1       4.731 -14.757  15.902  1.00  0.00    -0.271 OA
HETATM   30  N7  UNL     1       5.088 -15.120  18.119  1.00  0.00    -0.341 N
HETATM   31  C35 UNL     1       5.584 -16.526  18.060  1.00  0.00     0.153 C
ENDROOT
BRANCH  17  32
HETATM   32  C18 UNL     1       4.871  -7.140  18.614  1.00  0.00     0.035 C
BRANCH  32  33
HETATM   33  C19 UNL     1       3.691  -7.425  19.435  1.00  0.00     0.004 C
BRANCH  33  34
HETATM   34  C20 UNL     1       2.631  -6.409  19.601  1.00  0.00     0.027 C
BRANCH  34  35
HETATM   35  C21 UNL     1       2.808  -5.192  18.720  1.00  0.00     0.229 C
BRANCH  35  36
HETATM   36  N4  UNL     1       1.615  -5.044  17.910  1.00  0.00    -0.079 N
ATOM     37  H43 UNL     1       1.809  -5.088  16.910  1.00  0.00     0.274 HD
ATOM     38  H42 UNL     1       0.998  -5.855  17.966  1.00  0.00     0.274 HD
ATOM     39  H41 UNL     1       1.152  -4.178  18.184  1.00  0.00     0.274 HD
ENDBRANCH  35  36
ENDBRANCH  34  35
ENDBRANCH  33  34
ENDBRANCH  32  33
ENDBRANCH  17  32
BRANCH  22  40
HETATM   40  C24 UNL     1       2.579 -10.282  17.795  1.00  0.00     0.038 C
BRANCH  40  41
HETATM   41  C25 UNL     1       2.001 -11.130  18.858  1.00  0.00    -0.020 C
HETATM   42  C26 UNL     1       1.903 -10.558  20.228  1.00  0.00     0.009 C
HETATM   43  C27 UNL     1       0.537 -11.388  18.418  1.00  0.00     0.009 C
ENDBRANCH  40  41
ENDBRANCH  22  40
BRANCH  11  44
HETATM   44  C12 UNL     1       9.209 -10.895  20.570  1.00  0.00     0.001 C
HETATM   45  C13 UNL     1      10.599 -11.291  20.187  1.00  0.00     0.011 C
HETATM   46  C14 UNL     1       8.592 -11.687  21.683  1.00  0.00     0.011 C
ENDBRANCH  11  44
BRANCH  27  47
HETATM   47  C30 UNL     1       1.968 -14.939  17.346  1.00  0.00     0.038 C
BRANCH  47  48
HETATM   48  C31 UNL     1       1.333 -15.224  18.637  1.00  0.00    -0.020 C
HETATM   49  C32 UNL     1      -0.156 -15.055  18.724  1.00  0.00     0.009 C
HETATM   50  C33 UNL     1       1.592 -16.689  19.062  1.00  0.00     0.009 C
ENDBRANCH  47  48
ENDBRANCH  27  47
BRANCH   6  51
HETATM   51  C6  UNL     1       9.894 -14.363  17.639  1.00  0.00     0.038 C
BRANCH  51  52
HETATM   52  C7  UNL     1      10.045 -15.710  17.066  1.00  0.00    -0.020 C
HETATM   53  C8  UNL     1      11.460 -16.077  16.805  1.00  0.00     0.009 C
HETATM   54  C9  UNL     1       9.325 -15.712  15.706  1.00  0.00     0.009 C
ENDBRANCH  51  52
ENDBRANCH   6  51
BRANCH   1  55
HETATM   55  C2  UNL     1       4.456 -14.735  20.385  1.00  0.00     0.030 C
HETATM   56  C1  UNL     1       3.976 -13.469  21.054  1.00  0.00     0.007 C
ENDBRANCH   1  55
TORSDOF 13
ENDMDL