MODEL 5
REMARK VINA RESULT: -6.904345265      9.262     13.394
REMARK  14 active torsions:
REMARK  status: ('A' for Active; 'I' for Inactive)
REMARK    1  A    between atoms: C2_2  and  C3_3
REMARK    2  A    between atoms: C4_8  and  C5_9
REMARK    3  A    between atoms: C8_12  and  C9_13
REMARK    4  A    between atoms: C9_13  and  C10_14
REMARK    5  A    between atoms: C11_17  and  O1_18
REMARK    6  A    between atoms: C12_20  and  C13_21
REMARK    7  A    between atoms: C17_26  and  O2_27
REMARK    8  A    between atoms: C18_29  and  C19_30
REMARK    9  A    between atoms: C19_30  and  C20_31
REMARK   10  A    between atoms: C20_31  and  C21_32
REMARK   11  A    between atoms: C21_32  and  N5_33
REMARK   12  A    between atoms: C24_44  and  O3_45
REMARK   13  A    between atoms: C25_47  and  C26_48
REMARK   14  A    between atoms: C26_48  and  C27_49
ROOT
HETATM    1  C10 UNL     1       2.462   3.204   9.457  1.00  0.00     0.180 C
HETATM    2  N3  UNL     1       1.463   2.552  10.240  1.00  0.00    -0.359 N
ATOM      3  H3  UNL     1       0.653   2.295   9.676  1.00  0.00     0.162 HD
HETATM    4  C11 UNL     1       1.303   2.177  11.553  1.00  0.00     0.136 C
HETATM    5  C12 UNL     1       1.907   1.198  12.483  1.00  0.00     0.163 C
HETATM    6  N4  UNL     1       2.864   0.281  11.990  1.00  0.00    -0.355 N
HETATM    7  C16 UNL     1       2.506  -0.237  10.636  1.00  0.00     0.152 C
HETATM    8  C17 UNL     1       4.043  -0.228  12.529  1.00  0.00     0.137 C
HETATM    9  C18 UNL     1       5.040   0.124  13.512  1.00  0.00     0.158 C
HETATM   10  N8  UNL     1       6.353   0.456  12.921  1.00  0.00    -0.355 N
ATOM     11  H8  UNL     1       7.191   0.274  13.473  1.00  0.00     0.162 HD
HETATM   12  C23 UNL     1       6.510   1.018  11.619  1.00  0.00     0.174 C
HETATM   13  S1  UNL     1       7.866   0.463  10.814  1.00  0.00    -0.041 SA
HETATM   14  N9  UNL     1       5.699   1.932  10.913  1.00  0.00    -0.316 N
ATOM     15  H9  UNL     1       5.264   1.468  10.116  1.00  0.00     0.170 HD
HETATM   16  C24 UNL     1       5.312   3.240  10.958  1.00  0.00     0.141 C
HETATM   17  C25 UNL     1       5.548   4.506  10.221  1.00  0.00     0.159 C
HETATM   18  N10 UNL     1       4.230   5.089   9.854  1.00  0.00    -0.347 N
ATOM     19  H10 UNL     1       4.253   6.025   9.449  1.00  0.00     0.163 HD
HETATM   20  C30 UNL     1       2.977   4.518   9.996  1.00  0.00     0.241 C
HETATM   21  O4  UNL     1       2.080   5.137  10.662  1.00  0.00    -0.271 OA
ENDROOT
BRANCH   1  22
HETATM   22  C9  UNL     1       1.985   3.625   8.068  1.00  0.00     0.077 C
BRANCH  22  23
HETATM   23  C8  UNL     1       2.787   4.570   7.324  1.00  0.00    -0.007 A
HETATM   24  C3  UNL     1       4.000   4.307   6.718  1.00  0.00     0.034 A
HETATM   25  N1  UNL     1       4.391   5.485   6.152  1.00  0.00    -0.304 N
HETATM   26  N2  UNL     1       3.509   6.413   6.379  1.00  0.00    -0.304 N
ATOM     27  H1  UNL     1       5.254   5.620   5.624  1.00  0.00     0.186 HD
HETATM   28  C4  UNL     1       2.498   5.912   7.097  1.00  0.00     0.037 A
ATOM     29  H2  UNL     1       3.577   7.378   6.057  1.00  0.00     0.186 HD
BRANCH  24  30
HETATM   30  C2  UNL     1       4.814   3.061   6.658  1.00  0.00     0.055 C
HETATM   31  C1  UNL     1       5.590   3.050   5.349  1.00  0.00     0.011 C
ENDBRANCH  24  30
BRANCH  28  32
HETATM   32  C5  UNL     1       1.332   6.714   7.570  1.00  0.00     0.029 C
HETATM   33  C6  UNL     1       0.198   6.635   6.548  1.00  0.00     0.016 C
HETATM   34  C7  UNL     1       1.784   8.129   7.767  1.00  0.00     0.016 C
ENDBRANCH  28  32
ENDBRANCH  22  23
ENDBRANCH   1  22
BRANCH   4  35
HETATM   35  O1  UNL     1       0.373   2.835  12.196  1.00  0.00    -0.348 OA
ATOM     36  H1  UNL     1       0.688   3.344  12.932  1.00  0.00     0.219 HD
ENDBRANCH   4  35
BRANCH   5  37
HETATM   37  C13 UNL     1       0.754   0.477  13.214  1.00  0.00     0.008 C
HETATM   38  C14 UNL     1       1.183  -0.389  14.327  1.00  0.00     0.012 C
HETATM   39  C15 UNL     1      -0.166  -0.251  12.309  1.00  0.00     0.012 C
ENDBRANCH   5  37
BRANCH  17  40
HETATM   40  C26 UNL     1       6.509   4.491   9.109  1.00  0.00     0.037 C
BRANCH  40  41
HETATM   41  C27 UNL     1       7.849   3.988   9.520  1.00  0.00    -0.020 C
HETATM   42  C28 UNL     1       8.165   4.573  10.895  1.00  0.00     0.009 C
HETATM   43  C29 UNL     1       8.924   4.525   8.590  1.00  0.00     0.009 C
ENDBRANCH  40  41
ENDBRANCH  17  40
BRANCH  16  44
HETATM   44  O3  UNL     1       4.477   3.603  11.894  1.00  0.00    -0.348 OA
ATOM     45  H3  UNL     1       4.778   4.222  12.549  1.00  0.00     0.219 HD
ENDBRANCH  16  44
BRANCH   8  46
HETATM   46  O2  UNL     1       4.357  -1.394  11.980  1.00  0.00    -0.348 OA
ATOM     47  H2  UNL     1       4.909  -1.909  12.558  1.00  0.00     0.219 HD
ENDBRANCH   8  46
BRANCH   9  48
HETATM   48  C19 UNL     1       4.697   1.072  14.615  1.00  0.00     0.035 C
BRANCH  48  49
HETATM   49  C20 UNL     1       5.256   0.613  15.955  1.00  0.00     0.022 C
BRANCH  49  50
HETATM   50  C21 UNL     1       5.539  -0.866  16.018  1.00  0.00     0.122 C
BRANCH  50  51
HETATM   51  N5  UNL     1       4.491  -1.520  16.736  1.00  0.00    -0.367 N
HETATM   52  C22 UNL     1       3.707  -2.435  16.297  1.00  0.00     0.196 C
HETATM   53  N6  UNL     1       3.843  -2.890  14.967  1.00  0.00    -0.067 NA
HETATM   54  N7  UNL     1       2.691  -3.027  17.094  1.00  0.00    -0.067 NA
ATOM     55  H5  UNL     1       4.351  -1.228  17.703  1.00  0.00     0.161 HD
ENDBRANCH  50  51
ENDBRANCH  49  50
ENDBRANCH  48  49
ENDBRANCH   9  48
TORSDOF 14
ENDMDL