MODEL 4
REMARK VINA RESULT: -6.902759735      6.904     12.710
REMARK  14 active torsions:
REMARK  status: ('A' for Active; 'I' for Inactive)
REMARK    1  A    between atoms: C2_2  and  C3_3
REMARK    2  A    between atoms: C3_3  and  C4_4
REMARK    3  A    between atoms: C4_4  and  C5_5
REMARK    4  A    between atoms: C7_10  and  C8_11
REMARK    5  A    between atoms: C8_11  and  C9_12
REMARK    6  A    between atoms: C13_19  and  C14_20
REMARK    7  A    between atoms: C14_20  and  C15_21
REMARK    8  A    between atoms: C18_26  and  O3_27
REMARK    9  A    between atoms: C19_29  and  C20_30
REMARK   10  A    between atoms: C20_30  and  C21_31
REMARK   11  A    between atoms: C25_38  and  C26_39
REMARK   12  A    between atoms: C29_44  and  O5_45
REMARK   13  A    between atoms: C30_47  and  C31_48
REMARK   14  A    between atoms: C31_48  and  C32_49
ROOT
HETATM    1  C5  UNL     1       4.824  -8.928  17.184  1.00  0.00     0.176 C
HETATM    2  N1  UNL     1       5.122  -9.809  16.098  1.00  0.00    -0.346 N
ATOM      3  H1  UNL     1       6.089  -9.740  15.778  1.00  0.00     0.163 HD
HETATM    4  C6  UNL     1       4.381 -10.733  15.392  1.00  0.00     0.241 C
HETATM    5  O1  UNL     1       4.373 -10.616  14.101  1.00  0.00    -0.271 OA
HETATM    6  C7  UNL     1       3.554 -11.894  15.860  1.00  0.00     0.177 C
HETATM    7  N2  UNL     1       4.336 -13.092  15.559  1.00  0.00    -0.346 N
ATOM      8  H2  UNL     1       4.390 -13.312  14.564  1.00  0.00     0.163 HD
HETATM    9  C12 UNL     1       5.015 -13.983  16.367  1.00  0.00     0.241 C
HETATM   10  O2  UNL     1       4.678 -15.220  16.180  1.00  0.00    -0.271 OA
HETATM   11  C13 UNL     1       6.059 -13.773  17.393  1.00  0.00     0.175 C
HETATM   12  N3  UNL     1       7.394 -13.829  16.817  1.00  0.00    -0.359 N
ATOM     13  H3  UNL     1       7.405 -14.291  15.907  1.00  0.00     0.162 HD
HETATM   14  C18 UNL     1       8.651 -13.406  17.210  1.00  0.00     0.135 C
HETATM   15  C19 UNL     1       9.569 -13.785  18.289  1.00  0.00     0.159 C
HETATM   16  N4  UNL     1       9.355 -13.279  19.603  1.00  0.00    -0.347 N
ATOM     17  H4  UNL     1       9.824 -13.855  20.303  1.00  0.00     0.163 HD
HETATM   18  C24 UNL     1       8.689 -12.224  20.190  1.00  0.00     0.241 C
HETATM   19  O4  UNL     1       7.645 -12.547  20.891  1.00  0.00    -0.271 OA
HETATM   20  C25 UNL     1       8.892 -10.761  20.214  1.00  0.00     0.179 C
HETATM   21  N5  UNL     1       9.484 -10.150  19.078  1.00  0.00    -0.359 N
ATOM     22  H5  UNL     1      10.449 -10.434  18.910  1.00  0.00     0.162 HD
HETATM   23  C29 UNL     1       8.995  -9.238  18.154  1.00  0.00     0.135 C
HETATM   24  C30 UNL     1       7.875  -8.317  18.162  1.00  0.00     0.164 C
HETATM   25  N7  UNL     1       6.712  -8.655  18.918  1.00  0.00    -0.347 N
ATOM     26  H7  UNL     1       6.738  -8.423  19.911  1.00  0.00     0.163 HD
HETATM   27  C36 UNL     1       5.539  -9.269  18.457  1.00  0.00     0.241 C
HETATM   28  O6  UNL     1       5.020 -10.184  19.147  1.00  0.00    -0.271 OA
ENDROOT
BRANCH  24  29
HETATM   29  C31 UNL     1       8.364  -6.946  18.600  1.00  0.00     0.090 C
BRANCH  29  30
HETATM   30  C32 UNL     1       8.741  -6.065  17.471  1.00  0.00     0.011 A
HETATM   31  C33 UNL     1      10.010  -5.677  17.118  1.00  0.00     0.026 A
HETATM   32  C34 UNL     1       9.937  -4.850  15.987  1.00  0.00     0.019 A
HETATM   33  C35 UNL     1       8.605  -4.766  15.691  1.00  0.00     0.088 A
HETATM   34  N6  UNL     1       7.914  -5.494  16.584  1.00  0.00    -0.369 N
ATOM     35  H6  UNL     1       6.899  -5.599  16.586  1.00  0.00     0.165 HD
ENDBRANCH  29  30
ENDBRANCH  24  29
BRANCH  23  36
HETATM   36  O5  UNL     1       9.687  -9.201  17.049  1.00  0.00    -0.348 OA
ATOM     37  H5  UNL     1       9.237  -8.761  16.338  1.00  0.00     0.219 HD
ENDBRANCH  23  36
BRANCH  20  38
HETATM   38  C26 UNL     1       9.792 -10.413  21.419  1.00  0.00     0.009 C
HETATM   39  C27 UNL     1       9.097 -10.633  22.735  1.00  0.00     0.012 C
HETATM   40  C28 UNL     1      11.135 -11.044  21.341  1.00  0.00     0.012 C
ENDBRANCH  20  38
BRANCH   1  41
HETATM   41  C4  UNL     1       3.365  -8.750  17.391  1.00  0.00     0.035 C
BRANCH  41  42
HETATM   42  C3  UNL     1       2.805  -7.403  17.046  1.00  0.00     0.002 C
BRANCH  42  43
HETATM   43  C2  UNL     1       3.089  -6.375  18.148  1.00  0.00    -0.004 C
HETATM   44  C1  UNL     1       2.239  -5.157  18.001  1.00  0.00     0.005 C
ENDBRANCH  42  43
ENDBRANCH  41  42
ENDBRANCH   1  41
BRANCH  15  45
HETATM   45  C20 UNL     1       9.801 -15.303  18.303  1.00  0.00     0.037 C
BRANCH  45  46
HETATM   46  C21 UNL     1       9.318 -16.012  19.517  1.00  0.00    -0.020 C
HETATM   47  C22 UNL     1      10.527 -16.613  20.210  1.00  0.00     0.009 C
HETATM   48  C23 UNL     1       8.411 -17.195  19.115  1.00  0.00     0.009 C
ENDBRANCH  45  46
ENDBRANCH  15  45
BRANCH   6  49
HETATM   49  C8  UNL     1       2.308 -11.892  14.940  1.00  0.00     0.038 C
BRANCH  49  50
HETATM   50  C9  UNL     1       2.055 -13.161  14.232  1.00  0.00    -0.020 C
HETATM   51  C10 UNL     1       0.816 -13.903  14.573  1.00  0.00     0.009 C
HETATM   52  C11 UNL     1       2.031 -12.880  12.732  1.00  0.00     0.009 C
ENDBRANCH  49  50
ENDBRANCH   6  49
BRANCH  14  53
HETATM   53  O3  UNL     1       9.163 -12.463  16.468  1.00  0.00    -0.348 OA
ATOM     54  H3  UNL     1       9.250 -11.622  16.902  1.00  0.00     0.219 HD
ENDBRANCH  14  53
BRANCH  11  55
HETATM   55  C14 UNL     1       5.891 -14.662  18.576  1.00  0.00     0.038 C
BRANCH  55  56
HETATM   56  C15 UNL     1       5.018 -14.256  19.700  1.00  0.00    -0.020 C
HETATM   57  C16 UNL     1       3.548 -14.403  19.528  1.00  0.00     0.009 C
HETATM   58  C17 UNL     1       5.380 -15.226  20.862  1.00  0.00     0.009 C
ENDBRANCH  55  56
ENDBRANCH  11  55
TORSDOF 14
ENDMDL