MODEL 3
REMARK VINA RESULT: -8.253234081      0.960      1.282
REMARK  13 active torsions:
REMARK  status: ('A' for Active; 'I' for Inactive)
REMARK    1  A    between atoms: C2_2  and  C3_3
REMARK    2  A    between atoms: C3_3  and  C4_4
REMARK       I    between atoms: C4_4  and  N1_6
REMARK    3  A    between atoms: C7_13  and  C8_14
REMARK    4  A    between atoms: C8_14  and  C9_15
REMARK    5  A    between atoms: C12_20  and  O3_21
REMARK    6  A    between atoms: C19_31  and  C20_32
REMARK    7  A    between atoms: C20_32  and  C21_33
REMARK    8  A    between atoms: C21_33  and  C22_34
REMARK    9  A    between atoms: C22_34  and  N5_35
REMARK   10  A    between atoms: C24_42  and  O5_43
REMARK   11  A    between atoms: C25_45  and  C26_46
REMARK   12  A    between atoms: C29_50  and  O6_51
REMARK   13  A    between atoms: C30_53  and  C31_54
ROOT
HETATM    1  C4  UNL     1       0.985   2.025  10.974  1.00  0.00     0.223 C
HETATM    2  O1  UNL     1       0.642   2.657  12.037  1.00  0.00    -0.273 OA
HETATM    3  N1  UNL     1       1.452   2.642   9.836  1.00  0.00    -0.313 N
ATOM      4  H1  UNL     1       1.008   2.356   8.964  1.00  0.00     0.170 HD
HETATM    5  C5  UNL     1       2.380   3.536   9.726  1.00  0.00     0.117 C
HETATM    6  N2  UNL     1       3.021   3.950  10.917  1.00  0.00    -0.311 N
ATOM      7  H2  UNL     1       2.368   4.318  11.609  1.00  0.00     0.170 HD
HETATM    8  C6  UNL     1       4.349   3.969  11.361  1.00  0.00     0.246 C
HETATM    9  O2  UNL     1       4.886   5.146  11.445  1.00  0.00    -0.271 OA
HETATM   10  C7  UNL     1       5.250   2.835  11.759  1.00  0.00     0.181 C
HETATM   11  N4  UNL     1       6.435   3.370  12.301  1.00  0.00    -0.346 N
ATOM     12  H4  UNL     1       6.272   3.904  13.155  1.00  0.00     0.163 HD
HETATM   13  C18 UNL     1       7.776   3.337  11.938  1.00  0.00     0.241 C
HETATM   14  O4  UNL     1       8.623   3.548  12.894  1.00  0.00    -0.271 OA
HETATM   15  C19 UNL     1       8.347   3.090  10.573  1.00  0.00     0.176 C
HETATM   16  N8  UNL     1       7.689   2.008   9.959  1.00  0.00    -0.355 N
ATOM     17  H8  UNL     1       7.391   1.301  10.632  1.00  0.00     0.162 HD
HETATM   18  C24 UNL     1       7.350   1.673   8.653  1.00  0.00     0.174 C
HETATM   19  C25 UNL     1       6.722   2.504   7.581  1.00  0.00     0.141 C
HETATM   20  N9  UNL     1       5.913   3.339   7.929  1.00  0.00    -0.380 NA
HETATM   21  C29 UNL     1       4.997   4.343   7.892  1.00  0.00     0.221 C
HETATM   22  C30 UNL     1       3.547   4.391   7.605  1.00  0.00     0.016 C
HETATM   23  C33 UNL     1       2.535   4.053   8.365  1.00  0.00    -0.006 C
HETATM   24  C34 UNL     1       1.191   4.154   7.580  1.00  0.00     0.053 C
ENDROOT
BRANCH  10  25
HETATM   25  C8  UNL     1       4.596   1.886  12.731  1.00  0.00     0.075 C
BRANCH  25  26
HETATM   26  C9  UNL     1       5.377   0.675  12.969  1.00  0.00    -0.028 A
HETATM   27  C10 UNL     1       6.114  -0.020  12.003  1.00  0.00     0.096 A
HETATM   28  N3  UNL     1       6.736  -1.058  12.578  1.00  0.00    -0.362 N
HETATM   29  C11 UNL     1       6.447  -1.090  13.897  1.00  0.00     0.076 A
ATOM     30  H3  UNL     1       7.338  -1.723  12.093  1.00  0.00     0.165 HD
HETATM   31  C12 UNL     1       6.818  -1.958  14.908  1.00  0.00     0.095 A
HETATM   32  C17 UNL     1       5.600  -0.008  14.137  1.00  0.00     0.001 A
HETATM   33  C14 UNL     1       6.351  -1.774  16.179  1.00  0.00     0.039 A
HETATM   34  C15 UNL     1       5.509  -0.712  16.441  1.00  0.00     0.004 A
HETATM   35  C16 UNL     1       5.147   0.142  15.448  1.00  0.00     0.014 A
BRANCH  31  36
HETATM   36  O3  UNL     1       7.667  -3.016  14.609  1.00  0.00    -0.354 OA
HETATM   37  C13 UNL     1       8.853  -3.230  15.338  1.00  0.00     0.210 C
ENDBRANCH  31  36
ENDBRANCH  25  26
ENDBRANCH  10  25
BRANCH  15  38
HETATM   38  C20 UNL     1       8.418   4.407   9.905  1.00  0.00     0.036 C
BRANCH  38  39
HETATM   39  C21 UNL     1       9.498   4.375   8.845  1.00  0.00     0.022 C
BRANCH  39  40
HETATM   40  C22 UNL     1       9.745   5.648   8.129  1.00  0.00     0.122 C
BRANCH  40  41
HETATM   41  N5  UNL     1      11.181   5.940   8.289  1.00  0.00    -0.367 N
HETATM   42  C23 UNL     1      11.604   7.058   8.789  1.00  0.00     0.196 C
HETATM   43  N6  UNL     1      10.632   8.010   9.184  1.00  0.00    -0.067 NA
HETATM   44  N7  UNL     1      12.961   7.365   8.954  1.00  0.00    -0.067 NA
ATOM     45  H5  UNL     1      11.863   5.240   7.997  1.00  0.00     0.161 HD
ENDBRANCH  40  41
ENDBRANCH  39  40
ENDBRANCH  38  39
ENDBRANCH  15  38
BRANCH   1  46
HETATM   46  C3  UNL     1       0.823   0.536  11.099  1.00  0.00     0.103 C
BRANCH  46  47
HETATM   47  C2  UNL     1       0.488   0.081  12.478  1.00  0.00     0.005 C
HETATM   48  C1  UNL     1       1.637  -0.212  13.373  1.00  0.00     0.005 C
ENDBRANCH  46  47
ENDBRANCH   1  46
BRANCH  22  49
HETATM   49  C31 UNL     1       3.230   5.098   6.263  1.00  0.00     0.040 C
HETATM   50  C32 UNL     1       3.929   4.524   5.101  1.00  0.00     0.010 C
ENDBRANCH  22  49
BRANCH  18  51
HETATM   51  O5  UNL     1       7.597   0.459   8.258  1.00  0.00    -0.344 OA
ATOM     52  H5  UNL     1       6.878  -0.162   8.264  1.00  0.00     0.219 HD
ENDBRANCH  18  51
BRANCH  21  53
HETATM   53  O6  UNL     1       5.451   5.552   8.159  1.00  0.00    -0.335 OA
ATOM     54  H6  UNL     1       5.048   6.265   7.677  1.00  0.00     0.220 HD
ENDBRANCH  21  53
BRANCH  19  55
HETATM   55  C26 UNL     1       7.242   2.065   6.223  1.00  0.00     0.046 C
HETATM   56  C27 UNL     1       6.098   1.747   5.271  1.00  0.00     0.017 C
HETATM   57  C28 UNL     1       8.296   2.936   5.618  1.00  0.00     0.017 C
ENDBRANCH  19  55
TORSDOF 13
ENDMDL