MODEL 3
REMARK VINA RESULT: -6.569156380      2.414      8.161
REMARK  13 active torsions:
REMARK  status: ('A' for Active; 'I' for Inactive)
REMARK    1  A    between atoms: C2_2  and  C4_4
REMARK    2  A    between atoms: C4_4  and  C5_5
REMARK    3  A    between atoms: C7_10  and  C8_11
REMARK    4  A    between atoms: C12_18  and  C13_19
REMARK    5  A    between atoms: C13_19  and  C14_20
REMARK    6  A    between atoms: C14_20  and  C15_21
REMARK    7  A    between atoms: C15_21  and  C16_22
REMARK    8  A    between atoms: C16_22  and  N3_23
REMARK    9  A    between atoms: C20_33  and  C21_34
REMARK   10  A    between atoms: C21_34  and  C22_35
REMARK   11  A    between atoms: N5_40  and  C27_41
REMARK   12  A    between atoms: C27_41  and  C28_42
REMARK   13  A    between atoms: C32_49  and  C33_50
ROOT
HETATM    1  C5  UNL     1       6.235 -14.424  17.681  1.00  0.00     0.177 C
HETATM    2  N1  UNL     1       5.183 -14.724  16.740  1.00  0.00    -0.346 N
ATOM      3  H1  UNL     1       5.302 -15.571  16.186  1.00  0.00     0.163 HD
HETATM    4  C6  UNL     1       4.018 -13.986  16.500  1.00  0.00     0.241 C
HETATM    5  O1  UNL     1       2.903 -14.610  16.426  1.00  0.00    -0.271 OA
HETATM    6  C7  UNL     1       3.925 -12.515  16.317  1.00  0.00     0.180 C
HETATM    7  N2  UNL     1       2.688 -12.054  16.928  1.00  0.00    -0.346 N
ATOM      8  H2  UNL     1       1.823 -12.516  16.646  1.00  0.00     0.163 HD
HETATM    9  C11 UNL     1       2.593 -11.014  17.884  1.00  0.00     0.241 C
HETATM   10  O2  UNL     1       1.726 -10.115  17.747  1.00  0.00    -0.271 OA
HETATM   11  C12 UNL     1       3.463 -10.885  19.086  1.00  0.00     0.177 C
HETATM   12  N4  UNL     1       3.742  -9.505  19.416  1.00  0.00    -0.344 N
ATOM     13  H4  UNL     1       4.046  -9.313  20.370  1.00  0.00     0.163 HD
HETATM   14  C17 UNL     1       3.636  -8.397  18.547  1.00  0.00     0.241 C
HETATM   15  O3  UNL     1       2.899  -7.423  18.986  1.00  0.00    -0.269 OA
HETATM   16  C18 UNL     1       4.248  -8.230  17.239  1.00  0.00     0.072 C
HETATM   17  C19 UNL     1       5.512  -8.210  16.928  1.00  0.00     0.004 C
HETATM   18  C20 UNL     1       6.665  -8.360  17.882  1.00  0.00     0.113 C
HETATM   19  N6  UNL     1       7.681  -9.061  17.140  1.00  0.00    -0.351 N
ATOM     20  H6  UNL     1       7.966  -8.627  16.263  1.00  0.00     0.163 HD
HETATM   21  C31 UNL     1       8.326 -10.257  17.463  1.00  0.00     0.241 C
HETATM   22  O4  UNL     1       9.604 -10.259  17.359  1.00  0.00    -0.271 OA
HETATM   23  C32 UNL     1       7.700 -11.519  17.909  1.00  0.00     0.180 C
HETATM   24  N7  UNL     1       7.758 -12.509  16.848  1.00  0.00    -0.346 N
ATOM     25  H7  UNL     1       8.097 -12.185  15.942  1.00  0.00     0.163 HD
HETATM   26  C36 UNL     1       7.402 -13.853  16.931  1.00  0.00     0.241 C
HETATM   27  O5  UNL     1       8.117 -14.700  16.320  1.00  0.00    -0.271 OA
ENDROOT
BRANCH  18  28
HETATM   28  C21 UNL     1       7.085  -7.072  18.496  1.00  0.00     0.086 C
BRANCH  28  29
HETATM   29  C22 UNL     1       7.898  -6.267  17.563  1.00  0.00     0.013 A
HETATM   30  C23 UNL     1       9.192  -6.635  17.237  1.00  0.00     0.025 A
HETATM   31  C24 UNL     1       9.974  -5.928  16.357  1.00  0.00     0.003 A
HETATM   32  C25 UNL     1       9.405  -4.810  15.796  1.00  0.00     0.017 A
HETATM   33  C26 UNL     1       8.132  -4.477  16.136  1.00  0.00     0.091 A
HETATM   34  N5  UNL     1       7.342  -5.163  17.002  1.00  0.00    -0.360 N
BRANCH  34  35
HETATM   35  C27 UNL     1       6.005  -4.713  17.189  1.00  0.00     0.132 C
BRANCH  35  36
HETATM   36  C28 UNL     1       5.373  -4.155  15.895  1.00  0.00    -0.004 C
HETATM   37  C29 UNL     1       4.003  -4.842  15.794  1.00  0.00     0.011 C
HETATM   38  C30 UNL     1       5.080  -2.693  16.155  1.00  0.00     0.011 C
ENDBRANCH  35  36
ENDBRANCH  34  35
ENDBRANCH  28  29
ENDBRANCH  18  28
BRANCH  23  39
HETATM   39  C33 UNL     1       8.402 -12.013  19.148  1.00  0.00     0.009 C
HETATM   40  C34 UNL     1       9.835 -12.413  18.907  1.00  0.00     0.012 C
HETATM   41  C35 UNL     1       8.427 -10.956  20.236  1.00  0.00     0.012 C
ENDBRANCH  23  39
BRANCH  11  42
HETATM   42  C13 UNL     1       2.619 -11.518  20.205  1.00  0.00     0.035 C
BRANCH  42  43
HETATM   43  C14 UNL     1       2.963 -12.937  20.477  1.00  0.00     0.004 C
BRANCH  43  44
HETATM   44  C15 UNL     1       4.460 -13.050  20.668  1.00  0.00     0.027 C
BRANCH  44  45
HETATM   45  C16 UNL     1       4.807 -13.254  22.124  1.00  0.00     0.229 C
BRANCH  45  46
HETATM   46  N3  UNL     1       6.214 -12.940  22.335  1.00  0.00    -0.079 N
ATOM     47  H33 UNL     1       6.719 -13.711  22.773  1.00  0.00     0.274 HD
ATOM     48  H32 UNL     1       6.736 -12.903  21.460  1.00  0.00     0.274 HD
ATOM     49  H31 UNL     1       6.293 -12.075  22.869  1.00  0.00     0.274 HD
ENDBRANCH  45  46
ENDBRANCH  44  45
ENDBRANCH  43  44
ENDBRANCH  42  43
ENDBRANCH  11  42
BRANCH   1  50
HETATM   50  C4  UNL     1       6.794 -15.617  18.403  1.00  0.00     0.038 C
BRANCH  50  51
HETATM   51  C2  UNL     1       7.110 -15.490  19.828  1.00  0.00    -0.020 C
HETATM   52  C1  UNL     1       8.557 -15.660  20.196  1.00  0.00     0.009 C
HETATM   53  C3  UNL     1       6.305 -16.401  20.731  1.00  0.00     0.009 C
ENDBRANCH  50  51
ENDBRANCH   1  50
BRANCH   6  54
HETATM   54  C8  UNL     1       3.796 -12.140  14.833  1.00  0.00     0.009 C
HETATM   55  C9  UNL     1       2.377 -12.168  14.361  1.00  0.00     0.012 C
HETATM   56  C10 UNL     1       4.526 -10.862  14.510  1.00  0.00     0.012 C
ENDBRANCH   6  54
TORSDOF 13
ENDMDL