MODEL 4
REMARK VINA RESULT: -9.574519808      3.101     10.459
REMARK  12 active torsions:
REMARK  status: ('A' for Active; 'I' for Inactive)
REMARK    1  A    between atoms: N2_7  and  C6_8
REMARK    2  A    between atoms: C6_8  and  N3_10
REMARK    3  A    between atoms: N3_10  and  C7_12
REMARK    4  A    between atoms: C7_12  and  C8_13
REMARK    5  A    between atoms: C8_13  and  C9_14
REMARK    6  A    between atoms: C9_14  and  C10_15
REMARK    7  A    between atoms: C10_15  and  C11_16
REMARK    8  A    between atoms: C11_16  and  C12_17
REMARK    9  A    between atoms: C12_17  and  C13_18
REMARK   10  A    between atoms: C13_18  and  N4_19
REMARK   11  A    between atoms: C20_26  and  C21_27
REMARK   12  A    between atoms: C27_37  and  O1_38
ROOT
HETATM    1  C1  UNL     1       4.259  -2.375  16.522  1.00  0.00     0.152 C
HETATM    2  N1  UNL     1       5.520  -2.770  15.896  1.00  0.00    -0.355 N
HETATM    3  C2  UNL     1       6.717  -1.948  16.050  1.00  0.00     0.137 C
HETATM    4  C3  UNL     1       7.590  -2.486  14.982  1.00  0.00     0.009 C
HETATM    5  C4  UNL     1       8.993  -2.043  14.980  1.00  0.00     0.033 C
HETATM    6  C5  UNL     1       8.877  -0.594  14.475  1.00  0.00     0.126 C
HETATM    7  N2  UNL     1       7.900  -0.720  13.431  1.00  0.00    -0.357 N
HETATM    8  C19 UNL     1       7.079  -1.872  13.665  1.00  0.00     0.137 C
HETATM    9  C20 UNL     1       7.287  -3.923  14.905  1.00  0.00     0.132 C
HETATM   10  C31 UNL     1       5.799  -3.911  15.097  1.00  0.00     0.228 C
HETATM   11  O2  UNL     1       4.950  -4.718  14.663  1.00  0.00    -0.273 OA
ENDROOT
BRANCH   9  12
HETATM   12  C21 UNL     1       7.880  -4.833  15.916  1.00  0.00     0.195 C
HETATM   13  N5  UNL     1       9.118  -5.376  15.440  1.00  0.00    -0.376 N
HETATM   14  C22 UNL     1       9.660  -6.446  16.169  1.00  0.00     0.098 C
ATOM     15  H5  UNL     1       9.584  -5.003  14.613  1.00  0.00     0.161 HD
HETATM   16  C23 UNL     1       8.747  -7.408  16.778  1.00  0.00     0.006 A
HETATM   17  C24 UNL     1       9.186  -8.661  17.223  1.00  0.00     0.017 A
HETATM   18  C30 UNL     1       7.421  -7.057  16.917  1.00  0.00     0.054 A
HETATM   19  C25 UNL     1       8.298  -9.537  17.796  1.00  0.00     0.031 A
HETATM   20  C26 UNL     1       6.971  -9.199  17.940  1.00  0.00     0.046 A
HETATM   21  N6  UNL     1       5.893  -9.831  18.450  1.00  0.00    -0.336 N
HETATM   22  C29 UNL     1       6.539  -7.968  17.503  1.00  0.00     0.022 A
HETATM   23  C27 UNL     1       4.810  -9.013  18.335  1.00  0.00     0.141 A
ATOM     24  H6  UNL     1       5.890 -10.768  18.855  1.00  0.00     0.168 HD
HETATM   25  C28 UNL     1       5.186  -7.825  17.739  1.00  0.00     0.072 A
HETATM   26  N7  UNL     1       6.985  -5.794  16.461  1.00  0.00    -0.366 N
ATOM     27  H7  UNL     1       5.994  -5.563  16.525  1.00  0.00     0.161 HD
BRANCH  23  28
HETATM   28  O1  UNL     1       3.533  -9.345  18.758  1.00  0.00    -0.346 OA
ATOM     29  H1  UNL     1       3.064  -8.894  19.450  1.00  0.00     0.219 HD
ENDBRANCH  23  28
ENDBRANCH   9  12
BRANCH   7  30
HETATM   30  C6  UNL     1       7.748   0.162  12.316  1.00  0.00     0.169 C
HETATM   31  S1  UNL     1       9.060   0.649  11.458  1.00  0.00    -0.041 SA
BRANCH  30  32
HETATM   32  N3  UNL     1       6.469   0.637  11.968  1.00  0.00    -0.367 N
ATOM     33  H3  UNL     1       6.018   0.247  11.140  1.00  0.00     0.161 HD
BRANCH  32  34
HETATM   34  C7  UNL     1       5.765   1.644  12.720  1.00  0.00     0.122 C
BRANCH  34  35
HETATM   35  C8  UNL     1       4.311   1.336  12.841  1.00  0.00     0.020 C
BRANCH  35  36
HETATM   36  C9  UNL     1       4.012   0.197  13.757  1.00  0.00     0.002 C
BRANCH  36  37
HETATM   37  C10 UNL     1       3.583  -1.073  13.125  1.00  0.00     0.000 C
BRANCH  37  38
HETATM   38  C11 UNL     1       2.240  -1.596  13.584  1.00  0.00     0.005 C
BRANCH  38  39
HETATM   39  C12 UNL     1       1.316  -0.473  13.899  1.00  0.00     0.044 C
BRANCH  39  40
HETATM   40  C13 UNL     1       0.300  -0.066  12.924  1.00  0.00     0.058 C
BRANCH  40  41
HETATM   41  N4  UNL     1       0.517   0.813  11.893  1.00  0.00    -0.393 N
HETATM   42  C14 UNL     1       1.354   0.554  10.814  1.00  0.00     0.122 C
HETATM   43  C15 UNL     1       1.177   1.577   9.679  1.00  0.00     0.020 C
HETATM   44  C16 UNL     1       1.722   2.886  10.201  1.00  0.00     0.003 C
HETATM   45  C17 UNL     1       1.369   3.044  11.634  1.00  0.00     0.020 C
HETATM   46  C18 UNL     1       0.183   2.207  12.089  1.00  0.00     0.122 C
ENDBRANCH  40  41
ENDBRANCH  39  40
ENDBRANCH  38  39
ENDBRANCH  37  38
ENDBRANCH  36  37
ENDBRANCH  35  36
ENDBRANCH  34  35
ENDBRANCH  32  34
ENDBRANCH  30  32
ENDBRANCH   7  30
TORSDOF 12
ENDMDL