MODEL 4
REMARK VINA RESULT: -8.158396494      2.002      2.851
REMARK  12 active torsions:
REMARK  status: ('A' for Active; 'I' for Inactive)
REMARK    1  A    between atoms: C2_2  and  O1_4
REMARK    2  A    between atoms: O1_4  and  C4_5
REMARK       I    between atoms: C4_5  and  N1_7
REMARK    3  A    between atoms: N1_7  and  C5_9
REMARK    4  A    between atoms: C5_9  and  C6_10
REMARK    5  A    between atoms: C6_10  and  C7_11
REMARK    6  A    between atoms: C7_11  and  C8_12
REMARK    7  A    between atoms: C8_12  and  C9_13
REMARK    8  A    between atoms: C10_14  and  O3_15
REMARK    9  A    between atoms: C28_34  and  C29_35
REMARK   10  A    between atoms: C29_35  and  N2_36
REMARK   11  A    between atoms: N2_36  and  C30_38
REMARK   12  A    between atoms: C30_38  and  C31_39
ROOT
HETATM    1  C9  UNL     1       5.866  -5.502  16.341  1.00  0.00     0.042 C
HETATM    2  C10 UNL     1       7.091  -4.714  16.323  1.00  0.00     0.147 C
HETATM    3  C11 UNL     1       8.247  -4.867  17.138  1.00  0.00     0.005 C
HETATM    4  C12 UNL     1       9.232  -5.781  17.126  1.00  0.00    -0.002 C
HETATM    5  C13 UNL     1       9.342  -6.897  16.227  1.00  0.00    -0.000 C
HETATM    6  C14 UNL     1       8.775  -8.105  16.352  1.00  0.00     0.000 C
HETATM    7  C15 UNL     1       7.935  -8.607  17.402  1.00  0.00     0.000 C
HETATM    8  C16 UNL     1       8.127  -9.502  18.357  1.00  0.00     0.000 C
HETATM    9  C17 UNL     1       9.275 -10.306  18.657  1.00  0.00     0.000 C
HETATM   10  C18 UNL     1       9.667 -11.306  17.811  1.00  0.00     0.000 C
HETATM   11  C19 UNL     1       9.031 -11.679  16.579  1.00  0.00     0.000 C
HETATM   12  C20 UNL     1       7.866 -12.230  16.321  1.00  0.00    -0.000 C
HETATM   13  C21 UNL     1       6.745 -12.694  17.077  1.00  0.00    -0.004 C
HETATM   14  C22 UNL     1       5.575 -12.266  17.452  1.00  0.00    -0.023 C
HETATM   15  C23 UNL     1       4.806 -11.032  17.260  1.00  0.00     0.054 C
HETATM   16  C24 UNL     1       5.079 -10.359  16.018  1.00  0.00    -0.023 C
HETATM   17  C25 UNL     1       4.575  -9.256  15.509  1.00  0.00    -0.004 C
HETATM   18  C26 UNL     1       3.601  -8.297  15.922  1.00  0.00    -0.003 C
HETATM   19  C27 UNL     1       3.382  -7.309  16.723  1.00  0.00    -0.004 C
HETATM   20  C28 UNL     1       3.956  -6.493  17.744  1.00  0.00     0.095 C
HETATM   21  C32 UNL     1       4.659  -7.062  18.912  1.00  0.00     0.234 C
HETATM   22  O5  UNL     1       4.448  -8.065  19.635  1.00  0.00    -0.272 OA
HETATM   23  N4  UNL     1       5.592  -5.984  18.786  1.00  0.00    -0.353 N
ATOM     24  H4  UNL     1       6.368  -5.662  19.365  1.00  0.00     0.163 HD
HETATM   25  C33 UNL     1       5.029  -5.519  17.533  1.00  0.00     0.114 C
ENDROOT
BRANCH   1  26
HETATM   26  C8  UNL     1       4.995  -4.899  15.211  1.00  0.00     0.009 C
BRANCH  26  27
HETATM   27  C7  UNL     1       4.246  -3.683  15.575  1.00  0.00     0.002 C
BRANCH  27  28
HETATM   28  C6  UNL     1       3.131  -3.541  14.513  1.00  0.00     0.020 C
BRANCH  28  29
HETATM   29  C5  UNL     1       2.243  -2.355  14.819  1.00  0.00     0.125 C
BRANCH  29  30
HETATM   30  N1  UNL     1       2.496  -1.287  13.880  1.00  0.00    -0.337 N
HETATM   31  C4  UNL     1       1.415  -0.504  13.419  1.00  0.00     0.360 C
HETATM   32  O2  UNL     1       0.227  -0.712  13.809  1.00  0.00    -0.239 OA
ATOM     33  H1  UNL     1       3.445  -1.100  13.555  1.00  0.00     0.164 HD
BRANCH  31  34
HETATM   34  O1  UNL     1       1.652   0.514  12.522  1.00  0.00    -0.299 OA
BRANCH  34  35
HETATM   35  C2  UNL     1       0.715   0.815  11.508  1.00  0.00     0.125 C
HETATM   36  C1  UNL     1       1.362   0.549  10.162  1.00  0.00     0.040 C
HETATM   37  C3  UNL     1       0.360   2.298  11.614  1.00  0.00     0.040 C
ENDBRANCH  34  35
ENDBRANCH  31  34
ENDBRANCH  29  30
ENDBRANCH  28  29
ENDBRANCH  27  28
ENDBRANCH  26  27
ENDBRANCH   1  26
BRANCH   2  38
HETATM   38  O3  UNL     1       7.550  -4.731  14.953  1.00  0.00    -0.391 OA
ATOM     39  H3  UNL     1       7.699  -3.822  14.718  1.00  0.00     0.210 HD
ENDBRANCH   2  38
BRANCH  20  40
HETATM   40  C29 UNL     1       2.787  -5.649  18.475  1.00  0.00     0.139 C
BRANCH  40  41
HETATM   41  N2  UNL     1       2.072  -6.651  19.192  1.00  0.00    -0.412 N
ATOM     42  H2  UNL     1       1.835  -7.544  18.760  1.00  0.00     0.153 HD
BRANCH  41  43
HETATM   43  C30 UNL     1       1.703  -6.358  20.527  1.00  0.00     0.213 C
BRANCH  43  44
HETATM   44  C31 UNL     1       0.419  -6.974  20.889  1.00  0.00     0.248 C
HETATM   45  N3  UNL     1       0.248  -8.406  20.793  1.00  0.00    -0.061 NA
HETATM   46  O4  UNL     1      -0.535  -6.287  21.278  1.00  0.00    -0.275 OA
ENDBRANCH  43  44
ENDBRANCH  41  43
ENDBRANCH  40  41
ENDBRANCH  20  40
TORSDOF 12
ENDMDL