MODEL 3
REMARK VINA RESULT: -10.248822885      2.444      8.871
REMARK  11 active torsions:
REMARK  status: ('A' for Active; 'I' for Inactive)
REMARK    1  A    between atoms: N1_1  and  C1_4
REMARK    2  A    between atoms: C3_8  and  C4_9
REMARK    3  A    between atoms: C4_9  and  N3_10
REMARK    4  A    between atoms: C4_9  and  C16_25
REMARK       I    between atoms: N3_10  and  C5_12
REMARK    5  A    between atoms: C5_12  and  O2_14
REMARK    6  A    between atoms: O2_14  and  C6_15
REMARK       I    between atoms: C16_25  and  N4_27
REMARK    7  A    between atoms: N4_27  and  C17_29
REMARK    8  A    between atoms: C17_29  and  C18_30
REMARK    9  A    between atoms: C17_29  and  C19_32
REMARK   10  A    between atoms: C19_32  and  C20_33
REMARK       I    between atoms: C20_33  and  N5_35
REMARK   11  A    between atoms: N5_35  and  C21_37
ROOT
HETATM    1  C4  UNL     1       3.116   1.287  12.643  1.00  0.00     0.230 C
ENDROOT
BRANCH   1   2
HETATM    2  C3  UNL     1       2.271   1.998  11.710  1.00  0.00     0.074 A
HETATM    3  C2  UNL     1       0.955   2.412  11.933  1.00  0.00     0.134 A
HETATM    4  N2  UNL     1       0.573   3.006  10.764  1.00  0.00    -0.200 N
HETATM    5  C1  UNL     1       1.579   2.957   9.899  1.00  0.00     0.676 A
ATOM      6  H2  UNL     1      -0.341   3.421  10.584  1.00  0.00     0.183 HD
HETATM    7  N6  UNL     1       2.628   2.346  10.454  1.00  0.00    -0.192 N
ATOM      8  H6  UNL     1       3.531   2.174  10.013  1.00  0.00     0.184 HD
BRANCH   5   9
HETATM    9  N1  UNL     1       1.536   3.454   8.693  1.00  0.00    -0.234 N
ATOM     10  H12 UNL     1       1.000   4.273   8.404  1.00  0.00     0.174 HD
ATOM     11  H11 UNL     1       2.032   3.063   7.893  1.00  0.00     0.174 HD
ENDBRANCH   5   9
ENDBRANCH   1   2
BRANCH   1  12
HETATM   12  N3  UNL     1       2.697  -0.022  12.943  1.00  0.00    -0.318 N
HETATM   13  C5  UNL     1       1.719  -0.746  13.523  1.00  0.00     0.361 C
HETATM   14  O1  UNL     1       0.719  -0.201  14.095  1.00  0.00    -0.238 OA
ATOM     15  H3  UNL     1       3.400  -0.670  12.587  1.00  0.00     0.166 HD
BRANCH  13  16
HETATM   16  O2  UNL     1       1.653  -2.159  13.600  1.00  0.00    -0.298 OA
BRANCH  16  17
HETATM   17  C6  UNL     1       1.631  -2.779  14.872  1.00  0.00     0.142 C
HETATM   18  C7  UNL     1       3.141  -2.672  15.258  1.00  0.00     0.016 C
HETATM   19  C8  UNL     1       3.986  -3.434  14.290  1.00  0.00     0.012 C
HETATM   20  C12 UNL     1       3.399  -3.116  16.643  1.00  0.00     0.012 C
HETATM   21  C9  UNL     1       3.624  -4.916  14.404  1.00  0.00    -0.013 C
HETATM   22  C10 UNL     1       3.896  -5.420  15.812  1.00  0.00     0.009 C
HETATM   23  C15 UNL     1       2.183  -5.048  13.999  1.00  0.00     0.012 C
HETATM   24  C11 UNL     1       3.051  -4.586  16.742  1.00  0.00    -0.013 C
HETATM   25  C13 UNL     1       1.603  -4.747  16.329  1.00  0.00     0.012 C
HETATM   26  C14 UNL     1       1.323  -4.214  14.926  1.00  0.00     0.016 C
ENDBRANCH  16  17
ENDBRANCH  13  16
ENDBRANCH   1  12
BRANCH   1  27
HETATM   27  C16 UNL     1       4.559   1.319  12.178  1.00  0.00     0.247 C
HETATM   28  O3  UNL     1       4.786   0.628  11.154  1.00  0.00    -0.271 OA
HETATM   29  N4  UNL     1       5.548   2.050  12.804  1.00  0.00    -0.348 N
ATOM     30  H4  UNL     1       5.194   2.593  13.592  1.00  0.00     0.163 HD
BRANCH  29  31
HETATM   31  C17 UNL     1       6.932   2.222  12.610  1.00  0.00     0.154 C
BRANCH  31  32
HETATM   32  C18 UNL     1       7.351   3.586  12.288  1.00  0.00     0.256 C
HETATM   33  O4  UNL     1       6.839   4.497  11.743  1.00  0.00    -0.305 OA
ENDBRANCH  31  32
BRANCH  31  34
HETATM   34  C19 UNL     1       7.637   1.761  13.892  1.00  0.00     0.135 C
BRANCH  34  35
HETATM   35  C20 UNL     1       7.957   0.306  13.786  1.00  0.00     0.220 C
HETATM   36  O5  UNL     1       8.460  -0.216  12.787  1.00  0.00    -0.274 OA
HETATM   37  N5  UNL     1       7.669  -0.507  14.933  1.00  0.00    -0.352 N
ATOM     38  H5  UNL     1       7.232  -0.051  15.734  1.00  0.00     0.163 HD
BRANCH  37  39
HETATM   39  C21 UNL     1       7.948  -1.909  15.042  1.00  0.00     0.034 C
HETATM   40  C22 UNL     1       9.408  -2.071  15.392  1.00  0.00     0.035 C
HETATM   41  C23 UNL     1       9.719  -3.515  15.725  1.00  0.00    -0.012 C
HETATM   42  C24 UNL     1       8.839  -4.064  16.802  1.00  0.00     0.009 C
HETATM   43  C28 UNL     1       9.444  -4.328  14.459  1.00  0.00     0.009 C
HETATM   44  C25 UNL     1       7.409  -3.925  16.409  1.00  0.00    -0.012 C
HETATM   45  C26 UNL     1       7.116  -4.675  15.121  1.00  0.00     0.009 C
HETATM   46  C30 UNL     1       7.092  -2.481  16.182  1.00  0.00     0.035 C
HETATM   47  C27 UNL     1       8.024  -4.139  14.048  1.00  0.00    -0.012 C
HETATM   48  C29 UNL     1       7.655  -2.674  13.808  1.00  0.00     0.035 C
ENDBRANCH  37  39
ENDBRANCH  34  35
ENDBRANCH  31  34
ENDBRANCH  29  31
ENDBRANCH   1  27
TORSDOF 11
ENDMDL