MODEL 2
REMARK VINA RESULT: -10.679919828      3.421      9.734
REMARK  9 active torsions:
REMARK  status: ('A' for Active; 'I' for Inactive)
REMARK    1  A    between atoms: C5_6  and  C6_7
REMARK    2  A    between atoms: C6_7  and  N2_8
REMARK    3  A    between atoms: C11_15  and  N4_16
REMARK    4  A    between atoms: N4_16  and  C12_18
REMARK    5  A    between atoms: C15_21  and  N5_22
REMARK    6  A    between atoms: N5_22  and  C16_24
REMARK    7  A    between atoms: C16_24  and  C17_25
REMARK    8  A    between atoms: C16_24  and  C24_33
REMARK    9  A    between atoms: C17_25  and  C18_26
REMARK       I    between atoms: C24_33  and  N7_35
ROOT
HETATM    1  C12 UNL     1       7.722  -1.155  14.683  1.00  0.00     0.032 A
HETATM    2  C13 UNL     1       8.693  -2.011  15.239  1.00  0.00     0.031 A
HETATM    3  C14 UNL     1       8.430  -3.305  15.591  1.00  0.00     0.031 A
HETATM    4  C15 UNL     1       7.179  -3.856  15.419  1.00  0.00     0.028 A
HETATM    5  C29 UNL     1       6.212  -3.033  14.875  1.00  0.00     0.031 A
HETATM    6  C30 UNL     1       6.474  -1.715  14.515  1.00  0.00     0.031 A
ENDROOT
BRANCH   4   7
HETATM    7  N5  UNL     1       6.852  -5.184  15.763  1.00  0.00    -0.376 N
ATOM      8  H5  UNL     1       7.105  -5.943  15.131  1.00  0.00     0.160 HD
BRANCH   7   9
HETATM    9  C16 UNL     1       6.169  -5.482  16.990  1.00  0.00     0.178 C
BRANCH   9  10
HETATM   10  C17 UNL     1       4.890  -6.268  16.792  1.00  0.00     0.073 C
BRANCH  10  11
HETATM   11  C18 UNL     1       3.821  -5.533  16.113  1.00  0.00    -0.056 A
HETATM   12  C19 UNL     1       3.233  -4.448  16.708  1.00  0.00     0.009 A
HETATM   13  C20 UNL     1       2.222  -3.810  16.004  1.00  0.00     0.027 A
HETATM   14  C21 UNL     1       1.804  -4.233  14.753  1.00  0.00     0.046 A
HETATM   15  N6  UNL     1       0.766  -3.561  14.060  1.00  0.00    -0.102 NA
HETATM   16  C22 UNL     1       2.402  -5.327  14.164  1.00  0.00     0.027 A
HETATM   17  C23 UNL     1       3.412  -5.968  14.860  1.00  0.00     0.009 A
ENDBRANCH  10  11
ENDBRANCH   9  10
BRANCH   9  18
HETATM   18  C24 UNL     1       7.018  -6.370  17.865  1.00  0.00     0.245 C
HETATM   19  O1  UNL     1       8.076  -5.882  18.316  1.00  0.00    -0.271 OA
HETATM   20  N7  UNL     1       6.674  -7.694  18.187  1.00  0.00    -0.324 N
HETATM   21  C25 UNL     1       7.400  -8.718  17.917  1.00  0.00     0.081 C
ATOM     22  H7  UNL     1       5.789  -7.852  18.668  1.00  0.00     0.169 HD
HETATM   23  C26 UNL     1       8.714  -8.787  17.236  1.00  0.00     0.082 C
HETATM   24  C28 UNL     1       7.042 -10.086  18.248  1.00  0.00     0.264 C
HETATM   25  C27 UNL     1       8.866 -10.212  16.823  1.00  0.00     0.129 C
HETATM   26  N8  UNL     1       7.978 -10.971  17.660  1.00  0.00    -0.356 N
ATOM     27  H8  UNL     1       8.016 -11.980  17.806  1.00  0.00     0.162 HD
HETATM   28  O2  UNL     1       6.052 -10.411  18.950  1.00  0.00    -0.266 OA
ENDBRANCH   9  18
ENDBRANCH   7   9
ENDBRANCH   4   7
BRANCH   1  29
HETATM   29  N4  UNL     1       8.038   0.172  14.378  1.00  0.00    -0.355 N
ATOM     30  H4  UNL     1       8.329   0.782  15.142  1.00  0.00     0.166 HD
BRANCH  29  31
HETATM   31  C11 UNL     1       7.979   0.717  13.084  1.00  0.00     0.050 A
HETATM   32  C10 UNL     1       8.804   0.379  12.046  1.00  0.00     0.117 A
HETATM   33  N3  UNL     1       8.717   0.898  10.795  1.00  0.00    -0.362 N
HETATM   34  C9  UNL     1       7.784   1.809  10.489  1.00  0.00     0.060 A
ATOM     35  H3  UNL     1       9.372   0.590  10.077  1.00  0.00     0.165 HD
HETATM   36  C8  UNL     1       7.428   2.514   9.359  1.00  0.00     0.049 A
HETATM   37  C32 UNL     1       6.883   2.197  11.576  1.00  0.00     0.063 A
HETATM   38  C7  UNL     1       6.360   3.298   9.735  1.00  0.00     0.094 A
HETATM   39  N2  UNL     1       6.046   3.110  11.029  1.00  0.00    -0.351 N
HETATM   40  C31 UNL     1       6.978   1.667  12.834  1.00  0.00     0.063 A
BRANCH  39  41
HETATM   41  C6  UNL     1       4.974   3.787  11.725  1.00  0.00     0.168 C
BRANCH  41  42
HETATM   42  C5  UNL     1       3.703   3.095  11.408  1.00  0.00    -0.024 A
HETATM   43  C4  UNL     1       2.824   3.692  10.514  1.00  0.00     0.011 A
HETATM   44  C3  UNL     1       1.631   3.071  10.196  1.00  0.00     0.018 A
HETATM   45  C2  UNL     1       1.322   1.857  10.771  1.00  0.00     0.090 A
HETATM   46  N1  UNL     1       2.170   1.279  11.635  1.00  0.00    -0.370 N
HETATM   47  C1  UNL     1       1.788   0.005  12.205  1.00  0.00     0.154 C
HETATM   48  C33 UNL     1       3.341   1.900  11.940  1.00  0.00     0.098 A
ENDBRANCH  41  42
ENDBRANCH  39  41
ENDBRANCH  29  31
ENDBRANCH   1  29
TORSDOF 9
ENDMDL