MODEL 1
REMARK VINA RESULT: -9.889127699      0.000      0.000
REMARK  10 active torsions:
REMARK  status: ('A' for Active; 'I' for Inactive)
REMARK    1  A    between atoms: C2_2  and  C3_3
REMARK    2  A    between atoms: C3_3  and  C4_4
REMARK    3  A    between atoms: C4_4  and  C5_5
REMARK    4  A    between atoms: C5_5  and  C6_6
REMARK    5  A    between atoms: C8_11  and  C9_12
REMARK    6  A    between atoms: C9_12  and  C10_13
REMARK    7  A    between atoms: C19_26  and  O2_27
REMARK    8  A    between atoms: C20_29  and  C21_30
REMARK    9  A    between atoms: C21_30  and  C22_31
REMARK   10  A    between atoms: C29_41  and  C30_42
ROOT
HETATM    1  C6  UNL     1       2.911  -1.158  13.619  1.00  0.00     0.176 C
HETATM    2  N1  UNL     1       3.600  -0.558  14.776  1.00  0.00    -0.346 N
ATOM      3  H1  UNL     1       3.013  -0.129  15.491  1.00  0.00     0.163 HD
HETATM    4  C7  UNL     1       4.978  -0.522  14.985  1.00  0.00     0.241 C
HETATM    5  O1  UNL     1       5.424  -0.481  16.155  1.00  0.00    -0.271 OA
HETATM    6  C8  UNL     1       5.946  -0.524  13.865  1.00  0.00     0.179 C
HETATM    7  N3  UNL     1       7.096  -1.360  14.054  1.00  0.00    -0.359 N
ATOM      8  H3  UNL     1       7.862  -1.170  13.407  1.00  0.00     0.162 HD
HETATM    9  C19 UNL     1       7.358  -2.389  14.964  1.00  0.00     0.135 C
HETATM   10  C20 UNL     1       6.715  -3.706  15.143  1.00  0.00     0.159 C
HETATM   11  N4  UNL     1       6.199  -3.812  16.520  1.00  0.00    -0.349 N
ATOM     12  H4  UNL     1       6.445  -3.037  17.135  1.00  0.00     0.163 HD
HETATM   13  C25 UNL     1       5.437  -4.796  17.099  1.00  0.00     0.222 C
HETATM   14  O3  UNL     1       5.924  -5.338  18.176  1.00  0.00    -0.273 OA
HETATM   15  C26 UNL     1       4.113  -5.344  16.676  1.00  0.00     0.076 C
HETATM   16  C27 UNL     1       4.282  -6.435  15.658  1.00  0.00     0.020 C
HETATM   17  C28 UNL     1       3.072  -4.337  16.411  1.00  0.00     0.046 C
HETATM   18  C29 UNL     1       2.647  -4.065  15.011  1.00  0.00     0.146 C
HETATM   19  N5  UNL     1       1.756  -2.893  15.102  1.00  0.00    -0.348 N
ATOM     20  H5  UNL     1       1.140  -2.840  15.913  1.00  0.00     0.163 HD
HETATM   21  C31 UNL     1       1.683  -1.846  14.173  1.00  0.00     0.241 C
HETATM   22  O5  UNL     1       0.544  -1.475  13.799  1.00  0.00    -0.271 OA
ENDROOT
BRANCH   6  23
HETATM   23  C9  UNL     1       6.414   0.940  13.825  1.00  0.00     0.075 C
BRANCH  23  24
HETATM   24  C10 UNL     1       6.767   1.457  12.514  1.00  0.00    -0.028 A
HETATM   25  C11 UNL     1       7.815   1.302  11.667  1.00  0.00     0.096 A
HETATM   26  N2  UNL     1       7.601   2.032  10.573  1.00  0.00    -0.364 N
HETATM   27  C12 UNL     1       6.441   2.680  10.640  1.00  0.00     0.049 A
ATOM     28  H2  UNL     1       8.245   2.087   9.783  1.00  0.00     0.165 HD
HETATM   29  C13 UNL     1       5.746   3.546   9.793  1.00  0.00    -0.034 A
HETATM   30  C18 UNL     1       5.890   2.341  11.852  1.00  0.00    -0.001 A
HETATM   31  C14 UNL     1       6.337   3.910   8.489  1.00  0.00     0.050 C
HETATM   32  C15 UNL     1       4.518   4.076  10.127  1.00  0.00     0.009 A
HETATM   33  C16 UNL     1       3.976   3.735  11.330  1.00  0.00     0.002 A
HETATM   34  C17 UNL     1       4.661   2.882  12.165  1.00  0.00     0.014 A
ENDBRANCH  23  24
ENDBRANCH   6  23
BRANCH   9  35
HETATM   35  O2  UNL     1       8.324  -2.198  15.817  1.00  0.00    -0.348 OA
ATOM     36  H2  UNL     1       8.254  -2.635  16.658  1.00  0.00     0.219 HD
ENDBRANCH   9  35
BRANCH   1  37
HETATM   37  C5  UNL     1       2.506   0.031  12.779  1.00  0.00     0.035 C
BRANCH  37  38
HETATM   38  C4  UNL     1       2.939   0.038  11.367  1.00  0.00     0.002 C
BRANCH  38  39
HETATM   39  C3  UNL     1       1.740   0.572  10.561  1.00  0.00    -0.000 C
BRANCH  39  40
HETATM   40  C2  UNL     1       0.696   1.144  11.474  1.00  0.00    -0.005 C
HETATM   41  C1  UNL     1       0.388   2.571  11.115  1.00  0.00     0.005 C
ENDBRANCH  39  40
ENDBRANCH  38  39
ENDBRANCH  37  38
ENDBRANCH   1  37
BRANCH  10  42
HETATM   42  C21 UNL     1       7.695  -4.820  14.890  1.00  0.00     0.037 C
BRANCH  42  43
HETATM   43  C22 UNL     1       8.720  -5.142  15.876  1.00  0.00    -0.020 C
HETATM   44  C23 UNL     1       8.690  -6.421  16.609  1.00  0.00     0.009 C
HETATM   45  C24 UNL     1      10.101  -4.901  15.245  1.00  0.00     0.009 C
ENDBRANCH  42  43
ENDBRANCH  10  42
BRANCH  18  46
HETATM   46  C30 UNL     1       1.776  -5.128  14.418  1.00  0.00     0.256 C
HETATM   47  O4  UNL     1       0.563  -5.130  14.668  1.00  0.00    -0.305 OA
ENDBRANCH  18  46
TORSDOF 10
ENDMDL