MODEL 1
REMARK VINA RESULT: -9.063188820      0.000      0.000
REMARK  10 active torsions:
REMARK  status: ('A' for Active; 'I' for Inactive)
REMARK       I    between atoms: N1_2  and  C2_4
REMARK    1  A    between atoms: C2_4  and  C3_6
REMARK    2  A    between atoms: C3_6  and  C4_7
REMARK    3  A    between atoms: C4_7  and  C5_8
REMARK    4  A    between atoms: C5_8  and  C6_9
REMARK    5  A    between atoms: C9_12  and  C10_13
REMARK    6  A    between atoms: C13_16  and  C14_17
REMARK       I    between atoms: C14_17  and  N2_19
REMARK    7  A    between atoms: N2_19  and  C15_21
REMARK    8  A    between atoms: C18_24  and  C19_25
REMARK       I    between atoms: C19_25  and  N3_27
REMARK    9  A    between atoms: N3_27  and  C20_29
REMARK       I    between atoms: N4_32  and  C23_34
REMARK   10  A    between atoms: C23_34  and  C24_36
ROOT
HETATM    1  C15 UNL     1       3.276  -3.300  14.005  1.00  0.00     0.035 A
HETATM    2  C16 UNL     1       2.346  -4.314  14.017  1.00  0.00     0.030 A
HETATM    3  C17 UNL     1       2.498  -5.441  14.840  1.00  0.00     0.019 A
HETATM    4  C18 UNL     1       3.586  -5.562  15.657  1.00  0.00     0.032 A
HETATM    5  C27 UNL     1       4.519  -4.539  15.641  1.00  0.00     0.019 A
HETATM    6  C28 UNL     1       4.361  -3.419  14.820  1.00  0.00     0.030 A
ENDROOT
BRANCH   1   7
HETATM    7  N2  UNL     1       3.105  -2.237  13.124  1.00  0.00    -0.323 N
HETATM    8  C14 UNL     1       2.349  -1.093  13.390  1.00  0.00     0.256 C
HETATM    9  O2  UNL     1       1.741  -1.007  14.506  1.00  0.00    -0.267 OA
ATOM     10  H2  UNL     1       3.567  -2.297  12.216  1.00  0.00     0.169 HD
BRANCH   8  11
HETATM   11  C13 UNL     1       2.217   0.037  12.436  1.00  0.00     0.032 A
HETATM   12  C12 UNL     1       3.210   1.013  12.409  1.00  0.00     0.018 A
HETATM   13  C11 UNL     1       3.145   2.080  11.525  1.00  0.00     0.015 A
HETATM   14  C10 UNL     1       2.098   2.220  10.639  1.00  0.00    -0.002 A
HETATM   15  C30 UNL     1       1.120   1.250  10.674  1.00  0.00     0.015 A
HETATM   16  C29 UNL     1       1.179   0.175  11.559  1.00  0.00     0.018 A
BRANCH  14  17
HETATM   17  C9  UNL     1       2.003   3.328   9.688  1.00  0.00     0.086 A
HETATM   18  C8  UNL     1       2.128   4.663   9.962  1.00  0.00     0.040 A
HETATM   19  C7  UNL     1       1.969   5.345   8.774  1.00  0.00     0.035 A
HETATM   20  C6  UNL     1       1.752   4.403   7.814  1.00  0.00     0.053 A
HETATM   21  O6  UNL     1       1.782   3.220   8.406  1.00  0.00    -0.314 OA
BRANCH  20  22
HETATM   22  C5  UNL     1       1.510   4.511   6.349  1.00  0.00     0.065 C
BRANCH  22  23
HETATM   23  C4  UNL     1       2.648   5.148   5.650  1.00  0.00     0.016 C
BRANCH  23  24
HETATM   24  C3  UNL     1       3.822   4.248   5.494  1.00  0.00     0.103 C
BRANCH  24  25
HETATM   25  C2  UNL     1       4.917   4.543   6.450  1.00  0.00     0.217 C
HETATM   26  N1  UNL     1       5.863   3.510   6.765  1.00  0.00    -0.365 N
HETATM   27  C1  UNL     1       6.929   3.793   7.694  1.00  0.00     0.149 C
ATOM     28  H1  UNL     1       5.782   2.587   6.338  1.00  0.00     0.161 HD
HETATM   29  O1  UNL     1       5.026   5.670   6.980  1.00  0.00    -0.274 OA
ENDBRANCH  24  25
ENDBRANCH  23  24
ENDBRANCH  22  23
ENDBRANCH  20  22
ENDBRANCH  14  17
ENDBRANCH   8  11
ENDBRANCH   1   7
BRANCH   4  30
HETATM   30  C19 UNL     1       3.839  -6.728  16.520  1.00  0.00     0.257 C
HETATM   31  O3  UNL     1       2.914  -7.090  17.281  1.00  0.00    -0.267 OA
HETATM   32  N3  UNL     1       5.089  -7.363  16.449  1.00  0.00    -0.309 N
ATOM     33  H3  UNL     1       5.740  -6.988  15.760  1.00  0.00     0.170 HD
BRANCH  32  34
HETATM   34  C20 UNL     1       5.559  -8.455  17.210  1.00  0.00     0.109 A
HETATM   35  C21 UNL     1       6.823  -8.493  17.714  1.00  0.00     0.078 A
HETATM   36  C22 UNL     1       7.231  -9.609  18.435  1.00  0.00     0.040 A
HETATM   37  N4  UNL     1       8.436  -9.603  18.891  1.00  0.00    -0.319 N
HETATM   38  C25 UNL     1       6.370 -10.665  18.640  1.00  0.00     0.046 A
HETATM   39  C23 UNL     1       9.006 -10.653  19.642  1.00  0.00     0.311 C
ATOM     40  H4  UNL     1       9.015  -8.786  18.696  1.00  0.00     0.169 HD
HETATM   41  O4  UNL     1       8.503 -11.064  20.721  1.00  0.00    -0.262 OA
HETATM   42  C26 UNL     1       5.113 -10.606  18.131  1.00  0.00     0.092 A
HETATM   43  N6  UNL     1       4.733  -9.525  17.437  1.00  0.00    -0.352 N
ATOM     44  H6  UNL     1       3.785  -9.497  17.060  1.00  0.00     0.166 HD
BRANCH  39  45
HETATM   45  C24 UNL     1      10.220 -11.266  19.134  1.00  0.00     0.322 C
HETATM   46  N5  UNL     1      10.420 -11.351  17.738  1.00  0.00    -0.053 NA
HETATM   47  O5  UNL     1      11.108 -11.729  19.919  1.00  0.00    -0.266 OA
ENDBRANCH  39  45
ENDBRANCH  32  34
ENDBRANCH   4  30
TORSDOF 10
ENDMDL