MODEL 3
REMARK VINA RESULT: -10.142487329      1.473      8.438
REMARK  13 active torsions:
REMARK  status: ('A' for Active; 'I' for Inactive)
REMARK    1  A    between atoms: N1_1  and  C1_5
REMARK    2  A    between atoms: C1_5  and  C2_6
REMARK    3  A    between atoms: C6_10  and  C7_11
REMARK    4  A    between atoms: C7_11  and  N2_12
REMARK    5  A    between atoms: N2_12  and  C8_14
REMARK    6  A    between atoms: C10_21  and  N5_22
REMARK    7  A    between atoms: N5_22  and  C11_24
REMARK    8  A    between atoms: C11_24  and  C12_25
REMARK    9  A    between atoms: C12_25  and  C13_26
REMARK   10  A    between atoms: C21_38  and  N8_39
REMARK   11  A    between atoms: N8_39  and  C22_40
REMARK   12  A    between atoms: C22_40  and  C23_41
REMARK   13  A    between atoms: C22_40  and  C29_47
ROOT
HETATM    1  C8  UNL     1       4.192  -3.473  15.686  1.00  0.00     0.165 C
HETATM    2  N3  UNL     1       3.077  -4.166  15.408  1.00  0.00    -0.290 N
ATOM      3  H3  UNL     1       3.053  -5.126  15.753  1.00  0.00     0.172 HD
HETATM    4  C9  UNL     1       1.968  -3.752  14.723  1.00  0.00     0.340 C
HETATM    5  O1  UNL     1       1.007  -4.555  14.646  1.00  0.00    -0.246 OA
HETATM    6  N4  UNL     1       1.774  -2.571  14.107  1.00  0.00    -0.141 N
ATOM      7  H4  UNL     1       1.071  -2.545  13.368  1.00  0.00     0.189 HD
HETATM    8  C10 UNL     1       2.431  -1.406  14.380  1.00  0.00     0.684 C
HETATM    9  N7  UNL     1       3.636  -1.227  14.941  1.00  0.00    -0.161 N
ATOM     10  H7  UNL     1       3.894  -0.259  15.136  1.00  0.00     0.187 HD
HETATM   11  C21 UNL     1       4.567  -2.170  15.285  1.00  0.00     0.232 C
ENDROOT
BRANCH   1  12
HETATM   12  N2  UNL     1       5.033  -4.086  16.423  1.00  0.00    -0.368 N
ATOM     13  H2  UNL     1       5.951  -3.647  16.494  1.00  0.00     0.161 HD
BRANCH  12  14
HETATM   14  C7  UNL     1       4.883  -5.287  17.158  1.00  0.00     0.160 C
BRANCH  14  15
HETATM   15  C6  UNL     1       6.147  -6.021  17.424  1.00  0.00    -0.040 A
HETATM   16  C5  UNL     1       7.363  -5.432  17.668  1.00  0.00     0.009 A
HETATM   17  C4  UNL     1       8.487  -6.194  17.908  1.00  0.00     0.001 A
HETATM   18  C3  UNL     1       8.434  -7.571  17.913  1.00  0.00     0.009 A
HETATM   19  C2  UNL     1       7.210  -8.173  17.668  1.00  0.00    -0.033 A
HETATM   20  C35 UNL     1       6.094  -7.397  17.429  1.00  0.00     0.017 A
BRANCH  19  21
HETATM   21  C1  UNL     1       7.148  -9.666  17.676  1.00  0.00     0.268 C
BRANCH  21  22
HETATM   22  N1  UNL     1       7.328 -10.146  19.033  1.00  0.00    -0.075 N
ATOM     23  H13 UNL     1       6.550  -9.890  19.641  1.00  0.00     0.274 HD
ATOM     24  H12 UNL     1       7.235 -11.159  19.099  1.00  0.00     0.274 HD
ATOM     25  H11 UNL     1       8.224  -9.816  19.392  1.00  0.00     0.274 HD
ENDBRANCH  21  22
ENDBRANCH  19  21
ENDBRANCH  14  15
ENDBRANCH  12  14
ENDBRANCH   1  12
BRANCH  11  26
HETATM   26  N8  UNL     1       5.719  -1.925  15.264  1.00  0.00    -0.411 NA
BRANCH  26  27
HETATM   27  C22 UNL     1       7.027  -1.607  15.261  1.00  0.00     0.231 C
BRANCH  27  28
HETATM   28  C23 UNL     1       7.366  -0.565  14.213  1.00  0.00    -0.018 A
HETATM   29  C24 UNL     1       7.343   0.772  14.533  1.00  0.00     0.011 A
HETATM   30  C25 UNL     1       7.659   1.725  13.559  1.00  0.00     0.001 A
HETATM   31  C26 UNL     1       7.994   1.349  12.278  1.00  0.00     0.000 A
HETATM   32  C27 UNL     1       8.017   0.012  11.952  1.00  0.00     0.001 A
HETATM   33  C28 UNL     1       7.703  -0.927  12.927  1.00  0.00     0.011 A
ENDBRANCH  27  28
BRANCH  27  34
HETATM   34  C29 UNL     1       7.998  -2.737  15.130  1.00  0.00    -0.018 A
HETATM   35  C30 UNL     1       7.721  -3.874  14.383  1.00  0.00     0.011 A
HETATM   36  C31 UNL     1       8.644  -4.914  14.276  1.00  0.00     0.001 A
HETATM   37  C32 UNL     1       9.854  -4.850  14.903  1.00  0.00     0.000 A
HETATM   38  C33 UNL     1      10.157  -3.723  15.658  1.00  0.00     0.001 A
HETATM   39  C34 UNL     1       9.228  -2.711  15.747  1.00  0.00     0.011 A
ENDBRANCH  27  34
ENDBRANCH  26  27
ENDBRANCH  11  26
BRANCH   8  40
HETATM   40  N5  UNL     1       1.809  -0.346  14.055  1.00  0.00    -0.226 N
ATOM     41  H5  UNL     1       2.292   0.530  14.256  1.00  0.00     0.177 HD
BRANCH  40  42
HETATM   42  C11 UNL     1       0.531  -0.219  13.450  1.00  0.00     0.142 C
BRANCH  42  43
HETATM   43  C12 UNL     1       0.738  -0.021  11.952  1.00  0.00     0.061 C
BRANCH  43  44
HETATM   44  C13 UNL     1       1.105   1.390  11.625  1.00  0.00    -0.029 A
HETATM   45  C14 UNL     1       0.228   2.448  11.427  1.00  0.00     0.096 A
HETATM   46  N6  UNL     1       0.953   3.527  11.156  1.00  0.00    -0.365 N
HETATM   47  C15 UNL     1       2.269   3.230  11.167  1.00  0.00     0.042 A
ATOM     48  H6  UNL     1       0.568   4.452  10.967  1.00  0.00     0.165 HD
HETATM   49  C16 UNL     1       3.384   4.017  10.946  1.00  0.00     0.030 A
HETATM   50  C20 UNL     1       2.369   1.891  11.460  1.00  0.00    -0.002 A
HETATM   51  C17 UNL     1       4.629   3.406  11.029  1.00  0.00     0.002 A
HETATM   52  C18 UNL     1       4.758   2.070  11.322  1.00  0.00     0.001 A
HETATM   53  C19 UNL     1       3.631   1.321  11.534  1.00  0.00     0.014 A
ENDBRANCH  43  44
ENDBRANCH  42  43
ENDBRANCH  40  42
ENDBRANCH   8  40
TORSDOF 13
ENDMDL