MODEL 1
REMARK VINA RESULT: -8.027755758      0.000      0.000
REMARK  12 active torsions:
REMARK  status: ('A' for Active; 'I' for Inactive)
REMARK    1  A    between atoms: C2_2  and  C3_3
REMARK    2  A    between atoms: C3_3  and  C5_5
REMARK    3  A    between atoms: C6_8  and  O1_9
REMARK    4  A    between atoms: C7_11  and  C8_12
REMARK    5  A    between atoms: C8_12  and  C9_13
REMARK    6  A    between atoms: C12_18  and  O2_19
REMARK    7  A    between atoms: C13_21  and  C14_22
REMARK    8  A    between atoms: C14_22  and  C15_23
REMARK    9  A    between atoms: C19_30  and  C20_31
REMARK   10  A    between atoms: C23_36  and  O4_37
REMARK   11  A    between atoms: C24_39  and  C25_40
REMARK   12  A    between atoms: C25_40  and  C26_41
ROOT
HETATM    1  C5  UNL     1       3.084  -6.651  18.551  1.00  0.00     0.087 C
HETATM    2  N1  UNL     1       4.380  -6.155  18.296  1.00  0.00    -0.325 N
ATOM      3  H1  UNL     1       4.337  -5.405  17.607  1.00  0.00     0.169 HD
HETATM    4  C6  UNL     1       5.693  -6.366  18.687  1.00  0.00     0.168 C
HETATM    5  C7  UNL     1       6.683  -7.440  18.354  1.00  0.00     0.082 C
HETATM    6  N2  UNL     1       6.148  -8.756  18.284  1.00  0.00    -0.336 N
ATOM      7  H2  UNL     1       5.164  -8.740  18.551  1.00  0.00     0.168 HD
HETATM    8  C12 UNL     1       6.518 -10.040  17.975  1.00  0.00     0.139 C
HETATM    9  C13 UNL     1       7.142 -10.678  16.813  1.00  0.00     0.159 C
HETATM   10  N3  UNL     1       6.177 -11.030  15.770  1.00  0.00    -0.347 N
ATOM     11  H3  UNL     1       6.491 -10.896  14.809  1.00  0.00     0.163 HD
HETATM   12  C18 UNL     1       4.881 -11.526  15.924  1.00  0.00     0.241 C
HETATM   13  O3  UNL     1       4.650 -12.707  15.460  1.00  0.00    -0.271 OA
HETATM   14  C19 UNL     1       3.688 -10.914  16.544  1.00  0.00     0.179 C
HETATM   15  N4  UNL     1       3.039  -9.976  15.618  1.00  0.00    -0.356 N
ATOM     16  H4  UNL     1       2.348 -10.392  14.994  1.00  0.00     0.162 HD
HETATM   17  C23 UNL     1       3.222  -8.623  15.466  1.00  0.00     0.160 C
HETATM   18  C24 UNL     1       2.927  -7.471  16.342  1.00  0.00     0.066 C
HETATM   19  N5  UNL     1       2.617  -7.742  17.695  1.00  0.00    -0.345 N
ATOM     20  H5  UNL     1       2.137  -8.577  18.027  1.00  0.00     0.167 HD
ENDROOT
BRANCH  18  21
HETATM   21  C25 UNL     1       2.055  -6.472  15.641  1.00  0.00     0.100 C
BRANCH  21  22
HETATM   22  C26 UNL     1       2.671  -5.296  15.064  1.00  0.00    -0.052 A
HETATM   23  C27 UNL     1       3.999  -4.934  15.124  1.00  0.00     0.008 A
HETATM   24  C28 UNL     1       4.501  -3.784  14.541  1.00  0.00     0.007 A
HETATM   25  C29 UNL     1       3.677  -2.923  13.856  1.00  0.00    -0.062 A
HETATM   26  C30 UNL     1       4.246  -1.696  13.239  1.00  0.00     0.048 C
HETATM   27  C31 UNL     1       2.348  -3.248  13.775  1.00  0.00     0.007 A
HETATM   28  C32 UNL     1       1.850  -4.403  14.361  1.00  0.00     0.008 A
ENDBRANCH  21  22
ENDBRANCH  18  21
BRANCH  17  29
HETATM   29  O4  UNL     1       3.757  -8.254  14.335  1.00  0.00    -0.345 OA
ATOM     30  H4  UNL     1       4.453  -7.611  14.403  1.00  0.00     0.219 HD
ENDBRANCH  17  29
BRANCH   1  31
HETATM   31  C3  UNL     1       2.624  -6.808  19.953  1.00  0.00     0.049 C
HETATM   32  C4  UNL     1       2.859  -5.582  20.805  1.00  0.00     0.018 C
BRANCH  31  33
HETATM   33  C2  UNL     1       1.220  -7.286  20.157  1.00  0.00     0.007 C
HETATM   34  C1  UNL     1       0.551  -6.525  21.280  1.00  0.00     0.006 C
ENDBRANCH  31  33
ENDBRANCH   1  31
BRANCH  14  35
HETATM   35  C20 UNL     1       2.640 -11.990  16.885  1.00  0.00     0.009 C
HETATM   36  C21 UNL     1       1.279 -11.570  16.378  1.00  0.00     0.012 C
HETATM   37  C22 UNL     1       2.583 -12.306  18.340  1.00  0.00     0.012 C
ENDBRANCH  14  35
BRANCH   4  38
HETATM   38  O1  UNL     1       6.221  -5.487  19.498  1.00  0.00    -0.344 OA
ATOM     39  H1  UNL     1       6.322  -4.601  19.170  1.00  0.00     0.219 HD
ENDBRANCH   4  38
BRANCH   5  40
HETATM   40  C8  UNL     1       7.801  -7.038  17.510  1.00  0.00     0.011 C
BRANCH  40  41
HETATM   41  C9  UNL     1       8.343  -5.704  17.349  1.00  0.00     0.002 C
HETATM   42  C10 UNL     1       7.947  -4.979  16.052  1.00  0.00     0.013 C
HETATM   43  C11 UNL     1       9.806  -5.443  17.508  1.00  0.00     0.013 C
ENDBRANCH  40  41
ENDBRANCH   5  40
BRANCH   9  44
HETATM   44  C14 UNL     1       8.100 -11.783  17.078  1.00  0.00     0.037 C
BRANCH  44  45
HETATM   45  C15 UNL     1       9.545 -11.511  17.084  1.00  0.00    -0.020 C
HETATM   46  C16 UNL     1       9.852 -10.063  17.434  1.00  0.00     0.009 C
HETATM   47  C17 UNL     1      10.452 -12.427  17.822  1.00  0.00     0.009 C
ENDBRANCH  44  45
ENDBRANCH   9  44
BRANCH   8  48
HETATM   48  O2  UNL     1       6.266 -10.938  18.910  1.00  0.00    -0.348 OA
ATOM     49  H2  UNL     1       6.762 -10.836  19.713  1.00  0.00     0.219 HD
ENDBRANCH   8  48
TORSDOF 12
ENDMDL