MODEL 5
REMARK VINA RESULT: -8.891562746      2.567      6.036
REMARK  12 active torsions:
REMARK  status: ('A' for Active; 'I' for Inactive)
REMARK    1  A    between atoms: C2_2  and  C3_3
REMARK    2  A    between atoms: C3_3  and  C4_4
REMARK    3  A    between atoms: C4_4  and  C5_5
REMARK    4  A    between atoms: C5_5  and  C7_7
REMARK    5  A    between atoms: C16_20  and  C17_21
REMARK    6  A    between atoms: C17_21  and  C18_22
REMARK    7  A    between atoms: C18_22  and  C19_23
REMARK    8  A    between atoms: C20_28  and  O5_29
REMARK    9  A    between atoms: C24_36  and  O6_37
REMARK   10  A    between atoms: C25_39  and  C26_40
REMARK   11  A    between atoms: C26_40  and  C27_41
REMARK   12  A    between atoms: C30_46  and  O7_47
ROOT
HETATM    1  C7  UNL     1       3.788   0.467  12.454  1.00  0.00     0.072 C
HETATM    2  C8  UNL     1       3.755  -0.443  13.638  1.00  0.00     0.115 C
HETATM    3  C9  UNL     1       3.792  -1.853  13.216  1.00  0.00     0.218 C
HETATM    4  O1  UNL     1       3.675  -2.057  11.954  1.00  0.00    -0.274 OA
HETATM    5  N1  UNL     1       3.937  -3.006  13.994  1.00  0.00    -0.356 N
ATOM      6  H1  UNL     1       4.629  -3.668  13.641  1.00  0.00     0.162 HD
HETATM    7  C10 UNL     1       3.296  -3.413  15.180  1.00  0.00     0.096 C
HETATM    8  C11 UNL     1       2.452  -2.403  15.893  1.00  0.00     0.026 C
HETATM    9  C12 UNL     1       1.973  -3.262  17.074  1.00  0.00     0.003 C
HETATM   10  C13 UNL     1       3.084  -4.286  17.284  1.00  0.00     0.015 C
HETATM   11  C14 UNL     1       4.188  -3.879  16.321  1.00  0.00     0.084 C
HETATM   12  C15 UNL     1       5.071  -4.945  15.864  1.00  0.00     0.177 C
HETATM   13  O2  UNL     1       4.485  -5.766  15.098  1.00  0.00    -0.291 OA
HETATM   14  C16 UNL     1       6.470  -5.240  16.110  1.00  0.00     0.058 C
HETATM   15  N2  UNL     1       7.433  -4.754  15.136  1.00  0.00    -0.339 N
ATOM     16  H2  UNL     1       8.094  -5.478  14.853  1.00  0.00     0.167 HD
HETATM   17  C20 UNL     1       7.670  -3.564  14.505  1.00  0.00     0.144 C
HETATM   18  C21 UNL     1       8.109  -2.226  14.955  1.00  0.00     0.089 C
HETATM   19  C22 UNL     1       9.512  -2.304  15.606  1.00  0.00     0.047 C
HETATM   20  C23 UNL     1       7.264  -1.521  15.931  1.00  0.00     0.047 C
HETATM   21  N3  UNL     1       8.316  -1.331  13.817  1.00  0.00    -0.357 N
ATOM     22  H3  UNL     1       9.193  -1.491  13.320  1.00  0.00     0.162 HD
HETATM   23  C24 UNL     1       7.555  -0.314  13.290  1.00  0.00     0.135 C
HETATM   24  C25 UNL     1       7.175   1.015  13.774  1.00  0.00     0.158 C
HETATM   25  N4  UNL     1       6.036   1.635  13.124  1.00  0.00    -0.362 N
ATOM     26  H4  UNL     1       5.952   2.624  13.359  1.00  0.00     0.162 HD
HETATM   27  C30 UNL     1       5.045   1.221  12.272  1.00  0.00     0.117 C
ENDROOT
BRANCH   1  28
HETATM   28  C5  UNL     1       2.597   1.436  12.465  1.00  0.00    -0.006 C
HETATM   29  C6  UNL     1       2.946   2.774  11.865  1.00  0.00     0.011 C
BRANCH  28  30
HETATM   30  C4  UNL     1       1.411   0.883  11.781  1.00  0.00     0.005 C
BRANCH  30  31
HETATM   31  C3  UNL     1       0.143   1.148  12.524  1.00  0.00     0.000 C
BRANCH  31  32
HETATM   32  C2  UNL     1       0.078   0.317  13.772  1.00  0.00    -0.005 C
HETATM   33  C1  UNL     1       0.055  -1.183  13.393  1.00  0.00     0.005 C
ENDBRANCH  31  32
ENDBRANCH  30  31
ENDBRANCH  28  30
ENDBRANCH   1  28
BRANCH  27  34
HETATM   34  O7  UNL     1       5.209   1.547  11.020  1.00  0.00    -0.349 OA
ATOM     35  H7  UNL     1       4.376   1.550  10.562  1.00  0.00     0.219 HD
ENDBRANCH  27  34
BRANCH  24  36
HETATM   36  C26 UNL     1       8.351   1.986  13.484  1.00  0.00     0.037 C
BRANCH  36  37
HETATM   37  C27 UNL     1       8.547   2.313  12.060  1.00  0.00    -0.020 C
HETATM   38  C28 UNL     1       8.647   3.855  11.995  1.00  0.00     0.009 C
HETATM   39  C29 UNL     1       9.899   1.824  11.526  1.00  0.00     0.009 C
ENDBRANCH  36  37
ENDBRANCH  24  36
BRANCH  23  40
HETATM   40  O6  UNL     1       7.051  -0.544  12.112  1.00  0.00    -0.348 OA
ATOM     41  H6  UNL     1       6.412  -1.245  12.071  1.00  0.00     0.219 HD
ENDBRANCH  23  40
BRANCH  14  42
HETATM   42  C17 UNL     1       7.008  -5.152  17.501  1.00  0.00     0.071 C
BRANCH  42  43
HETATM   43  C18 UNL     1       8.040  -6.160  17.886  1.00  0.00     0.119 C
BRANCH  43  44
HETATM   44  C19 UNL     1       9.424  -5.793  17.523  1.00  0.00     0.172 C
HETATM   45  O3  UNL     1      10.083  -4.984  18.229  1.00  0.00    -0.648 OA
HETATM   46  O4  UNL     1       9.996  -6.358  16.381  1.00  0.00    -0.648 OA
ENDBRANCH  43  44
ENDBRANCH  42  43
ENDBRANCH  14  42
BRANCH  17  47
HETATM   47  O5  UNL     1       7.469  -3.602  13.212  1.00  0.00    -0.347 OA
ATOM     48  H5  UNL     1       7.722  -4.423  12.808  1.00  0.00     0.219 HD
ENDBRANCH  17  47
TORSDOF 12
ENDMDL