MODEL 4
REMARK VINA RESULT: -10.475036490      2.911      9.833
REMARK  10 active torsions:
REMARK  status: ('A' for Active; 'I' for Inactive)
REMARK    1  A    between atoms: C2_2  and  N1_3
REMARK    2  A    between atoms: N1_3  and  C3_4
REMARK       I    between atoms: N1_3  and  C22_31
REMARK    3  A    between atoms: C3_4  and  C4_5
REMARK    4  A    between atoms: C9_10  and  C10_11
REMARK    5  A    between atoms: C13_16  and  C14_17
REMARK    6  A    between atoms: C22_31  and  C23_33
REMARK    7  A    between atoms: C23_33  and  C24_34
REMARK    8  A    between atoms: C27_37  and  C28_38
REMARK    9  A    between atoms: C29_39  and  S1_40
REMARK   10  A    between atoms: S1_40  and  N6_41
ROOT
HETATM    1  C4  UNL     1       8.253  -1.276  15.045  1.00  0.00    -0.039 A
HETATM    2  C5  UNL     1       9.545  -1.749  15.077  1.00  0.00     0.010 A
HETATM    3  C6  UNL     1       9.832  -3.049  15.511  1.00  0.00     0.013 A
HETATM    4  C7  UNL     1       8.814  -3.883  15.918  1.00  0.00    -0.025 A
HETATM    5  C8  UNL     1       9.075  -5.185  16.357  1.00  0.00     0.027 A
HETATM    6  C9  UNL     1       8.071  -6.027  16.765  1.00  0.00     0.009 A
HETATM    7  C18 UNL     1       6.776  -5.559  16.736  1.00  0.00     0.016 A
HETATM    8  C19 UNL     1       6.499  -4.269  16.302  1.00  0.00     0.013 A
HETATM    9  C20 UNL     1       7.515  -3.434  15.895  1.00  0.00    -0.025 A
HETATM   10  C21 UNL     1       7.254  -2.135  15.459  1.00  0.00     0.021 A
ENDROOT
BRANCH   1  11
HETATM   11  C3  UNL     1       7.927   0.091  14.593  1.00  0.00     0.164 C
BRANCH  11  12
HETATM   12  N1  UNL     1       6.749   0.185  13.771  1.00  0.00    -0.348 N
HETATM   13  C22 UNL     1       5.503   0.522  14.338  1.00  0.00     0.224 C
HETATM   14  O1  UNL     1       5.430   0.740  15.569  1.00  0.00    -0.273 OA
BRANCH  12  15
HETATM   15  C2  UNL     1       6.791  -0.065  12.322  1.00  0.00     0.121 C
HETATM   16  C1  UNL     1       8.026   0.512  11.694  1.00  0.00     0.026 C
ENDBRANCH  12  15
BRANCH  13  17
HETATM   17  C23 UNL     1       4.257   0.633  13.533  1.00  0.00     0.141 C
BRANCH  17  18
HETATM   18  C24 UNL     1       3.392  -0.569  13.715  1.00  0.00    -0.049 A
HETATM   19  C25 UNL     1       3.912  -1.828  13.621  1.00  0.00     0.008 A
HETATM   20  C26 UNL     1       3.151  -2.950  13.781  1.00  0.00     0.012 A
HETATM   21  C27 UNL     1       1.768  -2.862  14.054  1.00  0.00    -0.036 A
HETATM   22  C30 UNL     1       1.289  -1.577  14.139  1.00  0.00     0.012 A
HETATM   23  C31 UNL     1       2.065  -0.431  13.977  1.00  0.00     0.008 A
BRANCH  21  24
HETATM   24  C28 UNL     1       1.019  -4.075  14.219  1.00  0.00     0.025 C
HETATM   25  C29 UNL     1       1.179  -5.207  14.780  1.00  0.00     0.132 C
BRANCH  25  26
HETATM   26  S1  UNL     1       2.468  -5.872  15.678  1.00  0.00     0.246 S
HETATM   27  O2  UNL     1       1.934  -7.154  16.402  1.00  0.00    -0.202 OA
HETATM   28  O3  UNL     1       2.944  -5.010  16.786  1.00  0.00    -0.202 OA
BRANCH  26  29
HETATM   29  N6  UNL     1       3.787  -6.403  14.675  1.00  0.00    -0.325 N
ATOM     30  H62 UNL     1       3.766  -6.339  13.657  1.00  0.00     0.169 HD
ATOM     31  H61 UNL     1       4.568  -6.778  15.213  1.00  0.00     0.169 HD
ENDBRANCH  26  29
ENDBRANCH  25  26
ENDBRANCH  21  24
ENDBRANCH  17  18
ENDBRANCH  13  17
ENDBRANCH  11  12
ENDBRANCH   1  11
BRANCH   6  32
HETATM   32  C10 UNL     1       8.359  -7.403  17.231  1.00  0.00     0.116 A
HETATM   33  N2  UNL     1       8.309  -7.857  18.491  1.00  0.00    -0.340 N
HETATM   34  C11 UNL     1       8.640  -9.182  18.518  1.00  0.00     0.061 A
ATOM     35  H2  UNL     1       8.061  -7.297  19.306  1.00  0.00     0.167 HD
HETATM   36  C12 UNL     1       8.742 -10.107  19.530  1.00  0.00     0.046 A
HETATM   37  C17 UNL     1       8.898  -9.524  17.210  1.00  0.00     0.060 A
HETATM   38  C13 UNL     1       9.112 -11.425  19.253  1.00  0.00     0.007 A
HETATM   39  C15 UNL     1       9.362 -11.724  17.931  1.00  0.00     0.017 A
HETATM   40  C16 UNL     1       9.272 -10.838  16.901  1.00  0.00     0.033 A
HETATM   41  N5  UNL     1       8.721  -8.436  16.461  1.00  0.00    -0.340 N
ATOM     42  H5  UNL     1       8.843  -8.396  15.449  1.00  0.00     0.167 HD
BRANCH  38  43
HETATM   43  C14 UNL     1       9.220 -12.399  20.320  1.00  0.00     0.120 C
HETATM   44  N3  UNL     1      10.167 -13.238  20.361  1.00  0.00    -0.387 N
ATOM     45  H32 UNL     1      10.869 -13.226  19.622  1.00  0.00     0.157 HD
ATOM     46  H31 UNL     1      10.243 -13.924  21.112  1.00  0.00     0.157 HD
HETATM   47  N4  UNL     1       8.241 -12.417  21.349  1.00  0.00    -0.082 NA
ENDBRANCH  38  43
ENDBRANCH   6  32
TORSDOF 10
ENDMDL