MODEL 4
REMARK VINA RESULT: -6.115827351      4.034      5.478
REMARK  4 active torsions:
REMARK  status: ('A' for Active; 'I' for Inactive)
REMARK    1  A    between atoms: C3_5  and  N2_6
REMARK    2  A    between atoms: N2_6  and  N3_8
REMARK    3  A    between atoms: N3_8  and  C4_10
REMARK    4  A    between atoms: N7_20  and  O2_21
ROOT
HETATM    1  C1  UNL     1      36.363   3.261  39.856  1.00  0.00     0.182 C
HETATM    2  N1  UNL     1      34.999   3.290  40.379  1.00  0.00    -0.254 N
HETATM    3  C2  UNL     1      34.309   2.153  40.547  1.00  0.00     0.150 A
HETATM    4 CL1  UNL     1      35.090   0.649  40.132  1.00  0.00    -0.060 Cl
HETATM    5  C3  UNL     1      33.025   2.190  41.033  1.00  0.00     0.093 A
HETATM    6  C6  UNL     1      32.478   3.406  41.335  1.00  0.00     0.112 A
HETATM    7  C7  UNL     1      33.185   4.554  41.161  1.00  0.00     0.289 A
HETATM    8  O1  UNL     1      32.734   5.705  41.423  1.00  0.00    -0.264 OA
HETATM    9  N7  UNL     1      34.437   4.454  40.683  1.00  0.00    -0.119 N
ENDROOT
BRANCH   5  10
HETATM   10  N2  UNL     1      32.287   0.987  41.218  1.00  0.00    -0.295 N
ATOM     11  H2  UNL     1      32.399   0.491  42.103  1.00  0.00     0.187 HD
BRANCH  10  12
HETATM   12  N3  UNL     1      31.420   0.441  40.270  1.00  0.00    -0.270 N
ATOM     13  H3  UNL     1      30.542   0.901  40.031  1.00  0.00     0.190 HD
BRANCH  12  14
HETATM   14  C4  UNL     1      31.805  -0.780  39.650  1.00  0.00     0.207 A
HETATM   15  N4  UNL     1      32.332  -1.769  40.255  1.00  0.00    -0.345 N
HETATM   16  C5  UNL     1      32.600  -2.841  39.363  1.00  0.00     0.259 A
ATOM     17  H4  UNL     1      32.535  -1.789  41.254  1.00  0.00     0.164 HD
HETATM   18  N5  UNL     1      32.259  -2.347  38.061  1.00  0.00    -0.119 NA
HETATM   19  N6  UNL     1      31.675  -1.094  38.288  1.00  0.00    -0.273 N
ATOM     20  H6  UNL     1      31.230  -0.508  37.581  1.00  0.00     0.185 HD
ENDBRANCH  12  14
ENDBRANCH  10  12
ENDBRANCH   5  10
BRANCH   9  21
HETATM   21  O2  UNL     1      35.158   5.621  40.511  1.00  0.00    -0.265 OA
ATOM     22  H2  UNL     1      34.746   6.365  40.087  1.00  0.00     0.247 HD
ENDBRANCH   9  21
TORSDOF 4
ENDMDL