MODEL 5
REMARK VINA RESULT: -5.698386710      1.461      3.870
REMARK  5 active torsions:
REMARK  status: ('A' for Active; 'I' for Inactive)
REMARK    1  A    between atoms: N1_1  and  C1_4
REMARK    2  A    between atoms: C5_18  and  N8_19
REMARK    3  A    between atoms: N8_19  and  C6_21
REMARK    4  A    between atoms: C6_21  and  C7_22
REMARK    5  A    between atoms: C7_22  and  N9_23
ROOT
HETATM    1  C1  UNL     1      31.239   1.913  41.057  1.00  0.00     0.126 C
HETATM    2  N2  UNL     1      31.498   0.567  40.844  1.00  0.00    -0.082 NA
HETATM    3  C2  UNL     1      32.107   3.054  41.072  1.00  0.00     0.079 A
HETATM    4  C3  UNL     1      31.662   4.382  41.313  1.00  0.00     0.135 A
HETATM    5 CL1  UNL     1      29.991   4.792  41.627  1.00  0.00    -0.062 Cl
HETATM    6  N3  UNL     1      32.708   5.193  41.253  1.00  0.00    -0.267 N
ATOM      7  H3  UNL     1      32.680   6.203  41.388  1.00  0.00     0.190 HD
HETATM    8  N4  UNL     1      33.794   4.484  40.992  1.00  0.00    -0.189 N
HETATM    9  N5  UNL     1      35.059   4.850  40.840  1.00  0.00    -0.251 N
ATOM     10  H5  UNL     1      35.297   5.837  40.931  1.00  0.00     0.192 HD
HETATM   11  C4  UNL     1      36.034   3.981  40.572  1.00  0.00     0.210 A
HETATM   12  N6  UNL     1      37.393   4.387  40.411  1.00  0.00    -0.062 NA
HETATM   13  N7  UNL     1      35.735   2.686  40.452  1.00  0.00    -0.314 N
ATOM     14  H7  UNL     1      36.480   2.021  40.249  1.00  0.00     0.170 HD
HETATM   15  C5  UNL     1      34.456   2.230  40.596  1.00  0.00     0.135 A
HETATM   16  C8  UNL     1      33.463   3.172  40.875  1.00  0.00     0.135 A
ENDROOT
BRANCH  15  17
HETATM   17  N8  UNL     1      34.195   0.995  40.477  1.00  0.00    -0.373 N
ATOM     18  H8  UNL     1      33.237   0.734  40.244  1.00  0.00     0.161 HD
BRANCH  17  19
HETATM   19  C6  UNL     1      35.134  -0.043  40.645  1.00  0.00     0.148 C
BRANCH  19  20
HETATM   20  C7  UNL     1      34.846  -1.189  39.696  1.00  0.00     0.249 C
BRANCH  20  21
HETATM   21  N9  UNL     1      33.473  -1.062  39.264  1.00  0.00    -0.078 N
ATOM     22  H93 UNL     1      33.382  -0.605  38.356  1.00  0.00     0.274 HD
ATOM     23  H92 UNL     1      33.053  -1.956  39.006  1.00  0.00     0.274 HD
ATOM     24  H91 UNL     1      32.961  -0.582  40.004  1.00  0.00     0.274 HD
ENDBRANCH  20  21
ENDBRANCH  19  20
ENDBRANCH  17  19
ENDBRANCH  15  17
BRANCH   1  25
HETATM   25  N1  UNL     1      29.949   2.176  41.288  1.00  0.00    -0.387 N
ATOM     26  H12 UNL     1      29.444   1.454  41.801  1.00  0.00     0.157 HD
ATOM     27  H11 UNL     1      29.645   3.074  40.913  1.00  0.00     0.157 HD
ENDBRANCH   1  25
TORSDOF 5
ENDMDL