MODEL 3
REMARK VINA RESULT: -6.239034269      2.595      3.518
REMARK  5 active torsions:
REMARK  status: ('A' for Active; 'I' for Inactive)
REMARK    1  A    between atoms: N1_1  and  O1_4
REMARK    2  A    between atoms: O1_4  and  N2_5
REMARK    3  A    between atoms: N2_5  and  C1_7
REMARK    4  A    between atoms: C2_10  and  O2_11
REMARK    5  A    between atoms: C2_10  and  C3_13
ROOT
HETATM    1  C1  UNL     1      34.941  -3.312  40.268  1.00  0.00     0.123 C
HETATM    2  N3  UNL     1      35.480  -4.149  41.055  1.00  0.00    -0.335 N
ATOM      3  H3  UNL     1      36.500  -4.171  41.039  1.00  0.00     0.164 HD
HETATM    4  C2  UNL     1      34.855  -5.068  41.963  1.00  0.00     0.256 C
HETATM    5  C4  UNL     1      33.697  -4.416  42.671  1.00  0.00     0.275 C
HETATM    6  C5  UNL     1      32.386  -4.904  42.222  1.00  0.00     0.009 C
HETATM    7  C6  UNL     1      31.855  -3.979  41.444  1.00  0.00     0.006 C
HETATM    8  C7  UNL     1      32.757  -2.810  41.308  1.00  0.00     0.235 C
HETATM    9  N4  UNL     1      33.664  -2.969  42.417  1.00  0.00    -0.053 N
ATOM     10  H41 UNL     1      34.583  -2.555  42.263  1.00  0.00     0.279 HD
ATOM     11  H42 UNL     1      33.421  -2.411  43.236  1.00  0.00     0.279 HD
HETATM   12  C8  UNL     1      33.516  -2.968  39.992  1.00  0.00     0.185 C
HETATM   13 CL1  UNL     1      32.731  -4.204  38.987  1.00  0.00    -0.114 Cl
ENDROOT
BRANCH   1  14
HETATM   14  N2  UNL     1      35.846  -2.552  39.501  1.00  0.00    -0.229 N
ATOM     15  H2  UNL     1      36.673  -2.143  39.936  1.00  0.00     0.198 HD
BRANCH  14  16
HETATM   16  O1  UNL     1      35.607  -2.372  38.199  1.00  0.00    -0.163 OA
BRANCH  16  17
HETATM   17  N1  UNL     1      35.983  -3.402  37.433  1.00  0.00    -0.286 N
ATOM     18  H12 UNL     1      36.469  -4.214  37.815  1.00  0.00     0.186 HD
ATOM     19  H11 UNL     1      35.740  -3.295  36.448  1.00  0.00     0.186 HD
ENDBRANCH  16  17
ENDBRANCH  14  16
ENDBRANCH   1  14
BRANCH   4  20
HETATM   20  O2  UNL     1      34.465  -6.189  41.233  1.00  0.00    -0.360 OA
ATOM     21  H2  UNL     1      34.512  -6.942  41.810  1.00  0.00     0.213 HD
ENDBRANCH   4  20
BRANCH   4  22
HETATM   22  C3  UNL     1      35.858  -5.508  42.950  1.00  0.00     0.234 C
HETATM   23  O3  UNL     1      36.678  -6.404  42.693  1.00  0.00    -0.644 OA
HETATM   24  O4  UNL     1      35.879  -4.904  44.186  1.00  0.00    -0.644 OA
ENDBRANCH   4  22
TORSDOF 5
ENDMDL