MODEL 5
REMARK VINA RESULT: -6.376028404      2.833      7.174
REMARK  2 active torsions:
REMARK  status: ('A' for Active; 'I' for Inactive)
REMARK       I    between atoms: C1_2  and  N2_4
REMARK    1  A    between atoms: N2_4  and  O2_6
REMARK    2  A    between atoms: O2_6  and  C2_7
ROOT
HETATM    1  C2  UNL     1      32.449   0.188  41.914  1.00  0.00     0.314 C
HETATM    2  C3  UNL     1      32.016   0.337  43.352  1.00  0.00     0.183 C
HETATM    3  N3  UNL     1      30.838   1.166  43.513  1.00  0.00    -0.377 N
ATOM      4  H3  UNL     1      30.307   1.151  44.383  1.00  0.00     0.160 HD
HETATM    5  C4  UNL     1      30.441   2.000  42.434  1.00  0.00     0.149 A
HETATM    6  C5  UNL     1      31.195   2.144  41.288  1.00  0.00     0.181 A
HETATM    7  N4  UNL     1      30.769   2.955  40.282  1.00  0.00    -0.287 N
ATOM      8  H4  UNL     1      31.344   3.046  39.443  1.00  0.00     0.172 HD
HETATM    9  C6  UNL     1      29.613   3.641  40.358  1.00  0.00     0.329 A
HETATM   10  O3  UNL     1      29.213   4.395  39.425  1.00  0.00    -0.247 OA
HETATM   11  N5  UNL     1      28.883   3.492  41.484  1.00  0.00    -0.273 N
ATOM     12  H5  UNL     1      28.003   4.003  41.564  1.00  0.00     0.173 HD
HETATM   13  C7  UNL     1      29.260   2.704  42.504  1.00  0.00     0.280 A
HETATM   14  O4  UNL     1      28.570   2.567  43.560  1.00  0.00    -0.265 OA
HETATM   15  O5  UNL     1      32.374   1.439  41.224  1.00  0.00    -0.298 OA
ENDROOT
BRANCH   1  16
HETATM   16  O2  UNL     1      33.743  -0.284  41.901  1.00  0.00    -0.242 OA
BRANCH  16  17
HETATM   17  N2  UNL     1      34.060  -1.098  40.893  1.00  0.00    -0.216 N
HETATM   18  C1  UNL     1      35.029  -0.893  39.891  1.00  0.00     0.352 C
HETATM   19  N1  UNL     1      35.262  -1.871  38.855  1.00  0.00    -0.038 NA
HETATM   20  O1  UNL     1      35.759   0.125  39.801  1.00  0.00    -0.249 OA
ATOM     21  H2  UNL     1      33.539  -1.974  40.842  1.00  0.00     0.199 HD
ENDBRANCH  16  17
ENDBRANCH   1  16
TORSDOF 2
ENDMDL