MODEL 1
REMARK VINA RESULT: -6.241670457      0.000      0.000
REMARK  3 active torsions:
REMARK  status: ('A' for Active; 'I' for Inactive)
REMARK    1  A    between atoms: N2_6  and  C4_7
REMARK    2  A    between atoms: C4_7  and  N3_8
REMARK    3  A    between atoms: C4_7  and  C5_12
ROOT
HETATM    1  N1  UNL     1      33.183  -2.385  44.341  1.00  0.00    -0.193 NA
HETATM    2  C1  UNL     1      32.555  -2.806  43.461  1.00  0.00     0.112 C
HETATM    3  C2  UNL     1      31.773  -3.335  42.328  1.00  0.00     0.277 C
HETATM    4  F1  UNL     1      30.490  -2.768  42.381  1.00  0.00    -0.218 F
HETATM    5  C3  UNL     1      32.409  -2.889  41.065  1.00  0.00     0.194 C
HETATM    6  N2  UNL     1      32.742  -3.919  40.131  1.00  0.00    -0.316 N
HETATM    7  C6  UNL     1      32.013  -5.128  40.136  1.00  0.00     0.191 C
HETATM    8  N5  UNL     1      31.841  -5.936  38.976  1.00  0.00    -0.064 NA
HETATM    9  N6  UNL     1      31.483  -5.521  41.239  1.00  0.00    -0.311 N
ATOM     10  H6  UNL     1      30.960  -6.396  41.233  1.00  0.00     0.166 HD
HETATM   11  C7  UNL     1      31.581  -4.805  42.484  1.00  0.00     0.328 C
HETATM   12  N7  UNL     1      30.450  -5.160  43.291  1.00  0.00    -0.349 N
ATOM     13  H7  UNL     1      29.528  -4.741  43.179  1.00  0.00     0.163 HD
HETATM   14  C8  UNL     1      30.711  -6.042  44.153  1.00  0.00     0.087 C
HETATM   15  C9  UNL     1      32.141  -6.404  44.014  1.00  0.00     0.282 C
HETATM   16  N8  UNL     1      32.725  -5.362  43.223  1.00  0.00    -0.021 N
ATOM     17  H81 UNL     1      33.256  -4.675  43.758  1.00  0.00     0.282 HD
ATOM     18  H82 UNL     1      33.501  -5.664  42.634  1.00  0.00     0.282 HD
ENDROOT
BRANCH   6  19
HETATM   19  C4  UNL     1      33.803  -3.745  39.184  1.00  0.00     0.376 C
BRANCH  19  20
HETATM   20  N3  UNL     1      33.316  -3.268  37.894  1.00  0.00    -0.050 N
ATOM     21  H33 UNL     1      33.117  -4.045  37.264  1.00  0.00     0.277 HD
ATOM     22  H32 UNL     1      32.375  -2.881  37.974  1.00  0.00     0.277 HD
ATOM     23  H31 UNL     1      33.956  -2.599  37.466  1.00  0.00     0.277 HD
ENDBRANCH  19  20
BRANCH  19  24
HETATM   24  C5  UNL     1      34.859  -2.795  39.605  1.00  0.00     0.281 C
HETATM   25  N4  UNL     1      35.173  -1.585  38.954  1.00  0.00    -0.059 NA
HETATM   26  O1  UNL     1      35.549  -3.074  40.631  1.00  0.00    -0.273 OA
ENDBRANCH  19  24
ENDBRANCH   6  19
TORSDOF 3
ENDMDL