MODEL 1
REMARK VINA RESULT: -6.458610868      0.000      0.000
REMARK  3 active torsions:
REMARK  status: ('A' for Active; 'I' for Inactive)
REMARK       I    between atoms: C1_4  and  N3_6
REMARK    1  A    between atoms: N7_19  and  N8_20
REMARK    2  A    between atoms: C7_22  and  N9_24
REMARK    3  A    between atoms: N9_24  and  N10_26
ROOT
HETATM    1  N1  UNL     1      31.139   0.346  40.119  1.00  0.00    -0.373 N
ATOM      2  H11 UNL     1      31.224   0.300  39.104  1.00  0.00     0.158 HD
ATOM      3  H12 UNL     1      30.798   1.180  40.596  1.00  0.00     0.158 HD
HETATM    4  C1  UNL     1      31.487  -0.697  40.836  1.00  0.00     0.187 C
HETATM    5  N2  UNL     1      31.369  -0.633  42.258  1.00  0.00    -0.064 NA
HETATM    6  N3  UNL     1      31.958  -1.847  40.179  1.00  0.00    -0.314 N
ATOM      7  H3  UNL     1      31.279  -2.546  39.877  1.00  0.00     0.170 HD
HETATM    8  C2  UNL     1      33.185  -2.058  39.944  1.00  0.00     0.161 A
HETATM    9  C3  UNL     1      34.139  -1.128  40.340  1.00  0.00     0.124 A
HETATM   10  N4  UNL     1      34.120   0.062  40.974  1.00  0.00    -0.346 N
ATOM     11  H4  UNL     1      33.284   0.540  41.312  1.00  0.00     0.167 HD
HETATM   12  C4  UNL     1      35.375   0.518  41.088  1.00  0.00     0.182 A
HETATM   13  N5  UNL     1      36.176  -0.401  40.521  1.00  0.00    -0.337 N
ATOM     14  H5  UNL     1      37.190  -0.321  40.461  1.00  0.00     0.168 HD
HETATM   15  C5  UNL     1      35.469  -1.433  40.045  1.00  0.00     0.138 A
HETATM   16  N6  UNL     1      35.770  -2.585  39.404  1.00  0.00    -0.335 N
ATOM     17  H6  UNL     1      36.744  -2.801  39.192  1.00  0.00     0.168 HD
HETATM   18  C6  UNL     1      34.806  -3.448  39.044  1.00  0.00     0.210 A
HETATM   19  N7  UNL     1      33.514  -3.210  39.300  1.00  0.00    -0.231 N
ENDROOT
BRANCH  19  20
HETATM   20  N8  UNL     1      32.487  -4.075  38.945  1.00  0.00    -0.265 N
HETATM   21  C7  UNL     1      31.827  -4.014  37.853  1.00  0.00     0.208 C
HETATM   22 CL1  UNL     1      30.571  -5.195  37.593  1.00  0.00    -0.042 Cl
ATOM     23  H8  UNL     1      32.243  -4.814  39.605  1.00  0.00     0.190 HD
BRANCH  21  24
HETATM   24  N9  UNL     1      32.066  -3.040  36.856  1.00  0.00    -0.281 N
ATOM     25  H9  UNL     1      32.711  -2.281  37.079  1.00  0.00     0.189 HD
BRANCH  24  26
HETATM   26  N10 UNL     1      31.488  -3.045  35.601  1.00  0.00    -0.343 N
ATOM     27 2H10 UNL     1      31.556  -3.913  35.069  1.00  0.00     0.176 HD
ATOM     28 1H10 UNL     1      31.006  -2.249  35.183  1.00  0.00     0.176 HD
ENDBRANCH  24  26
ENDBRANCH  21  24
ENDBRANCH  19  20
TORSDOF 3
ENDMDL