MODEL 1
REMARK VINA RESULT: -6.485741857      0.000      0.000
REMARK  3 active torsions:
REMARK  status: ('A' for Active; 'I' for Inactive)
REMARK    1  A    between atoms: C3_4  and  O1_5
REMARK    2  A    between atoms: C3_4  and  N2_7
REMARK    3  A    between atoms: N2_7  and  N3_9
REMARK       I    between atoms: N3_9  and  C4_11
ROOT
HETATM    1  C1  UNL     1      34.082  -4.925  43.190  1.00  0.00     0.160 C
HETATM    2  N1  UNL     1      32.832  -5.410  42.661  1.00  0.00    -0.310 N
HETATM    3  C2  UNL     1      32.632  -5.615  41.362  1.00  0.00     0.131 A
HETATM    4  C3  UNL     1      33.569  -5.400  40.301  1.00  0.00     0.186 C
HETATM    5  C5  UNL     1      31.354  -6.087  41.029  1.00  0.00     0.149 A
HETATM    6  N6  UNL     1      31.078  -6.329  39.653  1.00  0.00    -0.080 NA
HETATM    7  N7  UNL     1      30.391  -6.319  41.938  1.00  0.00    -0.329 N
ATOM      8  H7  UNL     1      29.479  -6.663  41.638  1.00  0.00     0.168 HD
HETATM    9  C6  UNL     1      30.630  -6.102  43.221  1.00  0.00     0.173 A
HETATM   10 CL1  UNL     1      29.373  -6.404  44.409  1.00  0.00    -0.058 Cl
HETATM   11  C7  UNL     1      31.864  -5.642  43.586  1.00  0.00     0.286 A
HETATM   12  O2  UNL     1      32.051  -5.448  44.821  1.00  0.00    -0.264 OA
ENDROOT
BRANCH   4  13
HETATM   13  O1  UNL     1      33.130  -5.655  39.090  1.00  0.00    -0.343 OA
ATOM     14  H1  UNL     1      33.240  -4.957  38.455  1.00  0.00     0.219 HD
ENDBRANCH   4  13
BRANCH   4  15
HETATM   15  N2  UNL     1      34.895  -4.960  40.282  1.00  0.00    -0.276 N
ATOM     16  H2  UNL     1      35.658  -5.636  40.318  1.00  0.00     0.189 HD
BRANCH  15  17
HETATM   17  N3  UNL     1      35.181  -3.567  40.213  1.00  0.00    -0.272 N
HETATM   18  C4  UNL     1      35.302  -2.895  38.967  1.00  0.00     0.200 C
HETATM   19  N4  UNL     1      35.284  -3.531  37.847  1.00  0.00    -0.372 N
HETATM   20  N5  UNL     1      35.449  -1.495  38.976  1.00  0.00    -0.062 NA
ATOM     21  H42 UNL     1      35.178  -4.545  37.841  1.00  0.00     0.158 HD
ATOM     22  H41 UNL     1      35.371  -3.049  36.953  1.00  0.00     0.158 HD
ATOM     23  H3  UNL     1      35.301  -3.039  41.077  1.00  0.00     0.189 HD
ENDBRANCH  15  17
ENDBRANCH   4  15
TORSDOF 3
ENDMDL