MODEL 3
REMARK VINA RESULT: -5.938306943      3.305      4.812
REMARK  5 active torsions:
REMARK  status: ('A' for Active; 'I' for Inactive)
REMARK    1  A    between atoms: N1_1  and  O1_4
REMARK    2  A    between atoms: O1_4  and  C1_5
REMARK       I    between atoms: C1_5  and  N2_7
REMARK    3  A    between atoms: C2_8  and  N3_9
REMARK       I    between atoms: N3_9  and  C3_11
REMARK    4  A    between atoms: C3_11  and  C4_13
REMARK    5  A    between atoms: C6_20  and  O6_21
ROOT
HETATM    1  C1  UNL     1      34.839   3.777  39.842  1.00  0.00     0.389 C
HETATM    2  O2  UNL     1      34.707   4.974  40.203  1.00  0.00    -0.236 OA
HETATM    3  N2  UNL     1      34.119   2.713  40.435  1.00  0.00    -0.252 N
HETATM    4  C2  UNL     1      33.172   2.830  41.492  1.00  0.00     0.222 C
HETATM    5  C5  UNL     1      33.305   1.505  42.210  1.00  0.00     0.284 C
HETATM    6  N4  UNL     1      33.660   0.574  41.182  1.00  0.00    -0.025 N
ATOM      7  H41 UNL     1      32.880  -0.022  40.904  1.00  0.00     0.282 HD
ATOM      8  H42 UNL     1      34.283  -0.162  41.514  1.00  0.00     0.282 HD
HETATM    9  C6  UNL     1      34.216   1.320  40.076  1.00  0.00     0.454 C
ENDROOT
BRANCH   4  10
HETATM   10  N3  UNL     1      31.819   3.052  41.039  1.00  0.00    -0.329 N
HETATM   11  C3  UNL     1      31.171   4.297  41.035  1.00  0.00     0.319 C
HETATM   12  O3  UNL     1      31.771   5.303  41.443  1.00  0.00    -0.261 OA
ATOM     13  H3  UNL     1      31.296   2.245  40.696  1.00  0.00     0.165 HD
BRANCH  11  14
HETATM   14  C4  UNL     1      29.821   4.405  40.562  1.00  0.00     0.270 C
HETATM   15  O4  UNL     1      29.484   4.078  39.394  1.00  0.00    -0.640 OA
HETATM   16  O5  UNL     1      28.840   4.887  41.414  1.00  0.00    -0.640 OA
ENDBRANCH  11  14
ENDBRANCH   4  10
BRANCH   1  17
HETATM   17  O1  UNL     1      35.733   3.531  38.818  1.00  0.00    -0.188 OA
BRANCH  17  18
HETATM   18  N1  UNL     1      35.910   4.432  37.807  1.00  0.00    -0.301 N
ATOM     19  H12 UNL     1      36.398   5.305  38.012  1.00  0.00     0.184 HD
ATOM     20  H11 UNL     1      35.564   4.241  36.866  1.00  0.00     0.184 HD
ENDBRANCH  17  18
ENDBRANCH   1  17
BRANCH   9  21
HETATM   21  O6  UNL     1      35.528   0.901  39.881  1.00  0.00    -0.228 OA
HETATM   22 CL1  UNL     1      35.883  -0.514  40.775  1.00  0.00     0.065 Cl
ENDBRANCH   9  21
TORSDOF 5
ENDMDL