MODEL 4
REMARK VINA RESULT: -6.563286830      1.991      3.294
REMARK  2 active torsions:
REMARK  status: ('A' for Active; 'I' for Inactive)
REMARK    1  A    between atoms: C6_11  and  N4_12
REMARK    2  A    between atoms: N4_12  and  C7_14
ROOT
HETATM    1  C1  UNL     1      33.990  -0.367  42.723  1.00  0.00     0.012 C
HETATM    2  C2  UNL     1      34.150   0.599  42.013  1.00  0.00    -0.107 C
HETATM    3  C3  UNL     1      34.357   1.752  41.139  1.00  0.00     0.124 C
HETATM    4  C4  UNL     1      35.809   2.156  41.234  1.00  0.00     0.143 C
HETATM    5  N1  UNL     1      36.098   3.417  40.594  1.00  0.00    -0.363 N
ATOM      6  H1  UNL     1      36.937   3.542  40.026  1.00  0.00     0.162 HD
HETATM    7  C5  UNL     1      35.254   4.384  40.766  1.00  0.00     0.185 C
HETATM    8  N2  UNL     1      35.513   5.628  40.150  1.00  0.00    -0.064 NA
HETATM    9  N3  UNL     1      34.112   4.142  41.563  1.00  0.00    -0.342 N
ATOM     10  H3  UNL     1      33.763   4.891  42.163  1.00  0.00     0.164 HD
HETATM   11  C6  UNL     1      33.413   2.859  41.559  1.00  0.00     0.202 C
ENDROOT
BRANCH  11  12
HETATM   12  N4  UNL     1      32.306   2.971  40.616  1.00  0.00    -0.348 N
ATOM     13  H4  UNL     1      32.488   2.768  39.633  1.00  0.00     0.163 HD
BRANCH  12  14
HETATM   14  C7  UNL     1      31.010   3.341  40.987  1.00  0.00     0.187 A
HETATM   15  N5  UNL     1      30.080   2.409  41.231  1.00  0.00    -0.277 N
HETATM   16  N6  UNL     1      28.854   2.773  41.580  1.00  0.00    -0.250 N
ATOM     17  H5  UNL     1      30.314   1.420  41.148  1.00  0.00     0.189 HD
HETATM   18  C8  UNL     1      28.513   4.065  41.698  1.00  0.00     0.341 A
ATOM     19  H6  UNL     1      28.153   2.054  41.764  1.00  0.00     0.192 HD
HETATM   20  O1  UNL     1      27.330   4.365  42.033  1.00  0.00    -0.245 OA
HETATM   21  N7  UNL     1      29.417   5.032  41.461  1.00  0.00    -0.271 N
HETATM   22  C9  UNL     1      30.665   4.664  41.106  1.00  0.00     0.294 A
ATOM     23  H7  UNL     1      29.166   6.016  41.548  1.00  0.00     0.174 HD
HETATM   24  O2  UNL     1      31.489   5.608  40.892  1.00  0.00    -0.264 OA
ENDBRANCH  12  14
ENDBRANCH  11  12
TORSDOF 2
ENDMDL