MODEL 5
REMARK VINA RESULT: -6.075257601      2.479      3.294
REMARK  6 active torsions:
REMARK  status: ('A' for Active; 'I' for Inactive)
REMARK    1  A    between atoms: C4_5  and  O1_6
REMARK    2  A    between atoms: C4_5  and  C6_14
REMARK    3  A    between atoms: O1_6  and  C5_7
REMARK       I    between atoms: C5_7  and  N1_9
REMARK    4  A    between atoms: N1_9  and  N2_11
REMARK    5  A    between atoms: C7_17  and  O5_18
REMARK    6  A    between atoms: C9_21  and  O6_22
ROOT
HETATM    1  C1  UNL     1      34.686  -5.443  42.298  1.00  0.00     0.054 C
HETATM    2  C2  UNL     1      33.782  -4.486  41.510  1.00  0.00     0.129 C
HETATM    3  F1  UNL     1      32.892  -3.941  42.390  1.00  0.00    -0.240 F
HETATM    4  C3  UNL     1      34.701  -3.462  40.887  1.00  0.00     0.099 C
HETATM    5  C4  UNL     1      33.896  -2.337  40.242  1.00  0.00     0.188 C
HETATM    6  C7  UNL     1      32.684  -2.871  39.547  1.00  0.00     0.167 C
HETATM    7  C8  UNL     1      32.748  -4.348  39.283  1.00  0.00     0.070 C
HETATM    8  C9  UNL     1      33.033  -5.212  40.447  1.00  0.00     0.160 C
ENDROOT
BRANCH   5   9
HETATM    9  O1  UNL     1      33.472  -1.520  41.312  1.00  0.00    -0.277 OA
BRANCH   9  10
HETATM   10  C5  UNL     1      32.342  -0.751  41.352  1.00  0.00     0.380 C
HETATM   11  O2  UNL     1      31.457  -1.034  42.207  1.00  0.00    -0.237 OA
HETATM   12  N1  UNL     1      32.195   0.326  40.447  1.00  0.00    -0.252 N
ATOM     13  H1  UNL     1      32.932   0.524  39.770  1.00  0.00     0.191 HD
BRANCH  12  14
HETATM   14  N2  UNL     1      31.051   1.115  40.478  1.00  0.00    -0.341 N
ATOM     15  H22 UNL     1      30.532   1.265  39.614  1.00  0.00     0.177 HD
ATOM     16  H21 UNL     1      30.741   1.533  41.355  1.00  0.00     0.177 HD
ENDBRANCH  12  14
ENDBRANCH   9  10
ENDBRANCH   5   9
BRANCH   5  17
HETATM   17  C6  UNL     1      34.820  -1.604  39.328  1.00  0.00     0.212 C
HETATM   18  O3  UNL     1      34.957  -0.353  39.352  1.00  0.00    -0.646 OA
HETATM   19  O4  UNL     1      35.569  -2.317  38.404  1.00  0.00    -0.646 OA
ENDBRANCH   5  17
BRANCH   6  20
HETATM   20  O5  UNL     1      32.550  -2.251  38.298  1.00  0.00    -0.392 OA
ATOM     21  H5  UNL     1      31.803  -2.618  37.840  1.00  0.00     0.210 HD
ENDBRANCH   6  20
BRANCH   8  22
HETATM   22  O6  UNL     1      33.679  -6.404  40.068  1.00  0.00    -0.392 OA
ATOM     23  H6  UNL     1      33.066  -7.051  39.738  1.00  0.00     0.210 HD
ENDBRANCH   8  22
TORSDOF 6
ENDMDL