MODEL 2
REMARK VINA RESULT: -7.758542547      6.453     10.911
REMARK  10 active torsions:
REMARK  status: ('A' for Active; 'I' for Inactive)
REMARK    1  A    between atoms: C2_2  and  C3_3
REMARK    2  A    between atoms: C3_3  and  S1_4
REMARK    3  A    between atoms: S1_4  and  C4_6
REMARK    4  A    between atoms: C4_6  and  C5_7
REMARK    5  A    between atoms: C10_12  and  C11_13
REMARK    6  A    between atoms: C12_14  and  C13_15
REMARK    7  A    between atoms: C13_15  and  C14_16
REMARK    8  A    between atoms: C14_16  and  C15_17
REMARK    9  A    between atoms: N1_24  and  S2_25
REMARK   10  A    between atoms: S2_25  and  C22_28
REMARK       I    between atoms: C22_28  and  N2_30
ROOT
HETATM    1  C5  UNL     1       9.310  39.404  35.562  1.00  0.00    -0.027 A
HETATM    2  C6  UNL     1       8.418  39.748  34.598  1.00  0.00     0.017 A
HETATM    3  C7  UNL     1       8.505  39.271  33.280  1.00  0.00    -0.045 A
HETATM    4  C8  UNL     1       9.528  38.421  32.943  1.00  0.00    -0.050 A
HETATM    5  C9  UNL     1      10.447  38.051  33.888  1.00  0.00     0.029 A
HETATM    6  C10 UNL     1      10.340  38.535  35.181  1.00  0.00     0.025 A
HETATM    7  C19 UNL     1       9.416  38.057  31.482  1.00  0.00     0.045 C
HETATM    8  C20 UNL     1       8.614  39.221  30.930  1.00  0.00     0.013 C
HETATM    9  C21 UNL     1       7.654  38.764  29.850  1.00  0.00     0.113 C
HETATM   10  N1  UNL     1       6.644  38.006  30.523  1.00  0.00    -0.201 NA
HETATM   11  C24 UNL     1       6.638  38.394  31.902  1.00  0.00     0.117 C
HETATM   12  C25 UNL     1       7.677  39.483  32.082  1.00  0.00     0.039 C
ENDROOT
BRANCH   6  13
HETATM   13  C11 UNL     1      11.284  38.163  36.180  1.00  0.00    -0.066 C
HETATM   14  C12 UNL     1      12.093  37.820  37.036  1.00  0.00    -0.101 C
BRANCH  14  15
HETATM   15  C13 UNL     1      13.054  37.387  38.050  1.00  0.00     0.095 C
BRANCH  15  16
HETATM   16  C14 UNL     1      12.626  36.035  38.575  1.00  0.00     0.020 C
BRANCH  16  17
HETATM   17  C15 UNL     1      11.839  36.136  39.843  1.00  0.00    -0.051 C
HETATM   18  C16 UNL     1      12.268  34.954  40.722  1.00  0.00     0.014 C
HETATM   19  C17 UNL     1      12.099  37.387  40.623  1.00  0.00     0.014 C
HETATM   20  C18 UNL     1      10.347  35.944  39.601  1.00  0.00     0.014 C
ENDBRANCH  16  17
ENDBRANCH  15  16
ENDBRANCH  14  15
ENDBRANCH   6  13
BRANCH   1  21
HETATM   21  C4  UNL     1       9.276  39.856  36.972  1.00  0.00     0.148 C
BRANCH  21  22
HETATM   22  S1  UNL     1       9.874  41.511  37.083  1.00  0.00     0.019 S
HETATM   23  O1  UNL     1      10.644  41.781  38.564  1.00  0.00    -0.258 OA
BRANCH  22  24
HETATM   24  C3  UNL     1       8.520  42.675  36.909  1.00  0.00     0.108 C
BRANCH  24  25
HETATM   25  C2  UNL     1       8.626  43.465  35.631  1.00  0.00     0.008 C
HETATM   26  C1  UNL     1       9.825  44.380  35.732  1.00  0.00     0.006 C
ENDBRANCH  24  25
ENDBRANCH  22  24
ENDBRANCH  21  22
ENDBRANCH   1  21
BRANCH  10  27
HETATM   27  S2  UNL     1       5.106  38.195  29.764  1.00  0.00     0.298 S
HETATM   28  O2  UNL     1       5.216  39.146  28.612  1.00  0.00    -0.201 OA
HETATM   29  O3  UNL     1       4.634  36.877  29.198  1.00  0.00    -0.201 OA
BRANCH  27  30
HETATM   30  C22 UNL     1       3.985  38.849  30.906  1.00  0.00     0.351 C
HETATM   31  O4  UNL     1       3.716  40.096  30.872  1.00  0.00    -0.254 OA
HETATM   32  N2  UNL     1       3.370  38.013  31.872  1.00  0.00    -0.351 N
HETATM   33  C23 UNL     1       2.419  38.562  32.841  1.00  0.00     0.150 C
ATOM     34  H2  UNL     1       3.592  37.017  31.892  1.00  0.00     0.162 HD
ENDBRANCH  27  30
ENDBRANCH  10  27
TORSDOF 10
ENDMDL