MODEL 5
REMARK VINA RESULT: -7.069298379      5.411      9.688
REMARK  8 active torsions:
REMARK  status: ('A' for Active; 'I' for Inactive)
REMARK    1  A    between atoms: C3_3  and  C4_4
REMARK    2  A    between atoms: C4_4  and  C5_5
REMARK    3  A    between atoms: C6_6  and  C7_7
REMARK    4  A    between atoms: C10_10  and  S1_11
REMARK    5  A    between atoms: S1_11  and  N1_14
REMARK    6  A    between atoms: N1_14  and  C11_16
REMARK    7  A    between atoms: C11_16  and  C14_19
REMARK    8  A    between atoms: C14_19  and  N2_20
ROOT
HETATM    1  C1  UNL     1       8.981  39.057  31.015  1.00  0.00     0.112 C
HETATM    2  C2  UNL     1       7.663  38.570  30.624  1.00  0.00    -0.111 C
HETATM    3  C3  UNL     1       6.578  38.173  30.283  1.00  0.00    -0.102 C
ENDROOT
BRANCH   3   4
HETATM    4  C4  UNL     1       5.210  37.674  29.881  1.00  0.00     0.136 C
BRANCH   4   5
HETATM    5  C5  UNL     1       4.185  38.330  30.679  1.00  0.00    -0.003 A
HETATM    6  C6  UNL     1       3.956  38.186  32.024  1.00  0.00     0.054 A
HETATM    7  N3  UNL     1       2.975  39.057  32.411  1.00  0.00    -0.335 N
HETATM    8  C20 UNL     1       2.400  39.167  33.726  1.00  0.00     0.158 C
HETATM    9  C21 UNL     1       2.557  39.771  31.339  1.00  0.00     0.123 A
HETATM   10  C22 UNL     1       3.314  39.318  30.237  1.00  0.00     0.040 A
HETATM   11  N5  UNL     1       1.635  40.740  31.207  1.00  0.00    -0.333 N
HETATM   12  C23 UNL     1       3.095  39.882  29.001  1.00  0.00     0.020 A
HETATM   13  C24 UNL     1       3.835  39.459  27.813  1.00  0.00     0.069 C
HETATM   14  N4  UNL     1       2.147  40.864  28.908  1.00  0.00    -0.355 N
HETATM   15  C25 UNL     1       1.461  41.264  29.955  1.00  0.00     0.184 A
ATOM     16  H4  UNL     1       1.968  41.298  28.002  1.00  0.00     0.166 HD
HETATM   17  C26 UNL     1       0.856  41.264  32.294  1.00  0.00     0.158 C
BRANCH   6  18
HETATM   18  C7  UNL     1       4.510  37.201  32.943  1.00  0.00    -0.009 A
HETATM   19  C8  UNL     1       5.568  37.514  33.807  1.00  0.00     0.015 A
HETATM   20  C9  UNL     1       6.050  36.655  34.765  1.00  0.00     0.026 A
HETATM   21  C10 UNL     1       5.446  35.430  34.860  1.00  0.00     0.079 A
HETATM   22  C18 UNL     1       4.405  35.077  34.036  1.00  0.00     0.026 A
HETATM   23  C19 UNL     1       3.934  35.963  33.074  1.00  0.00     0.015 A
BRANCH  21  24
HETATM   24  S1  UNL     1       5.966  34.234  36.057  1.00  0.00     0.259 S
HETATM   25  O1  UNL     1       6.241  34.984  37.291  1.00  0.00    -0.201 OA
HETATM   26  O2  UNL     1       7.331  33.760  35.525  1.00  0.00    -0.201 OA
BRANCH  24  27
HETATM   27  N1  UNL     1       4.910  32.989  36.026  1.00  0.00    -0.305 N
ATOM     28  H1  UNL     1       4.973  32.338  35.243  1.00  0.00     0.173 HD
BRANCH  27  29
HETATM   29  C11 UNL     1       3.905  32.740  37.008  1.00  0.00     0.057 C
HETATM   30  C12 UNL     1       4.652  32.202  38.211  1.00  0.00     0.040 C
HETATM   31  C13 UNL     1       2.886  31.703  36.627  1.00  0.00     0.040 C
BRANCH  29  32
HETATM   32  C14 UNL     1       3.315  34.097  37.225  1.00  0.00     0.266 C
BRANCH  32  33
HETATM   33  N2  UNL     1       2.134  34.330  37.889  1.00  0.00    -0.076 N
HETATM   34  C15 UNL     1       2.218  35.736  38.384  1.00  0.00     0.271 C
HETATM   35  C16 UNL     1       1.770  33.598  39.052  1.00  0.00     0.271 C
HETATM   36  C17 UNL     1       0.949  34.400  37.002  1.00  0.00     0.271 C
ENDBRANCH  32  33
ENDBRANCH  29  32
ENDBRANCH  27  29
ENDBRANCH  24  27
ENDBRANCH  21  24
ENDBRANCH   6  18
ENDBRANCH   4   5
ENDBRANCH   3   4
TORSDOF 8
ENDMDL