MODEL 3
REMARK VINA RESULT: -6.820216641      3.561      9.099
REMARK  8 active torsions:
REMARK  status: ('A' for Active; 'I' for Inactive)
REMARK    1  A    between atoms: C2_2  and  N1_3
REMARK    2  A    between atoms: N1_3  and  C3_4
REMARK       I    between atoms: N1_3  and  C11_15
REMARK    3  A    between atoms: C3_4  and  C4_5
REMARK    4  A    between atoms: C4_5  and  N2_6
REMARK    5  A    between atoms: C4_5  and  C7_11
REMARK       I    between atoms: N2_6  and  C5_8
REMARK    6  A    between atoms: C11_15  and  C12_17
REMARK    7  A    between atoms: N3_22  and  S1_23
REMARK    8  A    between atoms: S1_23  and  C17_26
ROOT
HETATM    1  C12 UNL     1      10.964  37.621  36.774  1.00  0.00     0.097 C
HETATM    2  C13 UNL     1       9.864  37.534  37.775  1.00  0.00     0.018 C
HETATM    3  C14 UNL     1       9.617  38.749  38.596  1.00  0.00     0.026 C
HETATM    4  C15 UNL     1      10.800  39.611  38.875  1.00  0.00     0.092 C
HETATM    5  C16 UNL     1      10.525  40.950  38.160  1.00  0.00     0.033 C
HETATM    6  N3  UNL     1      12.031  39.137  38.397  1.00  0.00    -0.301 N
HETATM    7  C26 UNL     1      12.012  38.651  37.044  1.00  0.00     0.149 C
ENDROOT
BRANCH   1   8
HETATM    8  C11 UNL     1      10.503  37.688  35.364  1.00  0.00     0.225 C
HETATM    9  N1  UNL     1      10.122  36.550  34.580  1.00  0.00    -0.350 N
HETATM   10  O2  UNL     1      10.464  38.871  34.879  1.00  0.00    -0.273 OA
BRANCH   9  11
HETATM   11  C2  UNL     1      10.204  35.239  35.135  1.00  0.00     0.121 C
HETATM   12  C1  UNL     1      11.524  34.542  34.996  1.00  0.00     0.026 C
ENDBRANCH   9  11
BRANCH   9  13
HETATM   13  C3  UNL     1       9.605  36.804  33.281  1.00  0.00     0.151 C
BRANCH  13  14
HETATM   14  C4  UNL     1       8.195  37.225  33.132  1.00  0.00     0.109 C
BRANCH  14  15
HETATM   15  N2  UNL     1       7.543  37.616  34.354  1.00  0.00    -0.354 N
HETATM   16  C5  UNL     1       6.698  36.766  35.101  1.00  0.00     0.214 C
HETATM   17  C6  UNL     1       6.065  37.244  36.346  1.00  0.00     0.117 C
HETATM   18  O1  UNL     1       6.482  35.602  34.710  1.00  0.00    -0.274 OA
ATOM     19  H2  UNL     1       7.701  38.562  34.701  1.00  0.00     0.162 HD
ENDBRANCH  14  15
BRANCH  14  20
HETATM   20  C7  UNL     1       8.096  38.421  32.170  1.00  0.00    -0.029 C
HETATM   21  C8  UNL     1       9.411  38.645  31.481  1.00  0.00     0.016 C
HETATM   22  C9  UNL     1       6.982  38.199  31.168  1.00  0.00     0.016 C
HETATM   23  C10 UNL     1       7.734  39.634  32.984  1.00  0.00     0.016 C
ENDBRANCH  14  20
ENDBRANCH  13  14
ENDBRANCH   9  13
ENDBRANCH   1   8
BRANCH   6  24
HETATM   24  S1  UNL     1      13.081  38.336  39.432  1.00  0.00     0.262 S
HETATM   25  O3  UNL     1      14.212  37.713  38.670  1.00  0.00    -0.200 OA
HETATM   26  O4  UNL     1      13.728  39.378  40.339  1.00  0.00    -0.200 OA
BRANCH  24  27
HETATM   27  C17 UNL     1      12.249  37.205  40.437  1.00  0.00     0.091 A
HETATM   28  C18 UNL     1      12.206  35.885  40.036  1.00  0.00    -0.038 A
HETATM   29  C19 UNL     1      12.881  35.414  38.779  1.00  0.00     0.050 C
HETATM   30  C20 UNL     1      11.529  34.970  40.805  1.00  0.00     0.015 A
HETATM   31  C21 UNL     1      10.885  35.323  41.971  1.00  0.00    -0.061 A
HETATM   32  C22 UNL     1      10.158  34.334  42.794  1.00  0.00     0.048 C
HETATM   33  C23 UNL     1      10.946  36.646  42.343  1.00  0.00     0.015 A
HETATM   34  C24 UNL     1      11.625  37.617  41.590  1.00  0.00    -0.038 A
HETATM   35  C25 UNL     1      11.626  39.036  42.020  1.00  0.00     0.050 C
ENDBRANCH  24  27
ENDBRANCH   6  24
TORSDOF 8
ENDMDL