MODEL 3
REMARK VINA RESULT: -7.105432456      1.304      1.787
REMARK  7 active torsions:
REMARK  status: ('A' for Active; 'I' for Inactive)
REMARK    1  A    between atoms: C2_2  and  S1_3
REMARK    2  A    between atoms: S1_3  and  N1_6
REMARK    3  A    between atoms: N1_6  and  C3_8
REMARK    4  A    between atoms: N2_16  and  C10_17
REMARK    5  A    between atoms: C14_21  and  C15_22
REMARK    6  A    between atoms: C18_25  and  C19_26
REMARK    7  A    between atoms: C19_26  and  N3_27
REMARK       I    between atoms: N3_27  and  C22_30
REMARK       I    between atoms: C22_30  and  N4_32
ROOT
HETATM    1  C3  UNL     1       3.940  37.258  30.469  1.00  0.00     0.043 A
HETATM    2  C4  UNL     1       2.761  37.024  31.160  1.00  0.00     0.033 A
HETATM    3  C5  UNL     1       2.668  37.104  32.553  1.00  0.00     0.040 A
HETATM    4  C6  UNL     1       3.802  37.432  33.269  1.00  0.00     0.085 A
HETATM    5  C7  UNL     1       4.985  37.670  32.598  1.00  0.00     0.067 A
HETATM    6  C8  UNL     1       5.048  37.582  31.209  1.00  0.00     0.050 A
HETATM    7  C9  UNL     1       6.323  38.066  33.041  1.00  0.00     0.257 C
HETATM    8  O3  UNL     1       7.230  37.758  32.237  1.00  0.00    -0.267 OA
HETATM    9  N2  UNL     1       6.742  38.748  34.242  1.00  0.00    -0.344 N
HETATM   10  C13 UNL     1       6.134  38.778  35.546  1.00  0.00     0.134 C
HETATM   11  C14 UNL     1       5.561  37.514  36.030  1.00  0.00     0.038 C
HETATM   12  C18 UNL     1       4.156  37.147  35.829  1.00  0.00     0.161 C
HETATM   13  O5  UNL     1       3.506  37.457  34.628  1.00  0.00    -0.343 OA
ENDROOT
BRANCH  12  14
HETATM   14  C19 UNL     1       3.991  35.673  36.168  1.00  0.00     0.281 C
BRANCH  14  15
HETATM   15  N3  UNL     1       2.914  35.310  36.999  1.00  0.00     0.008 N
HETATM   16  C20 UNL     1       1.756  35.038  36.104  1.00  0.00     0.285 C
HETATM   17  C21 UNL     1       2.421  36.494  37.755  1.00  0.00     0.285 C
HETATM   18  C22 UNL     1       3.086  34.294  37.929  1.00  0.00     0.415 C
HETATM   19  O4  UNL     1       3.290  34.601  39.144  1.00  0.00    -0.239 OA
HETATM   20  N4  UNL     1       3.048  32.926  37.614  1.00  0.00    -0.337 N
HETATM   21  C23 UNL     1       3.248  31.979  38.740  1.00  0.00     0.153 C
HETATM   22  C24 UNL     1       2.841  32.321  36.338  1.00  0.00     0.153 C
ENDBRANCH  14  15
ENDBRANCH  12  14
BRANCH  11  23
HETATM   23  C15 UNL     1       5.878  37.528  37.557  1.00  0.00    -0.015 C
HETATM   24  C16 UNL     1       7.351  37.439  37.795  1.00  0.00     0.010 C
HETATM   25  C17 UNL     1       5.392  38.863  38.132  1.00  0.00     0.010 C
ENDBRANCH  11  23
BRANCH   9  26
HETATM   26  C10 UNL     1       7.931  39.528  34.014  1.00  0.00     0.079 C
HETATM   27  C11 UNL     1       9.116  39.178  34.842  1.00  0.00     0.032 C
HETATM   28  C12 UNL     1       7.514  40.987  34.196  1.00  0.00     0.032 C
ENDBRANCH   9  26
BRANCH   1  29
HETATM   29  N1  UNL     1       3.944  37.141  29.068  1.00  0.00    -0.285 N
ATOM     30  H1  UNL     1       4.297  36.257  28.701  1.00  0.00     0.178 HD
BRANCH  29  31
HETATM   31  S1  UNL     1       3.443  38.265  27.906  1.00  0.00     0.230 S
HETATM   32  O1  UNL     1       2.305  39.102  28.460  1.00  0.00    -0.206 OA
HETATM   33  O2  UNL     1       4.587  39.245  27.661  1.00  0.00    -0.206 OA
BRANCH  31  34
HETATM   34  C2  UNL     1       3.035  37.603  26.329  1.00  0.00     0.159 C
HETATM   35  C1  UNL     1       3.448  38.578  25.209  1.00  0.00     0.023 C
ENDBRANCH  31  34
ENDBRANCH  29  31
ENDBRANCH   1  29
TORSDOF 7
ENDMDL