MODEL 4
REMARK VINA RESULT: -7.876731926      1.771      9.419
REMARK  8 active torsions:
REMARK  status: ('A' for Active; 'I' for Inactive)
REMARK    1  A    between atoms: C2_2  and  N1_3
REMARK    2  A    between atoms: N1_3  and  C3_4
REMARK    3  A    between atoms: N1_3  and  C5_6
REMARK    4  A    between atoms: C5_6  and  C7_8
REMARK    5  A    between atoms: C7_8  and  N2_9
REMARK       I    between atoms: N2_9  and  C8_11
REMARK    6  A    between atoms: C8_11  and  C9_13
REMARK    7  A    between atoms: N3_19  and  C15_20
REMARK    8  A    between atoms: C15_20  and  C16_21
ROOT
HETATM    1  C9  UNL     1       7.224  38.573  33.773  1.00  0.00     0.173 C
HETATM    2  C10 UNL     1       8.552  37.979  33.369  1.00  0.00     0.038 C
HETATM    3  C11 UNL     1       9.168  38.717  32.196  1.00  0.00     0.009 C
HETATM    4  C12 UNL     1      10.622  38.351  32.297  1.00  0.00     0.002 C
HETATM    5  C13 UNL     1      10.801  37.625  33.641  1.00  0.00     0.027 C
HETATM    6  C14 UNL     1       9.631  38.182  34.401  1.00  0.00     0.108 C
HETATM    7  N3  UNL     1       9.349  37.600  35.656  1.00  0.00    -0.272 N
HETATM    8  S1  UNL     1       7.707  37.706  36.127  1.00  0.00     0.305 S
HETATM    9  O2  UNL     1       7.272  36.671  37.099  1.00  0.00    -0.188 OA
HETATM   10  O3  UNL     1       7.493  39.061  36.741  1.00  0.00    -0.188 OA
HETATM   11  N4  UNL     1       6.637  37.675  34.732  1.00  0.00    -0.183 NA
HETATM   12  C26 UNL     1       5.330  38.156  35.183  1.00  0.00     0.132 C
ENDROOT
BRANCH   1  13
HETATM   13  C8  UNL     1       6.373  38.760  32.542  1.00  0.00     0.240 C
HETATM   14  N2  UNL     1       6.350  37.867  31.489  1.00  0.00    -0.337 N
ATOM     15  H2  UNL     1       6.973  37.069  31.609  1.00  0.00     0.167 HD
HETATM   16  O1  UNL     1       5.681  39.805  32.547  1.00  0.00    -0.271 OA
BRANCH  14  17
HETATM   17  C7  UNL     1       5.629  37.854  30.282  1.00  0.00     0.099 C
BRANCH  17  18
HETATM   18  C5  UNL     1       4.276  37.266  30.177  1.00  0.00     0.257 C
HETATM   19  C6  UNL     1       3.591  36.810  31.419  1.00  0.00     0.049 C
BRANCH  18  20
HETATM   20  N1  UNL     1       3.350  38.208  29.535  1.00  0.00     0.096 N
BRANCH  20  21
HETATM   21  C2  UNL     1       2.798  39.184  30.403  1.00  0.00     0.269 C
HETATM   22  C1  UNL     1       2.589  40.528  29.721  1.00  0.00     0.037 C
ENDBRANCH  20  21
BRANCH  20  23
HETATM   23  C3  UNL     1       3.790  38.700  28.277  1.00  0.00     0.269 C
HETATM   24  C4  UNL     1       3.477  37.724  27.177  1.00  0.00     0.037 C
ENDBRANCH  20  23
ENDBRANCH  18  20
ENDBRANCH  17  18
ENDBRANCH  14  17
ENDBRANCH   1  13
BRANCH   7  25
HETATM   25  C15 UNL     1      10.050  36.470  36.083  1.00  0.00     0.087 C
BRANCH  25  26
HETATM   26  C16 UNL     1      11.085  36.632  37.145  1.00  0.00    -0.006 C
HETATM   27  C17 UNL     1      12.243  35.670  36.914  1.00  0.00     0.019 C
HETATM   28  C18 UNL     1      13.220  35.718  38.066  1.00  0.00    -0.013 C
HETATM   29  C19 UNL     1      12.579  35.356  39.379  1.00  0.00     0.009 C
HETATM   30  C23 UNL     1      13.784  37.099  38.157  1.00  0.00     0.009 C
HETATM   31  C20 UNL     1      11.438  36.313  39.610  1.00  0.00    -0.013 C
HETATM   32  C21 UNL     1      11.983  37.715  39.719  1.00  0.00     0.009 C
HETATM   33  C25 UNL     1      10.460  36.217  38.487  1.00  0.00     0.019 C
HETATM   34  C22 UNL     1      12.643  38.052  38.413  1.00  0.00    -0.013 C
HETATM   35  C24 UNL     1      11.595  38.033  37.329  1.00  0.00     0.019 C
ENDBRANCH  25  26
ENDBRANCH   7  25
TORSDOF 8
ENDMDL