MODEL 4
REMARK VINA RESULT: -7.738015449      4.092      6.138
REMARK  10 active torsions:
REMARK  status: ('A' for Active; 'I' for Inactive)
REMARK    1  A    between atoms: C3_3  and  C4_4
REMARK    2  A    between atoms: C3_3  and  N1_32
REMARK    3  A    between atoms: C4_4  and  C5_5
REMARK    4  A    between atoms: C13_13  and  O1_14
REMARK    5  A    between atoms: C22_25  and  C23_26
REMARK    6  A    between atoms: C23_26  and  C24_27
REMARK    7  A    between atoms: C25_28  and  C26_29
REMARK    8  A    between atoms: N1_32  and  C29_34
REMARK    9  A    between atoms: C29_34  and  C31_36
REMARK   10  A    between atoms: C31_36  and  C32_37
ROOT
HETATM    1  C1  UNL     1       2.604  36.920  32.137  1.00  0.00     0.014 C
HETATM    2  C2  UNL     1       3.655  37.199  31.648  1.00  0.00    -0.088 C
HETATM    3  C3  UNL     1       4.936  37.558  31.026  1.00  0.00     0.180 C
ENDROOT
BRANCH   3   4
HETATM    4  C4  UNL     1       5.566  38.758  31.510  1.00  0.00     0.022 C
BRANCH   4   5
HETATM    5  C5  UNL     1       6.629  38.793  32.318  1.00  0.00    -0.036 A
HETATM    6  C6  UNL     1       7.549  37.753  32.294  1.00  0.00     0.012 A
HETATM    7  C7  UNL     1       8.662  37.709  33.106  1.00  0.00     0.013 A
HETATM    8  C8  UNL     1       8.901  38.735  34.001  1.00  0.00    -0.021 A
HETATM    9  C9  UNL     1      10.066  38.532  34.741  1.00  0.00     0.024 C
HETATM   10  C19 UNL     1       7.997  39.776  34.040  1.00  0.00     0.026 A
HETATM   11  C10 UNL     1      10.370  39.114  35.967  1.00  0.00    -0.022 A
HETATM   12  C11 UNL     1       9.805  40.223  36.590  1.00  0.00     0.005 A
HETATM   13  C28 UNL     1      11.359  38.413  36.520  1.00  0.00     0.028 A
HETATM   14  C12 UNL     1      10.284  40.612  37.824  1.00  0.00     0.060 A
HETATM   15  C17 UNL     1       8.766  41.000  36.063  1.00  0.00     0.027 A
HETATM   16  C13 UNL     1       9.782  41.707  38.521  1.00  0.00     0.083 A
HETATM   17  C21 UNL     1      11.368  39.898  38.498  1.00  0.00     0.196 A
HETATM   18  C15 UNL     1       8.761  42.447  37.972  1.00  0.00     0.039 A
HETATM   19  C16 UNL     1       8.263  42.080  36.742  1.00  0.00     0.019 A
HETATM   20  O3  UNL     1      11.828  40.216  39.610  1.00  0.00    -0.286 OA
HETATM   21  C22 UNL     1      11.929  38.735  37.800  1.00  0.00     0.024 A
HETATM   22  C18 UNL     1       8.078  40.880  34.869  1.00  0.00     0.194 C
HETATM   23  O2  UNL     1       7.428  41.868  34.441  1.00  0.00    -0.287 OA
HETATM   24  C20 UNL     1       6.881  39.803  33.212  1.00  0.00     0.027 A
BRANCH  16  25
HETATM   25  O1  UNL     1      10.276  42.077  39.755  1.00  0.00    -0.355 OA
HETATM   26  C14 UNL     1       9.427  42.728  40.672  1.00  0.00     0.210 C
ENDBRANCH  16  25
BRANCH  21  27
HETATM   27  C23 UNL     1      12.911  38.023  38.324  1.00  0.00     0.080 C
BRANCH  27  28
HETATM   28  C24 UNL     1      12.581  36.938  39.204  1.00  0.00    -0.078 C
HETATM   29  C25 UNL     1      12.323  36.031  39.954  1.00  0.00    -0.102 C
BRANCH  29  30
HETATM   30  C26 UNL     1      12.030  34.925  40.883  1.00  0.00     0.090 C
HETATM   31  C27 UNL     1      11.764  35.478  42.285  1.00  0.00     0.018 C
ENDBRANCH  29  30
ENDBRANCH  27  28
ENDBRANCH  21  27
ENDBRANCH   4   5
ENDBRANCH   3   4
BRANCH   3  32
HETATM   32  N1  UNL     1       4.788  37.451  29.627  1.00  0.00    -0.400 N
ATOM     33  H1  UNL     1       5.253  36.703  29.114  1.00  0.00     0.155 HD
BRANCH  32  34
HETATM   34  C29 UNL     1       3.986  38.394  28.948  1.00  0.00     0.077 C
HETATM   35  C30 UNL     1       4.703  39.518  28.295  1.00  0.00     0.032 C
BRANCH  34  36
HETATM   36  C31 UNL     1       3.092  37.679  27.921  1.00  0.00     0.050 C
BRANCH  36  37
HETATM   37  C32 UNL     1       3.491  38.131  26.566  1.00  0.00    -0.035 C
HETATM   38  C33 UNL     1       3.109  37.472  25.490  1.00  0.00     0.007 C
ENDBRANCH  36  37
ENDBRANCH  34  36
ENDBRANCH  32  34
ENDBRANCH   3  32
TORSDOF 10
ENDMDL