MODEL 3
REMARK VINA RESULT: -8.128054781      1.931      3.684
REMARK  7 active torsions:
REMARK  status: ('A' for Active; 'I' for Inactive)
REMARK    1  A    between atoms: C2_2  and  C3_3
REMARK    2  A    between atoms: C3_3  and  C4_4
REMARK    3  A    between atoms: C5_7  and  C6_8
REMARK    4  A    between atoms: C9_11  and  N2_12
REMARK    5  A    between atoms: N2_12  and  N3_14
REMARK    6  A    between atoms: C13_18  and  O1_19
REMARK    7  A    between atoms: N4_25  and  C19_26
ROOT
HETATM    1  N3  UNL     1       3.182  34.491  36.515  1.00  0.00    -0.193 N
HETATM    2  C10 UNL     1       2.086  34.671  37.264  1.00  0.00     0.086 A
HETATM    3  C11 UNL     1       0.849  34.758  36.655  1.00  0.00     0.037 A
HETATM    4  C12 UNL     1      -0.270  34.901  37.453  1.00  0.00     0.039 A
HETATM    5  C13 UNL     1      -0.213  34.957  38.816  1.00  0.00     0.069 A
HETATM    6  C15 UNL     1       1.029  34.866  39.448  1.00  0.00     0.051 A
HETATM    7  C16 UNL     1       2.155  34.725  38.667  1.00  0.00     0.011 A
HETATM    8  C17 UNL     1       3.361  34.584  39.332  1.00  0.00     0.021 A
HETATM    9  C18 UNL     1       3.486  34.616  40.709  1.00  0.00     0.105 A
HETATM   10  N4  UNL     1       4.679  34.462  41.325  1.00  0.00    -0.366 N
HETATM   11  C21 UNL     1       5.751  34.274  40.556  1.00  0.00     0.092 A
HETATM   12  C22 UNL     1       5.677  34.234  39.166  1.00  0.00     0.049 A
HETATM   13  C23 UNL     1       4.459  34.392  38.520  1.00  0.00     0.066 A
HETATM   14  N5  UNL     1       4.361  34.353  37.177  1.00  0.00    -0.274 N
HETATM   15  C24 UNL     1       5.601  34.209  36.474  1.00  0.00     0.180 C
ENDROOT
BRANCH   1  16
HETATM   16  N2  UNL     1       3.277  34.605  35.156  1.00  0.00    -0.279 N
ATOM     17  H2  UNL     1       3.268  33.693  34.701  1.00  0.00     0.189 HD
BRANCH  16  18
HETATM   18  C9  UNL     1       3.382  35.637  34.231  1.00  0.00     0.050 A
HETATM   19  C8  UNL     1       3.764  35.483  32.889  1.00  0.00     0.031 A
HETATM   20  C7  UNL     1       3.830  36.537  32.010  1.00  0.00     0.011 A
HETATM   21  C6  UNL     1       3.521  37.815  32.412  1.00  0.00    -0.035 A
HETATM   22  C26 UNL     1       3.144  38.005  33.718  1.00  0.00     0.011 A
HETATM   23  C25 UNL     1       3.077  36.953  34.595  1.00  0.00     0.031 A
BRANCH  21  24
HETATM   24  C5  UNL     1       3.580  38.986  31.514  1.00  0.00     0.127 C
HETATM   25  N1  UNL     1       3.926  38.630  30.212  1.00  0.00    -0.376 N
HETATM   26  C4  UNL     1       3.467  39.261  29.247  1.00  0.00     0.073 C
ATOM     27  H1  UNL     1       4.559  37.847  30.051  1.00  0.00     0.160 HD
HETATM   28  S1  UNL     1       2.410  40.512  29.942  1.00  0.00     0.064 S
HETATM   29  C27 UNL     1       2.219  39.660  31.534  1.00  0.00     0.145 C
HETATM   30  O2  UNL     1       0.955  40.586  29.141  1.00  0.00    -0.252 OA
BRANCH  26  31
HETATM   31  C3  UNL     1       3.655  39.114  27.776  1.00  0.00     0.066 C
BRANCH  31  32
HETATM   32  C2  UNL     1       3.556  37.669  27.344  1.00  0.00     0.002 C
HETATM   33  C1  UNL     1       3.220  37.675  25.859  1.00  0.00     0.005 C
ENDBRANCH  31  32
ENDBRANCH  26  31
ENDBRANCH  21  24
ENDBRANCH  16  18
ENDBRANCH   1  16
BRANCH   5  34
HETATM   34  O1  UNL     1      -1.348  35.101  39.592  1.00  0.00    -0.356 OA
HETATM   35  C14 UNL     1      -2.076  33.982  40.034  1.00  0.00     0.210 C
ENDBRANCH   5  34
BRANCH  10  36
HETATM   36  C19 UNL     1       4.776  34.500  42.785  1.00  0.00     0.123 C
HETATM   37  C20 UNL     1       3.902  33.477  43.440  1.00  0.00     0.027 C
ENDBRANCH  10  36
TORSDOF 7
ENDMDL