MODEL 2
REMARK VINA RESULT: -7.604486734      1.854      3.610
REMARK  8 active torsions:
REMARK  status: ('A' for Active; 'I' for Inactive)
REMARK    1  A    between atoms: C2_2  and  N1_3
REMARK       I    between atoms: N1_3  and  C3_4
REMARK    2  A    between atoms: N1_3  and  C18_26
REMARK    3  A    between atoms: C3_4  and  C4_6
REMARK    4  A    between atoms: C4_6  and  N2_7
REMARK    5  A    between atoms: C4_6  and  C15_23
REMARK       I    between atoms: N2_7  and  C5_9
REMARK    6  A    between atoms: C5_9  and  C6_11
REMARK       I    between atoms: N3_18  and  C13_19
REMARK    7  A    between atoms: C13_19  and  O4_21
REMARK    8  A    between atoms: C23_31  and  C24_32
ROOT
HETATM    1  C4  UNL     1       9.821  38.229  33.835  1.00  0.00     0.180 C
ENDROOT
BRANCH   1   2
HETATM    2  C3  UNL     1       8.400  37.869  33.736  1.00  0.00     0.244 C
HETATM    3  N1  UNL     1       7.327  38.756  33.746  1.00  0.00    -0.329 N
HETATM    4  O1  UNL     1       8.151  36.626  33.642  1.00  0.00    -0.271 OA
BRANCH   3   5
HETATM    5  C2  UNL     1       7.498  40.172  33.860  1.00  0.00     0.123 C
HETATM    6  C1  UNL     1       7.967  40.713  35.156  1.00  0.00     0.026 C
ENDBRANCH   3   5
BRANCH   3   7
HETATM    7  C18 UNL     1       5.972  38.217  33.693  1.00  0.00     0.194 C
HETATM    8  C19 UNL     1       5.004  38.921  34.591  1.00  0.00     0.053 C
HETATM    9  C20 UNL     1       4.130  39.712  33.662  1.00  0.00     0.061 C
HETATM   10  C21 UNL     1       4.346  39.089  32.343  1.00  0.00     0.014 A
HETATM   11  C22 UNL     1       3.602  39.277  31.171  1.00  0.00     0.032 A
HETATM   12  N4  UNL     1       5.384  38.253  32.365  1.00  0.00    -0.338 N
HETATM   13  C23 UNL     1       3.903  38.616  29.998  1.00  0.00    -0.052 A
HETATM   14  C27 UNL     1       4.977  37.757  30.039  1.00  0.00     0.025 A
HETATM   15  C28 UNL     1       5.687  37.596  31.207  1.00  0.00     0.093 A
BRANCH  13  16
HETATM   16  C24 UNL     1       3.083  38.829  28.762  1.00  0.00     0.010 C
HETATM   17  C25 UNL     1       3.360  40.162  28.157  1.00  0.00     0.015 C
HETATM   18  C26 UNL     1       3.376  37.673  27.820  1.00  0.00     0.015 C
ENDBRANCH  13  16
ENDBRANCH   3   7
ENDBRANCH   1   2
BRANCH   1  19
HETATM   19  N2  UNL     1      10.471  37.240  34.773  1.00  0.00    -0.346 N
HETATM   20  C5  UNL     1      10.795  37.578  36.089  1.00  0.00     0.241 C
HETATM   21  O2  UNL     1      10.549  38.716  36.538  1.00  0.00    -0.271 OA
ATOM     22  H2  UNL     1      10.680  36.301  34.436  1.00  0.00     0.163 HD
BRANCH  20  23
HETATM   23  C6  UNL     1      11.439  36.526  36.931  1.00  0.00     0.186 C
HETATM   24  C7  UNL     1      12.752  37.085  37.523  1.00  0.00     0.018 C
HETATM   25  C8  UNL     1      12.473  38.213  38.492  1.00  0.00     0.009 C
HETATM   26  C12 UNL     1      13.424  35.966  38.284  1.00  0.00     0.009 C
HETATM   27  C9  UNL     1      11.709  37.711  39.688  1.00  0.00     0.026 C
HETATM   28  C10 UNL     1      11.249  36.299  39.390  1.00  0.00     0.090 C
HETATM   29  C11 UNL     1      12.514  35.448  39.377  1.00  0.00     0.026 C
HETATM   30  N3  UNL     1      10.646  36.188  38.092  1.00  0.00    -0.309 N
HETATM   31  C13 UNL     1       9.295  35.747  37.965  1.00  0.00     0.363 C
HETATM   32  O3  UNL     1       8.782  35.655  36.790  1.00  0.00    -0.238 OA
BRANCH  31  33
HETATM   33  O4  UNL     1       8.480  35.404  39.015  1.00  0.00    -0.309 OA
HETATM   34  C14 UNL     1       7.115  34.993  38.799  1.00  0.00     0.215 C
ENDBRANCH  31  33
ENDBRANCH  20  23
ENDBRANCH   1  19
BRANCH   1  35
HETATM   35  C15 UNL     1      10.620  38.042  32.587  1.00  0.00     0.009 C
HETATM   36  C16 UNL     1       9.816  38.643  31.428  1.00  0.00     0.012 C
HETATM   37  C17 UNL     1      11.035  36.682  32.207  1.00  0.00     0.012 C
ENDBRANCH   1  35
TORSDOF 8
ENDMDL