MODEL 3
REMARK VINA RESULT: -7.428021335      1.146      1.956
REMARK  11 active torsions:
REMARK  status: ('A' for Active; 'I' for Inactive)
REMARK    1  A    between atoms: C2_3  and  C4_5
REMARK    2  A    between atoms: C4_5  and  N2_7
REMARK    3  A    between atoms: C4_5  and  C22_33
REMARK       I    between atoms: N2_7  and  C6_9
REMARK    4  A    between atoms: C6_9  and  C7_11
REMARK    5  A    between atoms: C7_11  and  N3_13
REMARK    6  A    between atoms: N3_13  and  C9_15
REMARK    7  A    between atoms: C9_15  and  O2_16
REMARK    8  A    between atoms: C9_15  and  C10_18
REMARK    9  A    between atoms: C14_25  and  C15_26
REMARK   10  A    between atoms: C15_26  and  C16_27
REMARK   11  A    between atoms: C16_27  and  C19_30
ROOT
HETATM    1  C1  UNL     1       4.439  40.424  33.824  1.00  0.00     0.221 C
HETATM    2  N1  UNL     1       3.871  40.048  32.888  1.00  0.00    -0.464 NA
HETATM    3  C2  UNL     1       3.211  39.623  31.750  1.00  0.00     0.189 C
HETATM    4  C3  UNL     1       1.752  39.402  31.876  1.00  0.00     0.050 C
ENDROOT
BRANCH   3   5
HETATM    5  C4  UNL     1       3.961  38.466  31.020  1.00  0.00     0.088 C
HETATM    6  C5  UNL     1       3.264  37.218  31.528  1.00  0.00     0.047 C
BRANCH   5   7
HETATM    7  N2  UNL     1       5.277  38.465  31.514  1.00  0.00    -0.340 N
HETATM    8  C6  UNL     1       6.578  38.258  31.144  1.00  0.00     0.264 C
HETATM    9  O1  UNL     1       6.985  37.898  30.043  1.00  0.00    -0.266 OA
ATOM     10  H2  UNL     1       5.254  38.704  32.505  1.00  0.00     0.164 HD
BRANCH   8  11
HETATM   11  C7  UNL     1       7.684  38.482  32.166  1.00  0.00     0.075 C
HETATM   12  C8  UNL     1       7.978  39.861  32.531  1.00  0.00     0.074 C
BRANCH  11  13
HETATM   13  N3  UNL     1       8.237  37.508  32.623  1.00  0.00    -0.339 N
ATOM     14  H3  UNL     1       8.555  36.980  31.811  1.00  0.00     0.167 HD
BRANCH  13  15
HETATM   15  C9  UNL     1       8.633  36.790  33.677  1.00  0.00     0.126 C
BRANCH  15  16
HETATM   16  O2  UNL     1       7.648  36.091  34.232  1.00  0.00    -0.349 OA
ATOM     17  H2  UNL     1       6.785  36.408  33.994  1.00  0.00     0.219 HD
ENDBRANCH  15  16
BRANCH  15  18
HETATM   18  C10 UNL     1       9.937  36.618  34.340  1.00  0.00     0.134 C
HETATM   19  C11 UNL     1      10.770  37.898  34.020  1.00  0.00     0.147 C
HETATM   20  N4  UNL     1       9.984  38.487  35.080  1.00  0.00    -0.316 N
HETATM   21  C12 UNL     1       9.213  39.288  35.957  1.00  0.00     0.246 C
HETATM   22  C14 UNL     1      10.072  37.221  35.752  1.00  0.00     0.152 C
HETATM   23  O3  UNL     1       9.115  40.547  36.000  1.00  0.00    -0.271 OA
HETATM   24  C13 UNL     1       8.497  38.335  36.860  1.00  0.00     0.273 C
HETATM   25  O4  UNL     1       8.929  37.055  36.467  1.00  0.00    -0.351 OA
BRANCH  22  26
HETATM   26  C15 UNL     1      11.321  36.700  36.318  1.00  0.00     0.071 C
BRANCH  26  27
HETATM   27  C16 UNL     1      11.698  36.879  37.731  1.00  0.00    -0.040 C
HETATM   28  C17 UNL     1      10.866  36.211  38.761  1.00  0.00     0.015 C
HETATM   29  C18 UNL     1      11.876  38.347  38.110  1.00  0.00     0.015 C
BRANCH  27  30
HETATM   30  C19 UNL     1      13.118  36.273  37.839  1.00  0.00    -0.015 C
HETATM   31  C20 UNL     1      13.247  35.288  38.948  1.00  0.00     0.010 C
HETATM   32  C21 UNL     1      14.107  37.394  38.043  1.00  0.00     0.010 C
ENDBRANCH  27  30
ENDBRANCH  26  27
ENDBRANCH  22  26
ENDBRANCH  15  18
ENDBRANCH  13  15
ENDBRANCH  11  13
ENDBRANCH   8  11
ENDBRANCH   5   7
BRANCH   5  33
HETATM   33  C22 UNL     1       3.820  38.526  29.566  1.00  0.00    -0.025 A
HETATM   34  C23 UNL     1       4.017  39.686  28.888  1.00  0.00     0.027 A
HETATM   35  C24 UNL     1       3.926  39.723  27.489  1.00  0.00     0.090 A
HETATM   36  N5  UNL     1       3.630  38.576  26.807  1.00  0.00    -0.371 N
HETATM   37  C25 UNL     1       3.574  38.628  25.366  1.00  0.00     0.154 C
HETATM   38  C26 UNL     1       3.430  37.435  27.495  1.00  0.00     0.090 A
HETATM   39  C27 UNL     1       3.517  37.378  28.872  1.00  0.00     0.027 A
ENDBRANCH   5  33
ENDBRANCH   3   5
TORSDOF 11
ENDMDL