MODEL 5
REMARK VINA RESULT: -7.924870015      1.319      1.951
REMARK  8 active torsions:
REMARK  status: ('A' for Active; 'I' for Inactive)
REMARK       I    between atoms: C2_2  and  N1_4
REMARK    1  A    between atoms: C5_7  and  C6_8
REMARK    2  A    between atoms: C6_8  and  C7_9
REMARK    3  A    between atoms: C6_8  and  C14_20
REMARK    4  A    between atoms: C7_9  and  C8_10
REMARK    5  A    between atoms: C11_13  and  N2_14
REMARK       I    between atoms: C14_20  and  N3_22
REMARK    6  A    between atoms: C16_24  and  C17_25
REMARK    7  A    between atoms: C21_29  and  C22_30
REMARK       I    between atoms: C22_30  and  N4_32
REMARK    8  A    between atoms: N4_32  and  C24_34
ROOT
HETATM    1  C6  UNL     1       4.677  35.746  33.983  1.00  0.00     0.082 C
ENDROOT
BRANCH   1   2
HETATM    2  C5  UNL     1       4.228  35.142  35.254  1.00  0.00     0.002 C
HETATM    3  C4  UNL     1       2.981  34.372  35.335  1.00  0.00     0.025 C
HETATM    4  C3  UNL     1       3.108  33.052  36.142  1.00  0.00     0.126 C
HETATM    5  N1  UNL     1       3.671  33.411  37.411  1.00  0.00    -0.352 N
HETATM    6  C2  UNL     1       3.028  33.169  38.627  1.00  0.00     0.215 C
HETATM    7  C28 UNL     1       4.965  34.053  37.382  1.00  0.00     0.126 C
HETATM    8  C1  UNL     1       3.641  33.555  39.925  1.00  0.00     0.117 C
HETATM    9  O1  UNL     1       1.884  32.599  38.595  1.00  0.00    -0.274 OA
HETATM   10  C27 UNL     1       5.356  34.324  35.913  1.00  0.00     0.025 C
ENDBRANCH   1   2
BRANCH   1  11
HETATM   11  C7  UNL     1       3.886  35.979  32.797  1.00  0.00     0.019 C
BRANCH  11  12
HETATM   12  C8  UNL     1       3.793  37.183  31.966  1.00  0.00    -0.014 C
HETATM   13  C9  UNL     1       2.260  37.565  31.875  1.00  0.00     0.007 C
HETATM   14  C10 UNL     1       2.185  38.920  31.223  1.00  0.00     0.033 C
HETATM   15  C11 UNL     1       2.963  38.918  29.916  1.00  0.00     0.183 C
HETATM   16  C12 UNL     1       3.156  37.461  29.572  1.00  0.00     0.033 C
HETATM   17  C13 UNL     1       4.194  36.901  30.538  1.00  0.00     0.007 C
BRANCH  15  18
HETATM   18  N2  UNL     1       2.303  39.670  28.891  1.00  0.00    -0.075 N
ATOM     19  H23 UNL     1       1.934  40.548  29.258  1.00  0.00     0.274 HD
ATOM     20  H22 UNL     1       2.973  40.043  28.219  1.00  0.00     0.274 HD
ATOM     21  H21 UNL     1       1.575  39.129  28.425  1.00  0.00     0.274 HD
ENDBRANCH  15  18
ENDBRANCH  11  12
ENDBRANCH   1  11
BRANCH   1  22
HETATM   22  C14 UNL     1       5.182  37.139  34.393  1.00  0.00     0.225 C
HETATM   23  O2  UNL     1       4.471  37.707  35.240  1.00  0.00    -0.273 OA
HETATM   24  N3  UNL     1       6.343  37.713  33.853  1.00  0.00    -0.338 N
HETATM   25  C15 UNL     1       7.259  37.160  32.872  1.00  0.00     0.132 C
HETATM   26  C21 UNL     1       6.825  39.027  34.221  1.00  0.00     0.179 C
HETATM   27  C16 UNL     1       8.587  37.837  33.177  1.00  0.00     0.009 C
HETATM   28  C20 UNL     1       8.125  39.225  33.515  1.00  0.00     0.041 C
BRANCH  27  29
HETATM   29  C17 UNL     1       9.494  37.840  31.971  1.00  0.00    -0.017 C
HETATM   30  C18 UNL     1      10.874  38.216  32.430  1.00  0.00     0.010 C
HETATM   31  C19 UNL     1       8.984  38.863  31.005  1.00  0.00     0.010 C
ENDBRANCH  27  29
BRANCH  26  32
HETATM   32  C22 UNL     1       5.829  40.063  33.868  1.00  0.00     0.242 C
HETATM   33  O3  UNL     1       5.275  40.016  32.753  1.00  0.00    -0.271 OA
HETATM   34  N4  UNL     1       5.510  41.092  34.783  1.00  0.00    -0.350 N
HETATM   35  C23 UNL     1       6.134  41.184  36.096  1.00  0.00     0.153 C
BRANCH  34  36
HETATM   36  C24 UNL     1       4.535  42.125  34.451  1.00  0.00     0.087 A
HETATM   37  C25 UNL     1       3.827  42.872  35.526  1.00  0.00     0.027 A
HETATM   38  C26 UNL     1       4.957  43.505  34.771  1.00  0.00     0.027 A
ENDBRANCH  34  36
ENDBRANCH  26  32
ENDBRANCH   1  22
TORSDOF 8
ENDMDL