MODEL 5
REMARK VINA RESULT: -6.645355479      6.832      9.626
REMARK  12 active torsions:
REMARK  status: ('A' for Active; 'I' for Inactive)
REMARK    1  A    between atoms: S1_2  and  C2_3
REMARK    2  A    between atoms: C3_4  and  C4_5
REMARK    3  A    between atoms: C4_5  and  O1_6
REMARK    4  A    between atoms: C4_5  and  C5_8
REMARK    5  A    between atoms: N2_12  and  C7_14
REMARK    6  A    between atoms: C11_24  and  N6_25
REMARK       I    between atoms: N6_25  and  C12_27
REMARK    7  A    between atoms: N8_30  and  N9_31
REMARK    8  A    between atoms: N9_31  and  N10_33
REMARK    9  A    between atoms: C13_37  and  C14_38
REMARK   10  A    between atoms: C14_38  and  O4_39
REMARK   11  A    between atoms: C14_38  and  O5_41
REMARK   12  A    between atoms: C16_44  and  N11_45
REMARK       I    between atoms: N11_45  and  C17_47
REMARK       I    between atoms: C17_47  and  N12_48
REMARK       I    between atoms: C17_47  and  N13_52
ROOT
HETATM    1  C5  UNL     1      30.771  28.196 -44.666  1.00  0.00     0.144 A
HETATM    2  N1  UNL     1      30.049  27.386 -43.884  1.00  0.00    -0.328 N
ATOM      3  H1  UNL     1      30.003  26.391 -44.100  1.00  0.00     0.169 HD
HETATM    4  C6  UNL     1      29.378  27.868 -42.812  1.00  0.00     0.126 A
HETATM    5  N2  UNL     1      28.701  27.074 -42.092  1.00  0.00    -0.177 N
ATOM      6  H2  UNL     1      28.673  26.084 -42.334  1.00  0.00     0.186 HD
HETATM    7  C10 UNL     1      29.442  29.224 -42.519  1.00  0.00     0.099 A
HETATM    8  C11 UNL     1      30.178  30.052 -43.315  1.00  0.00     0.137 A
HETATM    9  N8  UNL     1      30.830  29.498 -44.382  1.00  0.00    -0.210 N
ENDROOT
BRANCH   1  10
HETATM   10  C4  UNL     1      31.484  27.599 -45.828  1.00  0.00     0.246 C
BRANCH  10  11
HETATM   11  C3  UNL     1      30.649  26.525 -46.448  1.00  0.00     0.108 A
HETATM   12  C2  UNL     1      30.348  26.546 -47.794  1.00  0.00     0.059 A
HETATM   13  C16 UNL     1      29.571  25.546 -48.364  1.00  0.00     0.052 A
HETATM   14  C15 UNL     1      29.128  24.549 -47.519  1.00  0.00     0.068 A
HETATM   15  C13 UNL     1      29.452  24.565 -46.173  1.00  0.00     0.110 A
HETATM   16  O3  UNL     1      30.190  25.543 -45.706  1.00  0.00    -0.310 OA
BRANCH  12  17
HETATM   17  S1  UNL     1      30.952  27.864 -48.839  1.00  0.00    -0.130 SA
HETATM   18  C1  UNL     1      32.547  27.346 -49.523  1.00  0.00     0.095 C
ENDBRANCH  12  17
BRANCH  13  19
HETATM   19  N11 UNL     1      29.324  25.613 -49.606  1.00  0.00    -0.340 N
HETATM   20  C17 UNL     1      29.443  24.532 -50.543  1.00  0.00     0.480 C
HETATM   21  N12 UNL     1      30.822  24.081 -50.697  1.00  0.00    -0.033 N
HETATM   22  N13 UNL     1      29.020  25.020 -51.843  1.00  0.00    -0.033 N
ATOM     23 3H12 UNL     1      31.436  24.855 -50.947  1.00  0.00     0.278 HD
ATOM     24 2H12 UNL     1      31.231  23.833 -49.795  1.00  0.00     0.278 HD
ATOM     25 1H12 UNL     1      30.906  23.313 -51.363  1.00  0.00     0.278 HD
ATOM     26 3H13 UNL     1      28.085  25.428 -51.827  1.00  0.00     0.278 HD
ATOM     27 2H13 UNL     1      29.528  25.854 -52.135  1.00  0.00     0.278 HD
ATOM     28 1H13 UNL     1      29.104  24.252 -52.509  1.00  0.00     0.278 HD
ATOM     29  H11 UNL     1      29.014  26.513 -49.971  1.00  0.00     0.163 HD
ENDBRANCH  13  19
BRANCH  15  30
HETATM   30  C14 UNL     1      28.981  23.496 -45.249  1.00  0.00     0.312 C
BRANCH  30  31
HETATM   31  O4  UNL     1      27.810  23.858 -44.584  1.00  0.00    -0.365 OA
ATOM     32  H4  UNL     1      27.746  23.452 -43.728  1.00  0.00     0.213 HD
ENDBRANCH  30  31
BRANCH  30  33
HETATM   33  O5  UNL     1      28.825  22.282 -45.898  1.00  0.00    -0.365 OA
ATOM     34  H5  UNL     1      28.127  21.763 -45.517  1.00  0.00     0.213 HD
ENDBRANCH  30  33
ENDBRANCH  15  30
ENDBRANCH  10  11
BRANCH  10  35
HETATM   35  O1  UNL     1      32.620  26.957 -45.323  1.00  0.00    -0.381 OA
ATOM     36  H1  UNL     1      33.311  27.609 -45.330  1.00  0.00     0.211 HD
ENDBRANCH  10  35
ENDBRANCH   1  10
BRANCH   9  37
HETATM   37  N9  UNL     1      31.578  30.369 -45.182  1.00  0.00    -0.239 N
ATOM     38  H9  UNL     1      32.486  30.686 -44.842  1.00  0.00     0.208 HD
BRANCH  37  39
HETATM   39  N10 UNL     1      31.132  30.821 -46.427  1.00  0.00    -0.330 N
ATOM     40 2H10 UNL     1      30.606  31.695 -46.452  1.00  0.00     0.178 HD
ATOM     41 1H10 UNL     1      31.310  30.314 -47.293  1.00  0.00     0.178 HD
ENDBRANCH  37  39
ENDBRANCH   9  37
BRANCH   8  42
HETATM   42  N6  UNL     1      30.273  31.428 -43.056  1.00  0.00    -0.295 N
HETATM   43  C12 UNL     1      29.711  32.484 -43.746  1.00  0.00     0.334 C
HETATM   44  N7  UNL     1      28.889  32.493 -44.896  1.00  0.00    -0.040 NA
HETATM   45  O2  UNL     1      29.966  33.670 -43.283  1.00  0.00    -0.251 OA
ATOM     46  H6  UNL     1      30.834  31.684 -42.245  1.00  0.00     0.171 HD
ENDBRANCH   8  42
BRANCH   5  47
HETATM   47  C7  UNL     1      27.989  27.526 -40.972  1.00  0.00     0.681 C
HETATM   48  N3  UNL     1      28.472  27.489 -39.778  1.00  0.00    -0.188 N
HETATM   49  C8  UNL     1      27.801  27.931 -38.598  1.00  0.00     0.195 C
ATOM     50  H3  UNL     1      29.414  27.112 -39.667  1.00  0.00     0.185 HD
HETATM   51  N4  UNL     1      26.443  28.323 -38.783  1.00  0.00    -0.369 N
HETATM   52  C9  UNL     1      26.138  28.871 -40.068  1.00  0.00     0.262 C
ATOM     53  H4  UNL     1      25.739  28.220 -38.051  1.00  0.00     0.161 HD
HETATM   54  N5  UNL     1      26.670  28.054 -41.130  1.00  0.00    -0.210 N
ATOM     55  H5  UNL     1      26.122  27.859 -41.968  1.00  0.00     0.179 HD
ENDBRANCH   5  47
TORSDOF 12
ENDMDL