MODEL 5
REMARK VINA RESULT: -5.793162134      3.485      8.504
REMARK  15 active torsions:
REMARK  status: ('A' for Active; 'I' for Inactive)
REMARK    1  A    between atoms: N1_1  and  C1_4
REMARK    2  A    between atoms: C5_12  and  O1_13
REMARK    3  A    between atoms: N4_15  and  C6_16
REMARK    4  A    between atoms: C8_19  and  C9_20
REMARK    5  A    between atoms: C9_20  and  O3_21
REMARK    6  A    between atoms: C9_20  and  C10_23
REMARK    7  A    between atoms: C10_23  and  O4_24
REMARK    8  A    between atoms: C10_23  and  C11_26
REMARK    9  A    between atoms: C11_26  and  O5_27
REMARK   10  A    between atoms: C11_26  and  C12_29
REMARK   11  A    between atoms: C12_29  and  N5_30
REMARK   12  A    between atoms: C14_32  and  C15_33
REMARK   13  A    between atoms: C15_33  and  O6_34
REMARK   14  A    between atoms: N8_40  and  N9_42
REMARK   15  A    between atoms: N10_47  and  N11_48
ROOT
HETATM    1  C6  UNL     1      28.493  24.628 -45.755  1.00  0.00     0.243 C
HETATM    2  C7  UNL     1      27.527  25.674 -45.241  1.00  0.00     0.218 C
HETATM    3  O2  UNL     1      28.069  26.510 -44.309  1.00  0.00    -0.373 OA
HETATM    4  C8  UNL     1      27.580  26.312 -42.995  1.00  0.00     0.209 C
HETATM    5  C16 UNL     1      27.713  24.873 -42.684  1.00  0.00     0.126 C
HETATM    6  N8  UNL     1      26.964  24.369 -41.730  1.00  0.00    -0.304 N
ATOM      7  H8  UNL     1      26.316  24.982 -41.235  1.00  0.00     0.186 HD
HETATM    8  C17 UNL     1      28.580  23.877 -43.298  1.00  0.00     0.290 C
HETATM    9  O7  UNL     1      28.948  22.919 -42.548  1.00  0.00    -0.264 OA
HETATM   10  N10 UNL     1      29.055  23.861 -44.637  1.00  0.00    -0.236 N
ENDROOT
BRANCH   4  11
HETATM   11  C9  UNL     1      28.463  27.207 -42.146  1.00  0.00     0.184 C
BRANCH  11  12
HETATM   12  O3  UNL     1      29.545  27.540 -42.956  1.00  0.00    -0.390 OA
ATOM     13  H3  UNL     1      30.294  27.584 -42.374  1.00  0.00     0.210 HD
ENDBRANCH  11  12
BRANCH  11  14
HETATM   14  C10 UNL     1      27.802  28.420 -41.616  1.00  0.00     0.180 C
BRANCH  14  15
HETATM   15  O4  UNL     1      28.690  29.467 -41.356  1.00  0.00    -0.390 OA
ATOM     16  H4  UNL     1      28.337  30.124 -40.769  1.00  0.00     0.210 HD
ENDBRANCH  14  15
BRANCH  14  17
HETATM   17  C11 UNL     1      26.988  28.174 -40.381  1.00  0.00     0.169 C
BRANCH  17  18
HETATM   18  O5  UNL     1      25.958  27.258 -40.596  1.00  0.00    -0.391 OA
ATOM     19  H5  UNL     1      26.065  26.776 -41.408  1.00  0.00     0.210 HD
ENDBRANCH  17  18
BRANCH  17  20
HETATM   20  C12 UNL     1      27.764  27.749 -39.173  1.00  0.00     0.180 C
BRANCH  20  21
HETATM   21  N5  UNL     1      26.789  27.482 -38.088  1.00  0.00    -0.282 N
HETATM   22  C13 UNL     1      26.452  28.428 -37.199  1.00  0.00     0.136 A
HETATM   23  C14 UNL     1      25.530  27.821 -36.351  1.00  0.00     0.064 A
HETATM   24  N6  UNL     1      25.372  26.563 -36.778  1.00  0.00    -0.285 N
HETATM   25  N7  UNL     1      26.143  26.357 -37.842  1.00  0.00    -0.020 NA
ATOM     26  H6  UNL     1      24.756  25.869 -36.353  1.00  0.00     0.184 HD
BRANCH  23  27
HETATM   27  C15 UNL     1      24.891  28.520 -35.207  1.00  0.00     0.223 C
BRANCH  27  28
HETATM   28  O6  UNL     1      24.538  27.547 -34.278  1.00  0.00    -0.395 OA
ATOM     29  H6  UNL     1      24.455  27.980 -33.436  1.00  0.00     0.209 HD
ENDBRANCH  27  28
ENDBRANCH  23  27
ENDBRANCH  20  21
ENDBRANCH  17  20
ENDBRANCH  14  17
ENDBRANCH  11  14
ENDBRANCH   4  11
BRANCH   6  30
HETATM   30  N9  UNL     1      27.027  23.023 -41.373  1.00  0.00    -0.345 N
ATOM     31  H92 UNL     1      27.649  22.415 -41.906  1.00  0.00     0.176 HD
ATOM     32  H91 UNL     1      26.475  22.641 -40.605  1.00  0.00     0.176 HD
ENDBRANCH   6  30
BRANCH   1  33
HETATM   33  N4  UNL     1      29.538  25.196 -46.578  1.00  0.00    -0.285 N
HETATM   34  C2  UNL     1      30.590  25.996 -46.193  1.00  0.00     0.133 A
HETATM   35  N2  UNL     1      31.040  26.518 -45.067  1.00  0.00    -0.322 N
HETATM   36  C3  UNL     1      31.281  26.258 -47.338  1.00  0.00     0.081 A
HETATM   37  C1  UNL     1      32.139  27.268 -45.117  1.00  0.00     0.144 A
ATOM     38  H2  UNL     1      30.559  26.351 -44.183  1.00  0.00     0.169 HD
HETATM   39  S1  UNL     1      32.556  27.246 -46.769  1.00  0.00    -0.049 SA
HETATM   40  C4  UNL     1      30.673  25.631 -48.440  1.00  0.00     0.118 A
HETATM   41  N3  UNL     1      31.147  25.714 -49.749  1.00  0.00    -0.096 NA
HETATM   42  C5  UNL     1      29.604  24.990 -47.920  1.00  0.00     0.172 A
BRANCH  37  43
HETATM   43  N1  UNL     1      32.740  27.872 -44.110  1.00  0.00    -0.380 N
ATOM     44  H12 UNL     1      32.373  28.568 -43.461  1.00  0.00     0.158 HD
ATOM     45  H11 UNL     1      33.703  27.745 -43.799  1.00  0.00     0.158 HD
ENDBRANCH  37  43
BRANCH  42  46
HETATM   46  O1  UNL     1      28.686  24.219 -48.652  1.00  0.00    -0.344 OA
ATOM     47  H1  UNL     1      28.693  23.271 -48.713  1.00  0.00     0.219 HD
ENDBRANCH  42  46
ENDBRANCH   1  33
BRANCH  10  48
HETATM   48  N11 UNL     1      30.149  23.043 -44.907  1.00  0.00    -0.338 N
ATOM     49 2H11 UNL     1      29.949  22.079 -45.175  1.00  0.00     0.177 HD
ATOM     50 1H11 UNL     1      31.077  23.458 -44.824  1.00  0.00     0.177 HD
ENDBRANCH  10  48
TORSDOF 15
ENDMDL