MODEL 3
REMARK VINA RESULT: -6.221822774      4.851      8.025
REMARK  17 active torsions:
REMARK  status: ('A' for Active; 'I' for Inactive)
REMARK    1  A    between atoms: O1_2  and  C2_3
REMARK       I    between atoms: C2_3  and  N1_5
REMARK    2  A    between atoms: N1_5  and  C3_7
REMARK    3  A    between atoms: C4_8  and  O3_9
REMARK    4  A    between atoms: C5_11  and  N2_12
REMARK    5  A    between atoms: C8_15  and  C9_16
REMARK    6  A    between atoms: C11_21  and  C12_22
REMARK    7  A    between atoms: C12_22  and  O7_23
REMARK    8  A    between atoms: C12_22  and  O8_25
REMARK    9  A    between atoms: C13_27  and  C14_28
REMARK   10  A    between atoms: C14_28  and  O9_29
REMARK   11  A    between atoms: C14_28  and  O10_31
REMARK   12  A    between atoms: N3_36  and  N4_37
REMARK   13  A    between atoms: C16_40  and  N5_41
REMARK   14  A    between atoms: N5_41  and  C17_43
REMARK   15  A    between atoms: C17_43  and  O13_44
REMARK   16  A    between atoms: C17_43  and  C18_46
REMARK   17  A    between atoms: C18_46  and  O14_47
ROOT
HETATM    1  C3  UNL     1      28.043  26.767 -42.903  1.00  0.00     0.119 A
HETATM    2  C4  UNL     1      27.529  26.798 -41.638  1.00  0.00     0.131 A
HETATM    3  C5  UNL     1      27.870  27.848 -40.808  1.00  0.00     0.162 A
HETATM    4  C15 UNL     1      28.705  28.803 -41.298  1.00  0.00     0.299 A
HETATM    5  O12 UNL     1      29.006  29.748 -40.537  1.00  0.00    -0.263 OA
HETATM    6  N3  UNL     1      29.231  28.793 -42.562  1.00  0.00    -0.206 N
HETATM    7  C16 UNL     1      28.900  27.774 -43.366  1.00  0.00     0.158 A
ENDROOT
BRANCH   3   8
HETATM    8  N2  UNL     1      27.342  27.894 -39.485  1.00  0.00    -0.249 N
HETATM    9  C6  UNL     1      27.507  29.080 -38.635  1.00  0.00     0.171 C
HETATM   10  C7  UNL     1      26.665  28.614 -37.412  1.00  0.00     0.046 C
HETATM   11  C8  UNL     1      27.055  29.433 -36.219  1.00  0.00     0.170 C
HETATM   12  C11 UNL     1      25.413  29.302 -37.432  1.00  0.00     0.125 C
HETATM   13  C13 UNL     1      27.001  27.222 -37.495  1.00  0.00     0.219 C
HETATM   14  C10 UNL     1      26.104  30.461 -36.731  1.00  0.00     0.152 C
HETATM   15  O6  UNL     1      25.982  31.651 -36.616  1.00  0.00    -0.296 OA
HETATM   16  O11 UNL     1      26.648  26.921 -38.832  1.00  0.00    -0.266 OA
BRANCH  11  17
HETATM   17  C9  UNL     1      28.466  29.880 -36.158  1.00  0.00     0.185 C
HETATM   18  O4  UNL     1      29.361  29.077 -35.740  1.00  0.00    -0.647 OA
HETATM   19  O5  UNL     1      28.896  31.140 -36.531  1.00  0.00    -0.647 OA
ENDBRANCH  11  17
BRANCH  12  20
HETATM   20  C12 UNL     1      24.186  28.979 -36.695  1.00  0.00     0.266 C
BRANCH  20  21
HETATM   21  O7  UNL     1      23.260  30.011 -36.557  1.00  0.00    -0.371 OA
ATOM     22  H7  UNL     1      22.501  29.973 -37.127  1.00  0.00     0.212 HD
ENDBRANCH  20  21
BRANCH  20  23
HETATM   23  O8  UNL     1      23.568  27.790 -37.103  1.00  0.00    -0.371 OA
ATOM     24  H8  UNL     1      23.085  27.346 -36.416  1.00  0.00     0.212 HD
ENDBRANCH  20  23
ENDBRANCH  12  20
BRANCH  13  25
HETATM   25  C14 UNL     1      26.686  26.217 -36.500  1.00  0.00     0.286 C
BRANCH  25  26
HETATM   26  O9  UNL     1      25.576  25.477 -37.005  1.00  0.00    -0.369 OA
ATOM     27  H9  UNL     1      25.593  24.632 -36.572  1.00  0.00     0.212 HD
ENDBRANCH  25  26
BRANCH  25  28
HETATM   28  O10 UNL     1      27.734  25.267 -36.500  1.00  0.00    -0.369 OA
ATOM     29  H10 UNL     1      27.594  24.682 -35.764  1.00  0.00     0.212 HD
ENDBRANCH  25  28
ENDBRANCH  13  25
ENDBRANCH   3   8
BRANCH   2  30
HETATM   30  O3  UNL     1      26.672  25.768 -41.210  1.00  0.00    -0.356 OA
ATOM     31  H3  UNL     1      26.516  25.641 -40.281  1.00  0.00     0.218 HD
ENDBRANCH   2  30
BRANCH   1  32
HETATM   32  N1  UNL     1      27.688  25.684 -43.754  1.00  0.00    -0.297 N
HETATM   33  C2  UNL     1      28.462  24.501 -43.848  1.00  0.00     0.364 C
HETATM   34  O2  UNL     1      29.503  24.393 -43.162  1.00  0.00    -0.238 OA
ATOM     35  H1  UNL     1      26.842  25.762 -44.318  1.00  0.00     0.171 HD
BRANCH  33  36
HETATM   36  O1  UNL     1      28.087  23.471 -44.682  1.00  0.00    -0.309 OA
HETATM   37  C1  UNL     1      28.760  23.229 -45.911  1.00  0.00     0.215 C
ENDBRANCH  33  36
ENDBRANCH   1  32
BRANCH   6  38
HETATM   38  N4  UNL     1      30.080  29.830 -42.892  1.00  0.00    -0.334 N
ATOM     39  H42 UNL     1      29.942  30.484 -43.663  1.00  0.00     0.177 HD
ATOM     40  H41 UNL     1      30.921  29.938 -42.325  1.00  0.00     0.177 HD
ENDBRANCH   6  38
BRANCH   7  41
HETATM   41  N5  UNL     1      29.395  27.654 -44.669  1.00  0.00    -0.345 N
ATOM     42  H5  UNL     1      28.783  28.018 -45.399  1.00  0.00     0.163 HD
BRANCH  41  43
HETATM   43  C17 UNL     1      30.624  27.100 -45.130  1.00  0.00     0.242 C
BRANCH  43  44
HETATM   44  O13 UNL     1      31.410  26.566 -44.080  1.00  0.00    -0.375 OA
ATOM     45  H13 UNL     1      32.212  26.161 -44.391  1.00  0.00     0.212 HD
ENDBRANCH  43  44
BRANCH  43  46
HETATM   46  C18 UNL     1      31.537  28.204 -45.718  1.00  0.00     0.217 C
BRANCH  46  47
HETATM   47  O14 UNL     1      30.843  29.389 -45.851  1.00  0.00    -0.397 OA
ATOM     48  H14 UNL     1      31.419  30.082 -46.155  1.00  0.00     0.209 HD
ENDBRANCH  46  47
ENDBRANCH  43  46
ENDBRANCH  41  43
ENDBRANCH   7  41
TORSDOF 17
ENDMDL