MODEL 3
REMARK VINA RESULT: -6.806718454      1.549      2.097
REMARK  15 active torsions:
REMARK  status: ('A' for Active; 'I' for Inactive)
REMARK    1  A    between atoms: C2_2  and  C3_3
REMARK    2  A    between atoms: C3_3  and  C4_4
REMARK    3  A    between atoms: C4_4  and  O1_5
REMARK    4  A    between atoms: C4_4  and  C15_32
REMARK    5  A    between atoms: O1_5  and  C5_6
REMARK    6  A    between atoms: C8_15  and  O2_16
REMARK    7  A    between atoms: O2_16  and  C9_17
REMARK    8  A    between atoms: C10_19  and  C11_20
REMARK    9  A    between atoms: C11_20  and  O4_21
REMARK   10  A    between atoms: C13_24  and  O5_25
REMARK   11  A    between atoms: C14_27  and  N3_28
REMARK   12  A    between atoms: C16_34  and  N4_35
REMARK   13  A    between atoms: N4_35  and  C17_37
REMARK   14  A    between atoms: C18_40  and  N6_41
REMARK   15  A    between atoms: C19_51  and  O6_52
ROOT
HETATM    1  O1  UNL     1      30.423  26.934 -46.008  1.00  0.00    -0.346 OA
ENDROOT
BRANCH   1   2
HETATM    2  C4  UNL     1      30.216  27.648 -44.836  1.00  0.00     0.168 C
BRANCH   2   3
HETATM    3  C3  UNL     1      30.002  29.102 -45.084  1.00  0.00     0.037 C
BRANCH   3   4
HETATM    4  C2  UNL     1      31.120  29.990 -45.461  1.00  0.00    -0.002 C
HETATM    5  C1  UNL     1      31.093  30.229 -47.003  1.00  0.00     0.005 C
ENDBRANCH   3   4
ENDBRANCH   2   3
BRANCH   2   6
HETATM    6  C15 UNL     1      29.142  27.046 -44.052  1.00  0.00     0.066 A
HETATM    7  S1  UNL     1      28.531  27.477 -42.478  1.00  0.00    -0.051 SA
HETATM    8  C16 UNL     1      27.388  26.258 -42.269  1.00  0.00     0.166 A
HETATM    9  N10 UNL     1      27.499  25.556 -43.404  1.00  0.00    -0.316 N
HETATM   10  C19 UNL     1      28.362  25.938 -44.290  1.00  0.00     0.158 A
ATOM     11  H10 UNL     1      26.915  24.737 -43.567  1.00  0.00     0.170 HD
BRANCH   8  12
HETATM   12  N4  UNL     1      26.607  26.054 -41.260  1.00  0.00    -0.169 N
ATOM     13  H4  UNL     1      26.232  25.112 -41.157  1.00  0.00     0.186 HD
BRANCH  12  14
HETATM   14  C17 UNL     1      26.226  26.987 -40.299  1.00  0.00     0.695 C
HETATM   15  N5  UNL     1      26.210  26.789 -39.015  1.00  0.00    -0.181 N
HETATM   16  C18 UNL     1      25.784  27.863 -38.144  1.00  0.00     0.409 C
ATOM     17  H5  UNL     1      26.494  25.890 -38.627  1.00  0.00     0.181 HD
HETATM   18  N7  UNL     1      24.613  28.475 -38.752  1.00  0.00    -0.071 NA
HETATM   19  N8  UNL     1      24.900  29.050 -39.994  1.00  0.00    -0.013 NA
HETATM   20  N9  UNL     1      25.811  28.283 -40.729  1.00  0.00    -0.119 N
ATOM     21  H9  UNL     1      26.190  28.662 -41.597  1.00  0.00     0.202 HD
BRANCH  16  22
HETATM   22  N6  UNL     1      25.387  27.278 -36.890  1.00  0.00    -0.042 N
ATOM     23  H63 UNL     1      25.105  27.973 -36.200  1.00  0.00     0.278 HD
ATOM     24  H62 UNL     1      24.499  26.778 -36.949  1.00  0.00     0.278 HD
ATOM     25  H61 UNL     1      26.153  26.687 -36.568  1.00  0.00     0.278 HD
ENDBRANCH  16  22
ENDBRANCH  12  14
ENDBRANCH   8  12
BRANCH  10  26
HETATM   26  O6  UNL     1      28.500  25.212 -45.517  1.00  0.00    -0.345 OA
ATOM     27  H6  UNL     1      28.205  25.596 -46.335  1.00  0.00     0.219 HD
ENDBRANCH  10  26
ENDBRANCH   2   6
ENDBRANCH   1   2
BRANCH   1  28
HETATM   28  C5  UNL     1      31.645  26.304 -46.067  1.00  0.00     0.354 C
HETATM   29  N1  UNL     1      31.721  24.938 -45.629  1.00  0.00    -0.022 N
HETATM   30  C6  UNL     1      33.103  24.510 -45.455  1.00  0.00     0.466 C
ATOM     31  H12 UNL     1      31.173  24.786 -44.782  1.00  0.00     0.282 HD
ATOM     32  H11 UNL     1      31.213  24.315 -46.257  1.00  0.00     0.282 HD
HETATM   33  N2  UNL     1      33.823  24.612 -46.711  1.00  0.00    -0.049 N
HETATM   34  C7  UNL     1      32.947  25.093 -47.763  1.00  0.00     0.270 C
ATOM     35  H22 UNL     1      34.660  25.188 -46.622  1.00  0.00     0.279 HD
ATOM     36  H21 UNL     1      34.270  23.731 -46.964  1.00  0.00     0.279 HD
HETATM   37  C8  UNL     1      32.393  26.449 -47.351  1.00  0.00     0.206 C
BRANCH  37  38
HETATM   38  O2  UNL     1      31.619  26.972 -48.402  1.00  0.00    -0.348 OA
BRANCH  38  39
HETATM   39  C9  UNL     1      31.224  26.043 -49.329  1.00  0.00     0.293 C
HETATM   40  O3  UNL     1      31.628  26.387 -50.577  1.00  0.00    -0.352 OA
HETATM   41  C10 UNL     1      30.906  27.308 -51.272  1.00  0.00     0.150 C
HETATM   42  C12 UNL     1      29.537  26.761 -51.579  1.00  0.00     0.068 C
HETATM   43  C13 UNL     1      29.282  25.561 -50.725  1.00  0.00     0.156 C
HETATM   44  C14 UNL     1      29.727  25.789 -49.294  1.00  0.00     0.266 C
BRANCH  41  45
HETATM   45  C11 UNL     1      31.665  27.553 -52.591  1.00  0.00     0.196 C
BRANCH  45  46
HETATM   46  O4  UNL     1      30.818  27.050 -53.597  1.00  0.00    -0.398 OA
ATOM     47  H4  UNL     1      30.891  26.106 -53.528  1.00  0.00     0.209 HD
ENDBRANCH  45  46
ENDBRANCH  41  45
BRANCH  43  48
HETATM   48  O5  UNL     1      30.020  24.464 -51.230  1.00  0.00    -0.393 OA
ATOM     49  H5  UNL     1      30.114  23.809 -50.547  1.00  0.00     0.210 HD
ENDBRANCH  43  48
BRANCH  44  50
HETATM   50  N3  UNL     1      29.402  24.580 -48.558  1.00  0.00    -0.068 N
ATOM     51  H33 UNL     1      30.151  23.890 -48.628  1.00  0.00     0.275 HD
ATOM     52  H32 UNL     1      29.427  24.740 -47.551  1.00  0.00     0.275 HD
ATOM     53  H31 UNL     1      28.508  24.187 -48.850  1.00  0.00     0.275 HD
ENDBRANCH  44  50
ENDBRANCH  38  39
ENDBRANCH  37  38
ENDBRANCH   1  28
TORSDOF 15
ENDMDL