MODEL 4
REMARK VINA RESULT: -6.656956619      2.906      4.291
REMARK  18 active torsions:
REMARK  status: ('A' for Active; 'I' for Inactive)
REMARK    1  A    between atoms: C2_3  and  C3_4
REMARK    2  A    between atoms: C3_4  and  O1_5
REMARK    3  A    between atoms: C3_4  and  O2_7
REMARK    4  A    between atoms: C7_12  and  N2_13
REMARK    5  A    between atoms: N2_13  and  N3_15
REMARK    6  A    between atoms: N3_15  and  C8_17
REMARK    7  A    between atoms: C8_17  and  C9_18
REMARK    8  A    between atoms: C9_18  and  O3_19
REMARK    9  A    between atoms: C9_18  and  C10_21
REMARK   10  A    between atoms: C11_23  and  C12_24
REMARK   11  A    between atoms: C12_24  and  O5_25
REMARK   12  A    between atoms: C12_24  and  O6_27
REMARK   13  A    between atoms: C15_32  and  C16_33
REMARK   14  A    between atoms: N4_34  and  O8_36
REMARK   15  A    between atoms: C17_38  and  O9_39
REMARK   16  A    between atoms: C18_41  and  O10_43
REMARK   17  A    between atoms: C20_45  and  C21_46
REMARK   18  A    between atoms: C21_46  and  O11_47
ROOT
HETATM    1  N2  UNL     1      29.327  26.939 -42.443  1.00  0.00    -0.289 N
ATOM      2  H2  UNL     1      29.244  27.705 -43.111  1.00  0.00     0.188 HD
ENDROOT
BRANCH   1   3
HETATM    3  C7  UNL     1      29.861  26.004 -43.028  1.00  0.00     0.133 A
HETATM    4  N1  UNL     1      29.106  25.376 -43.994  1.00  0.00    -0.335 N
HETATM    5  C1  UNL     1      27.777  25.858 -44.240  1.00  0.00     0.158 C
HETATM    6  C2  UNL     1      29.562  24.336 -44.710  1.00  0.00     0.070 A
HETATM    7  C4  UNL     1      30.831  23.859 -44.487  1.00  0.00     0.068 A
HETATM    8  C5  UNL     1      31.642  24.438 -43.538  1.00  0.00     0.084 A
HETATM    9  C6  UNL     1      31.135  25.521 -42.810  1.00  0.00     0.052 A
HETATM   10  O12 UNL     1      32.921  23.952 -43.318  1.00  0.00    -0.340 OA
HETATM   11  C17 UNL     1      31.965  26.184 -41.776  1.00  0.00     0.194 C
HETATM   12  C18 UNL     1      33.453  25.844 -41.911  1.00  0.00     0.113 C
HETATM   13  C19 UNL     1      34.019  26.726 -42.975  1.00  0.00     0.052 C
HETATM   14  C20 UNL     1      33.628  24.367 -42.194  1.00  0.00     0.189 C
BRANCH   6  15
HETATM   15  C3  UNL     1      28.742  23.662 -45.746  1.00  0.00     0.305 C
BRANCH  15  16
HETATM   16  O1  UNL     1      29.016  24.134 -47.025  1.00  0.00    -0.366 OA
ATOM     17  H1  UNL     1      28.305  24.658 -47.376  1.00  0.00     0.213 HD
ENDBRANCH  15  16
BRANCH  15  18
HETATM   18  O2  UNL     1      29.091  22.314 -45.751  1.00  0.00    -0.366 OA
ATOM     19  H2  UNL     1      29.598  22.151 -46.539  1.00  0.00     0.213 HD
ENDBRANCH  15  18
ENDBRANCH   6  15
BRANCH  11  20
HETATM   20  O9  UNL     1      31.559  25.657 -40.527  1.00  0.00    -0.388 OA
ATOM     21  H9  UNL     1      32.335  25.621 -39.980  1.00  0.00     0.210 HD
ENDBRANCH  11  20
BRANCH  12  22
HETATM   22  O10 UNL     1      34.054  26.105 -40.684  1.00  0.00    -0.385 OA
ATOM     23  H10 UNL     1      34.540  26.917 -40.771  1.00  0.00     0.210 HD
ENDBRANCH  12  22
BRANCH  14  24
HETATM   24  C21 UNL     1      35.081  24.044 -42.283  1.00  0.00     0.199 C
BRANCH  24  25
HETATM   25  O11 UNL     1      35.536  23.488 -41.082  1.00  0.00    -0.398 OA
ATOM     26  H11 UNL     1      35.928  22.636 -41.234  1.00  0.00     0.209 HD
ENDBRANCH  24  25
ENDBRANCH  14  24
ENDBRANCH   1   3
BRANCH   1  27
HETATM   27  N3  UNL     1      28.814  27.361 -41.299  1.00  0.00    -0.332 N
ATOM     28  H3  UNL     1      29.208  27.050 -40.411  1.00  0.00     0.180 HD
BRANCH  27  29
HETATM   29  C8  UNL     1      27.668  28.284 -41.324  1.00  0.00     0.177 C
BRANCH  29  30
HETATM   30  C9  UNL     1      26.513  27.581 -40.602  1.00  0.00     0.195 C
BRANCH  30  31
HETATM   31  O3  UNL     1      26.627  26.234 -40.951  1.00  0.00    -0.387 OA
ATOM     32  H3  UNL     1      26.254  25.754 -40.221  1.00  0.00     0.210 HD
ENDBRANCH  30  31
BRANCH  30  33
HETATM   33  C10 UNL     1      26.671  27.720 -39.133  1.00  0.00     0.099 A
HETATM   34  O4  UNL     1      27.756  27.273 -38.593  1.00  0.00    -0.310 OA
HETATM   35  C11 UNL     1      28.006  27.337 -37.316  1.00  0.00     0.111 A
HETATM   36  C13 UNL     1      27.098  27.899 -36.473  1.00  0.00     0.093 A
HETATM   37  C14 UNL     1      25.904  28.403 -36.984  1.00  0.00     0.188 A
HETATM   38  O7  UNL     1      25.081  28.913 -36.209  1.00  0.00    -0.287 OA
HETATM   39  C15 UNL     1      25.686  28.312 -38.338  1.00  0.00     0.064 A
BRANCH  35  40
HETATM   40  C12 UNL     1      29.310  26.778 -36.821  1.00  0.00     0.312 C
BRANCH  40  41
HETATM   41  O5  UNL     1      30.151  26.580 -37.890  1.00  0.00    -0.365 OA
ATOM     42  H5  UNL     1      30.927  26.118 -37.594  1.00  0.00     0.213 HD
ENDBRANCH  40  41
BRANCH  40  43
HETATM   43  O6  UNL     1      28.980  25.586 -36.163  1.00  0.00    -0.365 OA
ATOM     44  H6  UNL     1      29.744  25.363 -35.644  1.00  0.00     0.213 HD
ENDBRANCH  40  43
ENDBRANCH  35  40
BRANCH  39  45
HETATM   45  C16 UNL     1      24.478  28.812 -38.994  1.00  0.00     0.132 C
HETATM   46  N4  UNL     1      23.323  28.867 -38.584  1.00  0.00    -0.279 N
ATOM     47  H4  UNL     1      22.778  29.281 -39.341  1.00  0.00     0.193 HD
BRANCH  46  48
HETATM   48  O8  UNL     1      22.487  28.642 -37.635  1.00  0.00    -0.290 OA
ATOM     49  H8  UNL     1      21.586  28.642 -37.334  1.00  0.00     0.244 HD
ENDBRANCH  46  48
ENDBRANCH  39  45
ENDBRANCH  30  33
ENDBRANCH  29  30
ENDBRANCH  27  29
ENDBRANCH   1  27
TORSDOF 18
ENDMDL