MODEL 3
REMARK VINA RESULT: -5.882876767      1.663      3.560
REMARK  20 active torsions:
REMARK  status: ('A' for Active; 'I' for Inactive)
REMARK    1  A    between atoms: O1_2  and  C2_3
REMARK    2  A    between atoms: C2_3  and  C3_5
REMARK    3  A    between atoms: C3_5  and  O3_6
REMARK    4  A    between atoms: C5_9  and  O4_10
REMARK    5  A    between atoms: O4_10  and  C6_11
REMARK    6  A    between atoms: C7_13  and  C8_14
REMARK    7  A    between atoms: C7_13  and  C9_17
REMARK    8  A    between atoms: C8_14  and  O6_15
REMARK    9  A    between atoms: C9_17  and  O7_18
REMARK   10  A    between atoms: C9_17  and  C10_20
REMARK   11  A    between atoms: C10_20  and  O8_21
REMARK   12  A    between atoms: C10_20  and  O9_23
REMARK   13  A    between atoms: C11_26  and  C12_27
REMARK   14  A    between atoms: C12_27  and  O11_28
REMARK   15  A    between atoms: C12_27  and  O12_30
REMARK   16  A    between atoms: C14_33  and  O13_34
REMARK   17  A    between atoms: C15_36  and  O14_37
REMARK   18  A    between atoms: C16_39  and  C17_40
REMARK   19  A    between atoms: C17_40  and  O15_41
REMARK   20  A    between atoms: C18_43  and  O16_44
ROOT
HETATM    1  C3  UNL     1      31.592  29.554 -47.093  1.00  0.00     0.170 A
HETATM    2  C4  UNL     1      31.627  28.434 -46.143  1.00  0.00     0.059 A
HETATM    3  C5  UNL     1      31.278  27.199 -46.427  1.00  0.00     0.085 A
HETATM    4  C13 UNL     1      30.813  26.853 -47.767  1.00  0.00     0.042 A
HETATM    5  C14 UNL     1      30.460  25.532 -48.038  1.00  0.00     0.113 A
HETATM    6  C15 UNL     1      30.035  25.225 -49.305  1.00  0.00     0.111 A
HETATM    7  C16 UNL     1      29.964  26.209 -50.274  1.00  0.00     0.035 A
HETATM    8  C18 UNL     1      30.308  27.486 -49.998  1.00  0.00     0.084 A
HETATM    9  C19 UNL     1      30.744  27.822 -48.714  1.00  0.00    -0.005 A
HETATM   10  C20 UNL     1      31.105  29.222 -48.438  1.00  0.00     0.095 A
ENDROOT
BRANCH   3  11
HETATM   11  O4  UNL     1      31.332  26.173 -45.481  1.00  0.00    -0.317 OA
BRANCH  11  12
HETATM   12  C6  UNL     1      30.535  26.320 -44.342  1.00  0.00     0.304 C
HETATM   13  O5  UNL     1      29.317  25.648 -44.453  1.00  0.00    -0.317 OA
HETATM   14  C7  UNL     1      28.878  25.467 -43.117  1.00  0.00     0.220 C
HETATM   15  O10 UNL     1      29.961  25.671 -42.300  1.00  0.00    -0.336 OA
HETATM   16  C11 UNL     1      31.093  25.675 -43.115  1.00  0.00     0.235 C
BRANCH  14  17
HETATM   17  C8  UNL     1      28.420  24.028 -42.936  1.00  0.00     0.235 C
BRANCH  17  18
HETATM   18  O6  UNL     1      27.538  23.676 -43.980  1.00  0.00    -0.395 OA
ATOM     19  H6  UNL     1      26.829  23.148 -43.635  1.00  0.00     0.209 HD
ENDBRANCH  17  18
ENDBRANCH  14  17
BRANCH  14  20
HETATM   20  C9  UNL     1      27.769  26.459 -42.952  1.00  0.00     0.237 C
BRANCH  20  21
HETATM   21  O7  UNL     1      26.814  25.931 -42.098  1.00  0.00    -0.385 OA
ATOM     22  H7  UNL     1      26.005  25.801 -42.579  1.00  0.00     0.210 HD
ENDBRANCH  20  21
BRANCH  20  23
HETATM   23  C10 UNL     1      28.172  27.848 -42.623  1.00  0.00     0.287 C
BRANCH  23  24
HETATM   24  O8  UNL     1      27.229  28.465 -41.810  1.00  0.00    -0.369 OA
ATOM     25  H8  UNL     1      27.451  29.376 -41.659  1.00  0.00     0.212 HD
ENDBRANCH  23  24
BRANCH  23  26
HETATM   26  O9  UNL     1      28.169  28.574 -43.835  1.00  0.00    -0.369 OA
ATOM     27  H9  UNL     1      27.326  28.422 -44.246  1.00  0.00     0.212 HD
ENDBRANCH  23  26
ENDBRANCH  20  23
ENDBRANCH  14  20
BRANCH  16  28
HETATM   28  C12 UNL     1      32.229  26.452 -42.498  1.00  0.00     0.287 C
BRANCH  28  29
HETATM   29  O11 UNL     1      31.976  27.805 -42.746  1.00  0.00    -0.369 OA
ATOM     30  H11 UNL     1      32.223  28.280 -41.960  1.00  0.00     0.212 HD
ENDBRANCH  28  29
BRANCH  28  31
HETATM   31  O12 UNL     1      33.389  26.112 -43.193  1.00  0.00    -0.369 OA
ATOM     32  H12 UNL     1      33.942  26.884 -43.212  1.00  0.00     0.212 HD
ENDBRANCH  28  31
ENDBRANCH  16  28
ENDBRANCH  11  12
ENDBRANCH   3  11
BRANCH   1  33
HETATM   33  C2  UNL     1      30.742  30.678 -46.558  1.00  0.00     0.297 C
HETATM   34  O2  UNL     1      30.762  31.770 -47.163  1.00  0.00    -0.261 OA
BRANCH  33  35
HETATM   35  O1  UNL     1      29.950  30.548 -45.437  1.00  0.00    -0.324 OA
HETATM   36  C1  UNL     1      29.953  31.596 -44.486  1.00  0.00     0.213 C
ENDBRANCH  33  35
ENDBRANCH   1  33
BRANCH   1  37
HETATM   37  O3  UNL     1      32.944  30.026 -47.149  1.00  0.00    -0.375 OA
ATOM     38  H3  UNL     1      33.332  29.688 -47.947  1.00  0.00     0.211 HD
ENDBRANCH   1  37
BRANCH   5  39
HETATM   39  O13 UNL     1      30.561  24.608 -47.012  1.00  0.00    -0.357 OA
ATOM     40  H13 UNL     1      30.375  23.698 -47.211  1.00  0.00     0.217 HD
ENDBRANCH   5  39
BRANCH   6  41
HETATM   41  O14 UNL     1      29.676  23.947 -49.628  1.00  0.00    -0.357 OA
ATOM     42  H14 UNL     1      28.763  23.687 -49.634  1.00  0.00     0.217 HD
ENDBRANCH   6  41
BRANCH   8  43
HETATM   43  O16 UNL     1      30.240  28.476 -50.961  1.00  0.00    -0.359 OA
ATOM     44  H16 UNL     1      29.941  29.353 -50.751  1.00  0.00     0.217 HD
ENDBRANCH   8  43
BRANCH   7  45
HETATM   45  C17 UNL     1      29.495  25.828 -51.636  1.00  0.00     0.208 C
BRANCH  45  46
HETATM   46  O15 UNL     1      28.186  25.400 -51.565  1.00  0.00    -0.396 OA
ATOM     47  H15 UNL     1      27.611  26.097 -51.857  1.00  0.00     0.209 HD
ENDBRANCH  45  46
ENDBRANCH   7  45
TORSDOF 20
ENDMDL