MODEL 4
REMARK VINA RESULT: -6.937409869      1.766      2.654
REMARK  14 active torsions:
REMARK  status: ('A' for Active; 'I' for Inactive)
REMARK    1  A    between atoms: N1_2  and  C2_3
REMARK    2  A    between atoms: N1_2  and  N7_28
REMARK    3  A    between atoms: C5_6  and  C6_7
REMARK    4  A    between atoms: C10_15  and  N3_16
REMARK    5  A    between atoms: C13_29  and  C14_30
REMARK    6  A    between atoms: C14_30  and  O4_31
REMARK    7  A    between atoms: C14_30  and  N8_33
REMARK    8  A    between atoms: N8_33  and  C15_36
REMARK    9  A    between atoms: C15_36  and  O5_37
REMARK   10  A    between atoms: C15_36  and  C16_39
REMARK   11  A    between atoms: C16_39  and  O6_40
REMARK   12  A    between atoms: C16_39  and  C17_42
REMARK   13  A    between atoms: C17_42  and  O7_43
REMARK   14  A    between atoms: C18_47  and  N10_48
ROOT
HETATM    1  N7  UNL     1      30.265  26.434 -43.305  1.00  0.00    -0.065 N
HETATM    2  C13 UNL     1      30.029  25.303 -43.972  1.00  0.00     0.194 A
HETATM    3  N9  UNL     1      31.072  24.460 -44.075  1.00  0.00    -0.173 N
ATOM      4  H9  UNL     1      30.912  23.589 -44.582  1.00  0.00     0.185 HD
HETATM    5  C18 UNL     1      32.289  24.653 -43.580  1.00  0.00     0.692 A
HETATM    6  N11 UNL     1      32.502  25.801 -42.912  1.00  0.00    -0.021 N
ATOM      7  H11 UNL     1      33.424  25.986 -42.517  1.00  0.00     0.203 HD
HETATM    8  C19 UNL     1      31.508  26.728 -42.751  1.00  0.00     0.713 A
HETATM    9  N12 UNL     1      31.618  27.776 -42.165  1.00  0.00    -0.232 N
ATOM     10 1H12 UNL     1      32.528  27.991 -41.759  1.00  0.00     0.174 HD
ATOM     11 2H12 UNL     1      30.877  28.468 -42.044  1.00  0.00     0.174 HD
ENDROOT
BRANCH   1  12
HETATM   12  N1  UNL     1      29.277  27.391 -43.092  1.00  0.00    -0.257 N
HETATM   13  C1  UNL     1      28.912  28.356 -44.109  1.00  0.00     0.181 C
BRANCH  12  14
HETATM   14  C2  UNL     1      28.598  27.525 -41.859  1.00  0.00     0.137 A
HETATM   15  C3  UNL     1      28.838  28.598 -41.073  1.00  0.00     0.054 A
HETATM   16  C4  UNL     1      28.211  28.725 -39.860  1.00  0.00     0.036 A
HETATM   17  C5  UNL     1      27.335  27.753 -39.452  1.00  0.00     0.059 A
HETATM   18  N5  UNL     1      27.123  26.701 -40.264  1.00  0.00    -0.298 N
HETATM   19  N6  UNL     1      27.746  26.586 -41.455  1.00  0.00    -0.284 N
ATOM     20  H5  UNL     1      26.472  25.971 -39.972  1.00  0.00     0.187 HD
ATOM     21  H6  UNL     1      27.563  25.777 -42.048  1.00  0.00     0.188 HD
BRANCH  17  22
HETATM   22  C6  UNL     1      26.769  27.782 -38.118  1.00  0.00     0.018 A
HETATM   23  C7  UNL     1      27.587  27.339 -37.063  1.00  0.00     0.097 A
HETATM   24  C8  UNL     1      27.078  27.334 -35.804  1.00  0.00     0.290 A
HETATM   25  O1  UNL     1      27.738  26.953 -34.809  1.00  0.00    -0.260 OA
HETATM   26  O2  UNL     1      25.840  27.734 -35.567  1.00  0.00    -0.257 OA
HETATM   27  C9  UNL     1      25.033  28.151 -36.487  1.00  0.00     0.183 A
HETATM   28  N2  UNL     1      23.792  28.533 -36.171  1.00  0.00    -0.169 N
HETATM   29  C12 UNL     1      25.485  28.187 -37.821  1.00  0.00     0.097 A
HETATM   30  C10 UNL     1      22.922  28.964 -37.125  1.00  0.00     0.680 A
ATOM     31  H2  UNL     1      23.492  28.502 -35.197  1.00  0.00     0.186 HD
HETATM   32  N4  UNL     1      23.373  28.987 -38.410  1.00  0.00    -0.155 N
HETATM   33  C11 UNL     1      24.609  28.613 -38.759  1.00  0.00     0.275 A
ATOM     34  H4  UNL     1      22.737  29.305 -39.142  1.00  0.00     0.187 HD
HETATM   35  O3  UNL     1      24.945  28.660 -39.984  1.00  0.00    -0.267 OA
BRANCH  30  36
HETATM   36  N3  UNL     1      21.786  29.305 -36.838  1.00  0.00    -0.234 N
ATOM     37  H32 UNL     1      21.438  29.256 -35.880  1.00  0.00     0.174 HD
ATOM     38  H31 UNL     1      21.145  29.659 -37.548  1.00  0.00     0.174 HD
ENDBRANCH  30  36
ENDBRANCH  17  22
ENDBRANCH  12  14
ENDBRANCH   1  12
BRANCH   2  39
HETATM   39  C14 UNL     1      28.709  25.001 -44.564  1.00  0.00     0.393 C
BRANCH  39  40
HETATM   40  O4  UNL     1      27.816  24.387 -43.720  1.00  0.00    -0.364 OA
ATOM     41  H4  UNL     1      27.548  23.513 -43.981  1.00  0.00     0.212 HD
ENDBRANCH  39  40
BRANCH  39  42
HETATM   42  N8  UNL     1      28.955  24.030 -45.659  1.00  0.00    -0.013 N
ATOM     43  H82 UNL     1      29.812  23.497 -45.514  1.00  0.00     0.283 HD
ATOM     44  H81 UNL     1      28.294  23.253 -45.639  1.00  0.00     0.283 HD
BRANCH  42  45
HETATM   45  C15 UNL     1      28.950  24.715 -46.928  1.00  0.00     0.353 C
BRANCH  45  46
HETATM   46  O5  UNL     1      28.322  23.832 -47.843  1.00  0.00    -0.368 OA
ATOM     47  H5  UNL     1      27.645  24.342 -48.274  1.00  0.00     0.212 HD
ENDBRANCH  45  46
BRANCH  45  48
HETATM   48  C16 UNL     1      30.358  24.883 -47.456  1.00  0.00     0.198 C
BRANCH  48  49
HETATM   49  O6  UNL     1      31.031  23.695 -47.091  1.00  0.00    -0.389 OA
ATOM     50  H6  UNL     1      30.416  22.995 -47.276  1.00  0.00     0.210 HD
ENDBRANCH  48  49
BRANCH  48  51
HETATM   51  C17 UNL     1      30.423  24.915 -48.970  1.00  0.00     0.200 C
BRANCH  51  52
HETATM   52  O7  UNL     1      30.730  23.668 -49.471  1.00  0.00    -0.398 OA
ATOM     53  H7  UNL     1      31.079  23.108 -48.788  1.00  0.00     0.209 HD
ENDBRANCH  51  52
ENDBRANCH  48  51
ENDBRANCH  45  48
ENDBRANCH  42  45
ENDBRANCH  39  42
ENDBRANCH   2  39
BRANCH   5  54
HETATM   54  N10 UNL     1      33.271  23.838 -43.686  1.00  0.00    -0.234 N
ATOM     55 2H10 UNL     1      33.272  23.018 -43.080  1.00  0.00     0.174 HD
ATOM     56 1H10 UNL     1      34.056  23.939 -44.330  1.00  0.00     0.174 HD
ENDBRANCH   5  54
TORSDOF 14
ENDMDL