MODEL 5
REMARK VINA RESULT: -6.255167570      1.731      2.080
REMARK  17 active torsions:
REMARK  status: ('A' for Active; 'I' for Inactive)
REMARK    1  A    between atoms: C2_2  and  C3_4
REMARK    2  A    between atoms: C3_4  and  C4_5
REMARK    3  A    between atoms: C3_4  and  N1_8
REMARK    4  A    between atoms: C4_5  and  O2_6
REMARK    5  A    between atoms: N1_8  and  C5_10
REMARK    6  A    between atoms: C5_10  and  C6_11
REMARK    7  A    between atoms: C6_11  and  O3_12
REMARK    8  A    between atoms: C6_11  and  O4_14
REMARK    9  A    between atoms: O4_14  and  C7_15
REMARK   10  A    between atoms: C8_16  and  N2_17
REMARK   11  A    between atoms: C10_22  and  N3_23
REMARK   12  A    between atoms: C11_27  and  O5_28
REMARK   13  A    between atoms: C12_30  and  O6_31
REMARK   14  A    between atoms: O6_31  and  C13_32
REMARK   15  A    between atoms: C15_39  and  C16_40
REMARK   16  A    between atoms: C17_42  and  N6_43
REMARK   17  A    between atoms: C18_48  and  O7_49
ROOT
HETATM    1  C7  UNL     1      31.048  26.087 -45.443  1.00  0.00     0.187 C
HETATM    2  C8  UNL     1      32.482  26.639 -45.010  1.00  0.00     0.217 C
HETATM    3  C9  UNL     1      33.092  25.677 -44.059  1.00  0.00     0.071 C
HETATM    4  C10 UNL     1      32.280  25.308 -42.869  1.00  0.00     0.216 C
HETATM    5  C11 UNL     1      30.905  24.866 -43.311  1.00  0.00     0.180 C
HETATM    6  C12 UNL     1      30.338  26.002 -44.152  1.00  0.00     0.192 C
ENDROOT
BRANCH   6   7
HETATM    7  O6  UNL     1      28.980  26.122 -44.087  1.00  0.00    -0.324 OA
BRANCH   7   8
HETATM    8  C13 UNL     1      28.248  26.273 -42.955  1.00  0.00     0.168 A
HETATM    9  N4  UNL     1      27.039  25.990 -42.660  1.00  0.00    -0.336 N
HETATM   10  C14 UNL     1      26.955  26.410 -41.329  1.00  0.00     0.344 A
ATOM     11  H4  UNL     1      26.319  25.566 -43.245  1.00  0.00     0.164 HD
HETATM   12  N5  UNL     1      26.248  27.580 -40.907  1.00  0.00    -0.024 N
HETATM   13  C19 UNL     1      28.406  26.788 -41.594  1.00  0.00     0.123 A
HETATM   14  C15 UNL     1      26.921  28.192 -39.755  1.00  0.00     0.345 C
ATOM     15  H52 UNL     1      26.120  28.244 -41.671  1.00  0.00     0.282 HD
ATOM     16  H51 UNL     1      25.266  27.382 -40.714  1.00  0.00     0.282 HD
HETATM   17  N8  UNL     1      28.170  27.477 -39.435  1.00  0.00    -0.102 NA
HETATM   18  N9  UNL     1      29.009  27.307 -40.580  1.00  0.00    -0.298 N
ATOM     19  H9  UNL     1      29.994  27.572 -40.593  1.00  0.00     0.182 HD
BRANCH  14  20
HETATM   20  C16 UNL     1      26.056  28.119 -38.544  1.00  0.00     0.085 A
HETATM   21  S1  UNL     1      25.254  29.326 -37.650  1.00  0.00    -0.051 SA
HETATM   22  C17 UNL     1      24.551  28.334 -36.458  1.00  0.00     0.144 A
HETATM   23  N7  UNL     1      24.961  27.113 -36.797  1.00  0.00    -0.317 N
HETATM   24  C18 UNL     1      25.729  26.982 -37.857  1.00  0.00     0.159 A
ATOM     25  H7  UNL     1      24.686  26.299 -36.248  1.00  0.00     0.170 HD
BRANCH  22  26
HETATM   26  N6  UNL     1      23.784  28.668 -35.437  1.00  0.00    -0.380 N
ATOM     27  H62 UNL     1      23.632  29.601 -35.056  1.00  0.00     0.158 HD
ATOM     28  H61 UNL     1      23.206  28.075 -34.842  1.00  0.00     0.158 HD
ENDBRANCH  22  26
BRANCH  24  29
HETATM   29  O7  UNL     1      26.202  25.696 -38.272  1.00  0.00    -0.345 OA
ATOM     30  H7  UNL     1      25.875  24.897 -37.877  1.00  0.00     0.219 HD
ENDBRANCH  24  29
ENDBRANCH  14  20
ENDBRANCH   7   8
ENDBRANCH   6   7
BRANCH   1  31
HETATM   31  O4  UNL     1      31.296  24.874 -46.051  1.00  0.00    -0.347 OA
BRANCH  31  32
HETATM   32  C6  UNL     1      30.608  24.716 -47.279  1.00  0.00     0.297 C
BRANCH  32  33
HETATM   33  C5  UNL     1      30.037  25.950 -47.826  1.00  0.00     0.116 C
BRANCH  33  34
HETATM   34  N1  UNL     1      29.532  26.032 -49.104  1.00  0.00    -0.385 N
ATOM     35  H1  UNL     1      28.519  25.947 -49.178  1.00  0.00     0.159 HD
BRANCH  34  36
HETATM   36  C3  UNL     1      30.194  26.211 -50.294  1.00  0.00     0.173 C
BRANCH  36  37
HETATM   37  C2  UNL     1      30.119  27.408 -51.101  1.00  0.00     0.147 C
HETATM   38  C1  UNL     1      30.736  28.679 -50.541  1.00  0.00     0.093 C
HETATM   39  O1  UNL     1      29.621  27.522 -52.179  1.00  0.00    -0.296 OA
ENDBRANCH  36  37
BRANCH  36  40
HETATM   40  C4  UNL     1      29.914  24.998 -51.264  1.00  0.00     0.196 C
BRANCH  40  41
HETATM   41  O2  UNL     1      28.582  25.008 -51.603  1.00  0.00    -0.398 OA
ATOM     42  H2  UNL     1      28.295  24.111 -51.732  1.00  0.00     0.209 HD
ENDBRANCH  40  41
ENDBRANCH  36  40
ENDBRANCH  34  36
ENDBRANCH  33  34
ENDBRANCH  32  33
BRANCH  32  43
HETATM   43  O3  UNL     1      29.483  23.921 -46.852  1.00  0.00    -0.366 OA
ATOM     44  H3  UNL     1      29.810  23.368 -46.153  1.00  0.00     0.213 HD
ENDBRANCH  32  43
ENDBRANCH  31  32
ENDBRANCH   1  31
BRANCH   5  45
HETATM   45  O5  UNL     1      31.066  23.685 -44.021  1.00  0.00    -0.391 OA
ATOM     46  H5  UNL     1      31.258  23.924 -44.919  1.00  0.00     0.210 HD
ENDBRANCH   5  45
BRANCH   2  47
HETATM   47  N2  UNL     1      32.288  27.969 -44.528  1.00  0.00    -0.072 N
ATOM     48  H23 UNL     1      31.321  28.285 -44.600  1.00  0.00     0.274 HD
ATOM     49  H22 UNL     1      32.374  28.044 -43.514  1.00  0.00     0.274 HD
ATOM     50  H21 UNL     1      32.944  28.567 -45.031  1.00  0.00     0.274 HD
ENDBRANCH   2  47
BRANCH   4  51
HETATM   51  N3  UNL     1      32.981  24.249 -42.158  1.00  0.00    -0.072 N
ATOM     52  H33 UNL     1      33.467  23.606 -42.784  1.00  0.00     0.274 HD
ATOM     53  H32 UNL     1      33.799  24.588 -41.651  1.00  0.00     0.274 HD
ATOM     54  H31 UNL     1      32.309  23.778 -41.552  1.00  0.00     0.274 HD
ENDBRANCH   4  51
TORSDOF 17
ENDMDL