MODEL 1
REMARK VINA RESULT: -7.200389953      0.000      0.000
REMARK  18 active torsions:
REMARK  status: ('A' for Active; 'I' for Inactive)
REMARK    1  A    between atoms: N1_1  and  C1_4
REMARK    2  A    between atoms: N3_8  and  C3_9
REMARK    3  A    between atoms: C3_9  and  C4_10
REMARK    4  A    between atoms: C4_10  and  O1_11
REMARK    5  A    between atoms: C4_10  and  C5_13
REMARK    6  A    between atoms: C5_13  and  O2_14
REMARK    7  A    between atoms: C5_13  and  C6_16
REMARK    8  A    between atoms: C6_16  and  O4_18
REMARK    9  A    between atoms: O4_18  and  C7_19
REMARK   10  A    between atoms: C7_19  and  C8_20
REMARK   11  A    between atoms: C7_19  and  C9_23
REMARK   12  A    between atoms: C8_20  and  O5_21
REMARK   13  A    between atoms: C13_28  and  O7_29
REMARK   14  A    between atoms: C14_31  and  O8_32
REMARK   15  A    between atoms: C17_36  and  O9_37
REMARK   16  A    between atoms: C17_36  and  C18_39
REMARK   17  A    between atoms: C18_39  and  O10_40
REMARK   18  A    between atoms: C20_46  and  N6_47
ROOT
HETATM    1  C6  UNL     1      28.443  25.184 -42.568  1.00  0.00     0.290 C
HETATM    2  O3  UNL     1      27.385  24.856 -42.006  1.00  0.00    -0.262 OA
ENDROOT
BRANCH   1   3
HETATM    3  C5  UNL     1      29.163  24.338 -43.551  1.00  0.00     0.247 C
BRANCH   3   4
HETATM    4  C4  UNL     1      28.612  24.435 -44.928  1.00  0.00     0.175 C
BRANCH   4   5
HETATM    5  C3  UNL     1      29.423  25.191 -45.919  1.00  0.00     0.183 C
BRANCH   5   6
HETATM    6  N3  UNL     1      29.158  24.996 -47.295  1.00  0.00    -0.173 N
HETATM    7  C2  UNL     1      29.539  25.762 -48.330  1.00  0.00     0.736 A
HETATM    8  N2  UNL     1      30.231  26.909 -48.423  1.00  0.00    -0.019 N
HETATM    9  N5  UNL     1      29.103  25.212 -49.492  1.00  0.00     0.092 N
HETATM   10  C1  UNL     1      30.500  27.512 -49.595  1.00  0.00     0.705 A
ATOM     11  H2  UNL     1      30.569  27.344 -47.564  1.00  0.00     0.203 HD
HETATM   12  N7  UNL     1      30.044  26.922 -50.713  1.00  0.00    -0.020 N
HETATM   13  C20 UNL     1      29.348  25.780 -50.690  1.00  0.00     0.727 A
ATOM     14  H7  UNL     1      30.235  27.362 -51.613  1.00  0.00     0.203 HD
HETATM   15  N4  UNL     1      28.464  24.119 -49.151  1.00  0.00    -0.260 N
HETATM   16  C19 UNL     1      28.483  23.965 -47.828  1.00  0.00     0.219 A
ATOM     17  H4  UNL     1      28.016  23.478 -49.806  1.00  0.00     0.189 HD
BRANCH  10  18
HETATM   18  N1  UNL     1      31.171  28.620 -49.666  1.00  0.00    -0.234 N
ATOM     19  H12 UNL     1      31.910  28.819 -48.992  1.00  0.00     0.174 HD
ATOM     20  H11 UNL     1      30.989  29.321 -50.383  1.00  0.00     0.174 HD
ENDBRANCH  10  18
BRANCH  13  21
HETATM   21  N6  UNL     1      28.907  25.209 -51.777  1.00  0.00    -0.232 N
ATOM     22  H62 UNL     1      27.915  25.034 -51.938  1.00  0.00     0.174 HD
ATOM     23  H61 UNL     1      29.567  24.922 -52.500  1.00  0.00     0.174 HD
ENDBRANCH  13  21
ENDBRANCH   5   6
ENDBRANCH   4   5
BRANCH   4  24
HETATM   24  O1  UNL     1      27.357  25.122 -44.916  1.00  0.00    -0.391 OA
ATOM     25  H1  UNL     1      26.873  24.700 -44.215  1.00  0.00     0.210 HD
ENDBRANCH   4  24
ENDBRANCH   3   4
BRANCH   3  26
HETATM   26  O2  UNL     1      29.175  23.048 -43.048  1.00  0.00    -0.383 OA
ATOM     27  H2  UNL     1      29.885  22.885 -42.437  1.00  0.00     0.210 HD
ENDBRANCH   3  26
ENDBRANCH   1   3
BRANCH   1  28
HETATM   28  O4  UNL     1      28.995  26.416 -42.266  1.00  0.00    -0.311 OA
BRANCH  28  29
HETATM   29  C7  UNL     1      28.250  27.648 -42.623  1.00  0.00     0.165 C
BRANCH  29  30
HETATM   30  C8  UNL     1      29.087  28.244 -43.701  1.00  0.00     0.197 C
BRANCH  30  31
HETATM   31  O5  UNL     1      29.000  29.593 -43.926  1.00  0.00    -0.398 OA
ATOM     32  H5  UNL     1      28.850  29.895 -44.814  1.00  0.00     0.209 HD
ENDBRANCH  30  31
ENDBRANCH  29  30
BRANCH  29  33
HETATM   33  C9  UNL     1      28.153  28.347 -41.315  1.00  0.00     0.083 C
HETATM   34  C10 UNL     1      29.505  28.049 -40.624  1.00  0.00     0.186 C
HETATM   35  O6  UNL     1      29.551  28.502 -39.296  1.00  0.00    -0.350 OA
HETATM   36  C11 UNL     1      28.586  27.951 -38.441  1.00  0.00     0.081 A
HETATM   37  C12 UNL     1      28.834  27.624 -37.130  1.00  0.00     0.076 A
HETATM   38  C16 UNL     1      27.371  27.754 -38.999  1.00  0.00     0.015 A
HETATM   39  C13 UNL     1      27.833  27.079 -36.331  1.00  0.00     0.101 A
HETATM   40  C14 UNL     1      26.594  26.871 -36.882  1.00  0.00     0.099 A
HETATM   41  C15 UNL     1      26.378  27.216 -38.222  1.00  0.00     0.052 A
HETATM   42  C17 UNL     1      27.009  28.115 -40.426  1.00  0.00     0.117 C
BRANCH  39  43
HETATM   43  O7  UNL     1      28.075  26.747 -35.011  1.00  0.00    -0.358 OA
ATOM     44  H7  UNL     1      27.794  25.912 -34.655  1.00  0.00     0.217 HD
ENDBRANCH  39  43
BRANCH  40  45
HETATM   45  O8  UNL     1      25.563  26.335 -36.151  1.00  0.00    -0.358 OA
ATOM     46  H8  UNL     1      24.917  25.761 -36.548  1.00  0.00     0.217 HD
ENDBRANCH  40  45
BRANCH  42  47
HETATM   47  O9  UNL     1      26.122  27.109 -40.794  1.00  0.00    -0.382 OA
ATOM     48  H9  UNL     1      25.645  26.679 -40.093  1.00  0.00     0.211 HD
ENDBRANCH  42  47
BRANCH  42  49
HETATM   49  C18 UNL     1      26.201  29.426 -40.241  1.00  0.00     0.207 C
BRANCH  49  50
HETATM   50  O10 UNL     1      26.992  30.551 -40.240  1.00  0.00    -0.398 OA
ATOM     51  H10 UNL     1      26.923  31.056 -41.042  1.00  0.00     0.209 HD
ENDBRANCH  49  50
ENDBRANCH  42  49
ENDBRANCH  29  33
ENDBRANCH  28  29
ENDBRANCH   1  28
TORSDOF 18
ENDMDL