MODEL 2
REMARK VINA RESULT: -7.188847239      2.370      6.136
REMARK  3 active torsions:
REMARK  status: ('A' for Active; 'I' for Inactive)
REMARK    1  A    between atoms: N1_2  and  S1_5
REMARK    2  A    between atoms: S1_5  and  C3_8
REMARK    3  A    between atoms: C5_12  and  C6_13
ROOT
HETATM    1  C1  UNL     1      -4.577  25.366  -9.935  1.00  0.00     0.183 C
HETATM    2  N1  UNL     1      -5.475  24.570 -10.740  1.00  0.00    -0.212 N
HETATM    3  C2  UNL     1      -6.170  25.159 -11.800  1.00  0.00     0.194 C
HETATM    4  N2  UNL     1      -6.743  25.644 -12.684  1.00  0.00    -0.171 NA
ENDROOT
BRANCH   2   5
HETATM    5  S1  UNL     1      -5.663  22.916 -10.371  1.00  0.00     0.277 S
HETATM    6  O1  UNL     1      -5.669  22.149 -11.681  1.00  0.00    -0.199 OA
HETATM    7  O2  UNL     1      -6.949  22.612  -9.678  1.00  0.00    -0.199 OA
BRANCH   5   8
HETATM    8  C3  UNL     1      -4.306  22.338  -9.359  1.00  0.00     0.137 A
HETATM    9  C4  UNL     1      -4.450  22.272  -7.993  1.00  0.00     0.113 A
HETATM   10  N3  UNL     1      -5.601  22.618  -7.208  1.00  0.00    -0.093 NA
HETATM   11  S2  UNL     1      -2.924  21.677  -7.496  1.00  0.00    -0.069 SA
HETATM   12  C5  UNL     1      -2.165  21.534  -9.009  1.00  0.00     0.065 A
HETATM   13  C8  UNL     1      -3.133  21.961  -9.879  1.00  0.00     0.091 A
HETATM   14  N7  UNL     1      -2.832  21.975 -11.300  1.00  0.00    -0.099 NA
BRANCH  12  15
HETATM   15  C6  UNL     1      -0.813  21.072  -9.301  1.00  0.00     0.121 A
HETATM   16  N4  UNL     1       0.255  21.860  -9.541  1.00  0.00    -0.237 N
HETATM   17  O3  UNL     1       1.310  21.131  -9.766  1.00  0.00    -0.155 OA
ATOM     18  H4  UNL     1       0.238  22.880  -9.546  1.00  0.00     0.197 HD
HETATM   19  N5  UNL     1       0.998  19.866  -9.690  1.00  0.00    -0.224 N
HETATM   20  C7  UNL     1      -0.324  19.798  -9.400  1.00  0.00     0.151 A
ATOM     21  H5  UNL     1       1.630  19.076  -9.823  1.00  0.00     0.198 HD
HETATM   22  N6  UNL     1      -0.941  18.694  -9.257  1.00  0.00    -0.382 N
ATOM     23  H62 UNL     1      -1.937  18.644  -9.039  1.00  0.00     0.157 HD
ATOM     24  H61 UNL     1      -0.577  17.744  -9.330  1.00  0.00     0.157 HD
ENDBRANCH  12  15
ENDBRANCH   5   8
ENDBRANCH   2   5
TORSDOF 3
ENDMDL