MODEL 1
REMARK VINA RESULT: -5.514511101      0.000      0.000
REMARK  6 active torsions:
REMARK  status: ('A' for Active; 'I' for Inactive)
REMARK    1  A    between atoms: O1_2  and  C2_3
REMARK    2  A    between atoms: C2_3  and  C3_5
REMARK    3  A    between atoms: C5_9  and  N2_10
REMARK    4  A    between atoms: N2_10  and  C6_12
REMARK    5  A    between atoms: C9_17  and  N4_18
REMARK    6  A    between atoms: C11_27  and  N8_28
ROOT
HETATM    1  C3  UNL     1      -6.317  24.261 -11.344  1.00  0.00     0.099 A
HETATM    2  C4  UNL     1      -5.446  25.074 -10.657  1.00  0.00     0.127 A
HETATM    3  N1  UNL     1      -4.687  24.556  -9.678  1.00  0.00    -0.200 N
ATOM      4  H1  UNL     1      -4.045  25.166  -9.173  1.00  0.00     0.183 HD
HETATM    5  C5  UNL     1      -4.748  23.254  -9.343  1.00  0.00     0.698 A
HETATM    6  N7  UNL     1      -5.601  22.476 -10.024  1.00  0.00    -0.175 N
ATOM      7  H7  UNL     1      -5.657  21.486  -9.781  1.00  0.00     0.186 HD
HETATM    8  C11 UNL     1      -6.383  22.937 -11.009  1.00  0.00     0.132 A
ENDROOT
BRANCH   5   9
HETATM    9  N2  UNL     1      -3.923  22.740  -8.300  1.00  0.00    -0.022 N
ATOM     10  H2  UNL     1      -4.178  22.917  -7.328  1.00  0.00     0.203 HD
BRANCH   9  11
HETATM   11  C6  UNL     1      -2.851  22.048  -8.560  1.00  0.00     0.698 A
HETATM   12  N3  UNL     1      -1.757  22.668  -9.028  1.00  0.00    -0.193 N
HETATM   13  C7  UNL     1      -0.619  21.970  -9.310  1.00  0.00     0.059 A
ATOM     14  H3  UNL     1      -1.776  23.678  -9.175  1.00  0.00     0.184 HD
HETATM   15  C8  UNL     1       0.599  22.651  -9.826  1.00  0.00     0.071 C
HETATM   16  C9  UNL     1      -0.558  20.610  -9.124  1.00  0.00     0.167 A
HETATM   17  C10 UNL     1      -1.687  19.983  -8.643  1.00  0.00     0.166 A
HETATM   18  N5  UNL     1      -1.642  18.578  -8.443  1.00  0.00    -0.079 NA
HETATM   19  N6  UNL     1      -2.784  20.717  -8.380  1.00  0.00    -0.176 N
ATOM     20  H6  UNL     1      -3.611  20.237  -8.024  1.00  0.00     0.185 HD
BRANCH  16  21
HETATM   21  N4  UNL     1       0.639  19.912  -9.425  1.00  0.00    -0.110 N
HETATM   22  O3  UNL     1       0.709  18.994 -10.266  1.00  0.00    -0.532 OA
HETATM   23  O4  UNL     1       1.822  20.228  -8.778  1.00  0.00    -0.532 OA
ENDBRANCH  16  21
ENDBRANCH   9  11
ENDBRANCH   5   9
BRANCH   8  24
HETATM   24  N8  UNL     1      -7.207  22.147 -11.656  1.00  0.00    -0.384 N
ATOM     25  H82 UNL     1      -7.899  22.518 -12.308  1.00  0.00     0.157 HD
ATOM     26  H81 UNL     1      -7.159  21.139 -11.507  1.00  0.00     0.157 HD
ENDBRANCH   8  24
BRANCH   1  27
HETATM   27  C2  UNL     1      -7.142  24.799 -12.396  1.00  0.00     0.298 C
HETATM   28  O2  UNL     1      -8.342  25.046 -12.203  1.00  0.00    -0.259 OA
BRANCH  27  29
HETATM   29  O1  UNL     1      -6.631  25.063 -13.661  1.00  0.00    -0.322 OA
HETATM   30  C1  UNL     1      -6.225  26.383 -14.031  1.00  0.00     0.213 C
ENDBRANCH  27  29
ENDBRANCH   1  27
TORSDOF 6
ENDMDL