MODEL 2
REMARK VINA RESULT: -4.989437492      1.817      6.025
REMARK  6 active torsions:
REMARK  status: ('A' for Active; 'I' for Inactive)
REMARK    1  A    between atoms: O1_2  and  C2_3
REMARK    2  A    between atoms: C2_3  and  C3_5
REMARK    3  A    between atoms: C5_9  and  C6_10
REMARK       I    between atoms: C6_10  and  N2_12
REMARK    4  A    between atoms: N2_12  and  N3_14
REMARK    5  A    between atoms: C9_20  and  C10_21
REMARK    6  A    between atoms: C10_21  and  O5_23
ROOT
HETATM    1  C3  UNL     1      -4.870  23.501 -10.395  1.00  0.00     0.183 A
HETATM    2  N1  UNL     1      -4.613  23.955  -9.167  1.00  0.00    -0.335 N
ATOM      3  H1  UNL     1      -5.181  24.641  -8.670  1.00  0.00     0.168 HD
HETATM    4  C4  UNL     1      -3.495  23.379  -8.675  1.00  0.00     0.078 A
HETATM    5  C5  UNL     1      -2.833  23.522  -7.463  1.00  0.00     0.064 A
HETATM    6  C7  UNL     1      -1.701  22.765  -7.293  1.00  0.00     0.047 A
HETATM    7  C8  UNL     1      -1.212  21.901  -8.240  1.00  0.00     0.066 A
HETATM    8  N4  UNL     1      -0.038  21.127  -8.040  1.00  0.00    -0.101 NA
HETATM    9  C9  UNL     1      -1.899  21.774  -9.454  1.00  0.00     0.092 A
HETATM   10  C12 UNL     1      -3.048  22.529  -9.652  1.00  0.00     0.080 A
HETATM   11  N5  UNL     1      -3.903  22.625 -10.686  1.00  0.00    -0.335 N
ATOM     12  H5  UNL     1      -3.826  22.106 -11.561  1.00  0.00     0.168 HD
ENDROOT
BRANCH   5  13
HETATM   13  C6  UNL     1      -3.348  24.436  -6.458  1.00  0.00     0.272 C
HETATM   14  O3  UNL     1      -3.338  25.670  -6.626  1.00  0.00    -0.266 OA
HETATM   15  N2  UNL     1      -3.872  23.900  -5.259  1.00  0.00    -0.272 N
ATOM     16  H2  UNL     1      -3.884  22.891  -5.111  1.00  0.00     0.189 HD
BRANCH  15  17
HETATM   17  N3  UNL     1      -4.367  24.747  -4.289  1.00  0.00    -0.342 N
ATOM     18  H32 UNL     1      -4.273  24.486  -3.307  1.00  0.00     0.176 HD
ATOM     19  H31 UNL     1      -4.819  25.619  -4.562  1.00  0.00     0.176 HD
ENDBRANCH  15  17
ENDBRANCH   5  13
BRANCH   1  20
HETATM   20  C2  UNL     1      -6.004  23.902 -11.244  1.00  0.00     0.327 C
HETATM   21  O2  UNL     1      -7.046  24.380 -10.728  1.00  0.00    -0.256 OA
BRANCH  20  22
HETATM   22  O1  UNL     1      -5.947  23.762 -12.603  1.00  0.00    -0.320 OA
HETATM   23  C1  UNL     1      -6.393  24.735 -13.522  1.00  0.00     0.213 C
ENDBRANCH  20  22
ENDBRANCH   1  20
BRANCH   9  24
HETATM   24  C10 UNL     1      -1.398  20.863 -10.473  1.00  0.00     0.297 C
HETATM   25  O4  UNL     1      -0.779  21.376 -11.452  1.00  0.00    -0.259 OA
BRANCH  24  26
HETATM   26  O5  UNL     1      -1.533  19.502 -10.473  1.00  0.00    -0.322 OA
HETATM   27  C11 UNL     1      -1.220  18.676  -9.370  1.00  0.00     0.213 C
ENDBRANCH  24  26
ENDBRANCH   9  24
TORSDOF 6
ENDMDL