MODEL 2
REMARK VINA RESULT: -6.975340183      0.122      1.034
REMARK  4 active torsions:
REMARK  status: ('A' for Active; 'I' for Inactive)
REMARK    1  A    between atoms: N1_1  and  C1_4
REMARK    2  A    between atoms: C4_16  and  C5_17
REMARK    3  A    between atoms: C5_17  and  S2_18
REMARK    4  A    between atoms: S2_18  and  C6_19
ROOT
HETATM    1  C1  UNL     1      -1.776  22.287  -9.892  1.00  0.00     0.117 A
HETATM    2  N2  UNL     1      -0.796  21.432 -10.206  1.00  0.00    -0.322 N
ATOM      3  H2  UNL     1      -0.494  21.323 -11.174  1.00  0.00     0.169 HD
HETATM    4  C2  UNL     1      -0.214  20.715  -9.219  1.00  0.00     0.158 A
HETATM    5  S1  UNL     1       1.094  19.586  -9.709  1.00  0.00    -0.013 SA
HETATM    6  N3  UNL     1      -0.604  20.848  -7.927  1.00  0.00    -0.320 N
ATOM      7  H3  UNL     1      -0.145  20.291  -7.205  1.00  0.00     0.169 HD
HETATM    8  C3  UNL     1      -1.593  21.706  -7.576  1.00  0.00     0.138 A
HETATM    9  N4  UNL     1      -2.201  22.070  -6.437  1.00  0.00    -0.284 N
ATOM     10  H4  UNL     1      -1.988  21.706  -5.509  1.00  0.00     0.188 HD
HETATM   11  N5  UNL     1      -3.126  22.981  -6.719  1.00  0.00    -0.301 N
ATOM     12  H5  UNL     1      -3.733  23.426  -6.031  1.00  0.00     0.186 HD
HETATM   13  C4  UNL     1      -3.146  23.233  -8.040  1.00  0.00     0.053 A
HETATM   14  C9  UNL     1      -2.175  22.428  -8.588  1.00  0.00     0.078 A
ENDROOT
BRANCH  13  15
HETATM   15  C5  UNL     1      -4.041  24.178  -8.683  1.00  0.00     0.142 C
BRANCH  15  16
HETATM   16  S2  UNL     1      -5.434  23.338  -9.482  1.00  0.00    -0.088 SA
BRANCH  16  17
HETATM   17  C6  UNL     1      -5.870  24.186 -11.009  1.00  0.00     0.147 A
HETATM   18  N6  UNL     1      -5.908  25.506 -11.255  1.00  0.00    -0.318 N
HETATM   19  C7  UNL     1      -6.289  25.716 -12.547  1.00  0.00     0.176 A
ATOM     20  H6  UNL     1      -5.685  26.237 -10.580  1.00  0.00     0.169 HD
HETATM   21  N7  UNL     1      -6.547  26.640 -13.493  1.00  0.00    -0.222 N
HETATM   22  C8  UNL     1      -6.491  24.471 -13.109  1.00  0.00     0.176 A
HETATM   23  O1  UNL     1      -6.888  26.006 -14.575  1.00  0.00    -0.153 OA
ATOM     24  H7  UNL     1      -6.485  27.652 -13.382  1.00  0.00     0.198 HD
HETATM   25  N8  UNL     1      -6.867  24.722 -14.384  1.00  0.00    -0.222 N
ATOM     26  H8  UNL     1      -7.096  24.016 -15.084  1.00  0.00     0.198 HD
HETATM   27  N9  UNL     1      -6.229  23.563 -12.149  1.00  0.00    -0.318 N
ATOM     28  H9  UNL     1      -6.293  22.552 -12.267  1.00  0.00     0.169 HD
ENDBRANCH  16  17
ENDBRANCH  15  16
ENDBRANCH  13  15
BRANCH   1  29
HETATM   29  N1  UNL     1      -2.335  22.971 -10.802  1.00  0.00    -0.385 N
ATOM     30  H12 UNL     1      -3.339  22.884 -10.960  1.00  0.00     0.157 HD
ATOM     31  H11 UNL     1      -1.780  23.608 -11.373  1.00  0.00     0.157 HD
ENDBRANCH   1  29
TORSDOF 4
ENDMDL