MODEL 1
REMARK VINA RESULT: -3.222097795      0.000      0.000
REMARK  4 active torsions:
REMARK  status: ('A' for Active; 'I' for Inactive)
REMARK    1  A    between atoms: C2_2  and  C3_3
REMARK    2  A    between atoms: C4_4  and  N1_5
REMARK    3  A    between atoms: C8_17  and  N6_18
REMARK    4  A    between atoms: N8_26  and  N9_27
ROOT
HETATM    1  N1  UNL     1      -5.495  23.201 -11.327  1.00  0.00    -0.201 N
HETATM    2  N2  UNL     1      -5.097  23.214 -10.037  1.00  0.00    -0.118 N
ATOM      3  H2  UNL     1      -5.615  23.651  -9.275  1.00  0.00     0.206 HD
HETATM    4  C5  UNL     1      -3.928  22.576  -9.894  1.00  0.00     0.741 A
HETATM    5  N3  UNL     1      -3.602  22.166 -11.108  1.00  0.00    -0.025 N
HETATM    6  C6  UNL     1      -4.561  22.545 -12.004  1.00  0.00     0.382 A
HETATM    7  O1  UNL     1      -4.520  22.296 -13.226  1.00  0.00    -0.242 OA
HETATM    8  N4  UNL     1      -2.408  21.459 -11.256  1.00  0.00    -0.257 N
ATOM      9  H4  UNL     1      -2.140  21.136 -12.186  1.00  0.00     0.190 HD
HETATM   10  C7  UNL     1      -1.549  21.173 -10.159  1.00  0.00     0.171 A
HETATM   11  N5  UNL     1      -0.395  20.494 -10.277  1.00  0.00    -0.173 N
ATOM     12  H5  UNL     1      -0.121  20.167 -11.204  1.00  0.00     0.186 HD
HETATM   13  C8  UNL     1       0.420  20.223  -9.241  1.00  0.00     0.680 A
HETATM   14  N7  UNL     1       0.052  20.658  -8.022  1.00  0.00    -0.154 N
ATOM     15  H7  UNL     1       0.653  20.464  -7.220  1.00  0.00     0.187 HD
HETATM   16  C9  UNL     1      -1.092  21.343  -7.837  1.00  0.00     0.292 A
HETATM   17  O2  UNL     1      -1.441  21.752  -6.701  1.00  0.00    -0.265 OA
HETATM   18  C10 UNL     1      -1.924  21.620  -8.899  1.00  0.00     0.183 A
HETATM   19  N8  UNL     1      -3.150  22.353  -8.707  1.00  0.00    -0.094 N
ENDROOT
BRANCH   1  20
HETATM   20  C4  UNL     1      -6.695  23.801 -11.779  1.00  0.00     0.118 C
HETATM   21  C3  UNL     1      -6.715  24.755 -12.654  1.00  0.00    -0.008 C
BRANCH  21  22
HETATM   22  C2  UNL     1      -8.048  25.319 -13.063  1.00  0.00     0.024 C
HETATM   23  C1  UNL     1      -7.826  26.057 -14.358  1.00  0.00     0.009 C
ENDBRANCH  21  22
ENDBRANCH   1  20
BRANCH  19  24
HETATM   24  N9  UNL     1      -3.527  22.780  -7.566  1.00  0.00    -0.206 NA
HETATM   25  C11 UNL     1      -4.680  21.917  -7.067  1.00  0.00     0.131 A
HETATM   26  C12 UNL     1      -3.973  22.911  -6.344  1.00  0.00     0.131 A
ENDBRANCH  19  24
BRANCH  13  27
HETATM   27  N6  UNL     1       1.534  19.558  -9.407  1.00  0.00    -0.234 N
ATOM     28  H62 UNL     1       2.271  19.917 -10.015  1.00  0.00     0.174 HD
ATOM     29  H61 UNL     1       1.696  18.669  -8.936  1.00  0.00     0.174 HD
ENDBRANCH  13  27
TORSDOF 4
ENDMDL