MODEL 2
REMARK VINA RESULT: -4.923042684      1.267      1.863
REMARK  7 active torsions:
REMARK  status: ('A' for Active; 'I' for Inactive)
REMARK    1  A    between atoms: N1_2  and  N2_3
REMARK    2  A    between atoms: N1_2  and  N3_6
REMARK    3  A    between atoms: N4_8  and  C2_10
REMARK    4  A    between atoms: C3_11  and  O1_12
REMARK    5  A    between atoms: C5_18  and  C6_19
REMARK    6  A    between atoms: C6_19  and  O3_21
REMARK    7  A    between atoms: O3_21  and  C7_22
ROOT
HETATM    1  C2  UNL     1      -4.632  23.777 -10.786  1.00  0.00     0.151 A
HETATM    2  C3  UNL     1      -4.302  24.697  -9.815  1.00  0.00     0.174 A
HETATM    3  N5  UNL     1      -3.188  24.418  -9.115  1.00  0.00    -0.329 N
ATOM      4  H5  UNL     1      -2.893  25.062  -8.381  1.00  0.00     0.168 HD
HETATM    5  C4  UNL     1      -2.435  23.294  -9.354  1.00  0.00     0.091 A
HETATM    6  S1  UNL     1      -1.006  22.666  -8.663  1.00  0.00    -0.065 SA
HETATM    7  C5  UNL     1      -0.840  21.255  -9.600  1.00  0.00     0.083 A
HETATM    8  C8  UNL     1      -1.915  21.310 -10.439  1.00  0.00     0.043 A
HETATM    9  C9  UNL     1      -2.744  22.370 -10.311  1.00  0.00     0.052 A
HETATM   10  C10 UNL     1      -3.913  22.642 -11.061  1.00  0.00     0.217 A
HETATM   11  O5  UNL     1      -4.313  21.873 -11.973  1.00  0.00    -0.285 OA
ENDROOT
BRANCH   1  12
HETATM   12  N4  UNL     1      -5.803  24.029 -11.553  1.00  0.00    -0.277 N
HETATM   13  N3  UNL     1      -5.982  25.084 -12.219  1.00  0.00    -0.226 N
ATOM     14  H3  UNL     1      -5.286  25.829 -12.247  1.00  0.00     0.210 HD
ATOM     15  H4  UNL     1      -6.535  23.320 -11.564  1.00  0.00     0.189 HD
BRANCH  13  16
HETATM   16  N1  UNL     1      -7.202  25.175 -12.926  1.00  0.00    -0.231 N
HETATM   17  C1  UNL     1      -8.345  24.471 -12.434  1.00  0.00     0.201 C
BRANCH  16  18
HETATM   18  N2  UNL     1      -7.187  25.967 -14.076  1.00  0.00    -0.328 N
ATOM     19  H22 UNL     1      -7.709  26.841 -14.023  1.00  0.00     0.178 HD
ATOM     20  H21 UNL     1      -6.699  25.730 -14.939  1.00  0.00     0.178 HD
ENDBRANCH  16  18
ENDBRANCH  13  16
ENDBRANCH   1  12
BRANCH   2  21
HETATM   21  O1  UNL     1      -5.040  25.839  -9.548  1.00  0.00    -0.344 OA
ATOM     22  H1  UNL     1      -4.739  26.546  -8.989  1.00  0.00     0.219 HD
ENDBRANCH   2  21
BRANCH   7  23
HETATM   23  C6  UNL     1       0.206  20.206  -9.542  1.00  0.00     0.308 C
HETATM   24  O2  UNL     1       1.406  20.545  -9.613  1.00  0.00    -0.258 OA
BRANCH  23  25
HETATM   25  O3  UNL     1      -0.117  18.882  -9.414  1.00  0.00    -0.225 OA
BRANCH  25  26
HETATM   26  C7  UNL     1      -1.200  18.467  -8.655  1.00  0.00     0.380 C
HETATM   27  N6  UNL     1      -2.431  19.167  -8.700  1.00  0.00    -0.032 NA
HETATM   28  O4  UNL     1      -1.053  17.443  -7.922  1.00  0.00    -0.242 OA
ENDBRANCH  25  26
ENDBRANCH  23  25
ENDBRANCH   7  23
TORSDOF 7
ENDMDL