MODEL 3
REMARK VINA RESULT: -7.323651204      1.279      1.757
REMARK  4 active torsions:
REMARK  status: ('A' for Active; 'I' for Inactive)
REMARK    1  A    between atoms: N3_10  and  N4_12
REMARK    2  A    between atoms: C5_14  and  C6_15
REMARK    3  A    between atoms: C5_14  and  C7_24
REMARK    4  A    between atoms: C10_28  and  O2_29
ROOT
HETATM    1  N4  UNL     1      -4.120  24.510  -9.077  1.00  0.00    -0.294 N
ATOM      2  H4  UNL     1      -4.677  24.888  -8.312  1.00  0.00     0.187 HD
HETATM    3  C5  UNL     1      -3.328  23.704  -8.534  1.00  0.00     0.108 C
ENDROOT
BRANCH   3   4
HETATM    4  C6  UNL     1      -3.486  23.606  -7.066  1.00  0.00     0.166 A
HETATM    5  N5  UNL     1      -3.136  24.365  -6.072  1.00  0.00    -0.267 N
HETATM    6  N6  UNL     1      -3.492  23.874  -4.932  1.00  0.00    -0.227 N
ATOM      7  H5  UNL     1      -2.636  25.248  -6.180  1.00  0.00     0.190 HD
HETATM    8  N7  UNL     1      -4.107  22.738  -5.168  1.00  0.00    -0.227 N
ATOM      9  H6  UNL     1      -3.326  24.293  -4.017  1.00  0.00     0.210 HD
HETATM   10  N8  UNL     1      -4.121  22.544  -6.469  1.00  0.00    -0.267 N
ATOM     11  H7  UNL     1      -4.504  22.116  -4.466  1.00  0.00     0.210 HD
ATOM     12  H8  UNL     1      -4.532  21.745  -6.950  1.00  0.00     0.190 HD
ENDBRANCH   3   4
BRANCH   3  13
HETATM   13  C7  UNL     1      -2.317  22.920  -9.303  1.00  0.00     0.036 A
HETATM   14  C8  UNL     1      -1.055  22.791  -8.699  1.00  0.00     0.066 A
HETATM   15  S1  UNL     1      -0.160  21.860  -9.799  1.00  0.00    -0.110 SA
HETATM   16  C9  UNL     1      -1.330  21.635 -10.988  1.00  0.00     0.087 A
HETATM   17  C10 UNL     1      -2.431  22.308 -10.494  1.00  0.00     0.085 A
BRANCH  17  18
HETATM   18  O2  UNL     1      -3.600  22.289 -11.307  1.00  0.00    -0.359 OA
ATOM     19  H2  UNL     1      -4.492  22.207 -10.991  1.00  0.00     0.217 HD
ENDBRANCH  17  18
ENDBRANCH   3  13
BRANCH   1  20
HETATM   20  N3  UNL     1      -4.570  25.093 -10.139  1.00  0.00    -0.280 N
HETATM   21  C4  UNL     1      -5.511  24.746 -10.950  1.00  0.00     0.189 A
HETATM   22  C1  UNL     1      -6.247  23.590 -10.786  1.00  0.00     0.290 A
HETATM   23  N2  UNL     1      -5.836  25.507 -12.024  1.00  0.00    -0.345 N
HETATM   24  O1  UNL     1      -5.994  22.840  -9.809  1.00  0.00    -0.264 OA
HETATM   25  N1  UNL     1      -7.234  23.232 -11.643  1.00  0.00    -0.329 N
HETATM   26  C2  UNL     1      -7.525  24.012 -12.693  1.00  0.00     0.108 A
ATOM     27  H1  UNL     1      -7.755  22.369 -11.489  1.00  0.00     0.168 HD
HETATM   28  C3  UNL     1      -6.807  25.174 -12.884  1.00  0.00     0.107 A
ATOM     29  H2  UNL     1      -5.318  26.371 -12.185  1.00  0.00     0.167 HD
ATOM     30  H3  UNL     1      -4.105  25.970 -10.374  1.00  0.00     0.188 HD
ENDBRANCH   1  20
TORSDOF 4
ENDMDL