MODEL 1
REMARK VINA RESULT: -2.860814439      0.000      0.000
REMARK  5 active torsions:
REMARK  status: ('A' for Active; 'I' for Inactive)
REMARK    1  A    between atoms: O1_2  and  C2_3
REMARK    2  A    between atoms: C3_4  and  C4_5
REMARK       I    between atoms: C4_5  and  N1_7
REMARK    3  A    between atoms: N1_7  and  N2_9
REMARK    4  A    between atoms: C6_15  and  C7_16
REMARK    5  A    between atoms: C10_26  and  O3_27
ROOT
HETATM    1  C2  UNL     1      -6.671  23.739 -11.394  1.00  0.00     0.129 A
HETATM    2  C3  UNL     1      -6.567  22.421 -11.750  1.00  0.00     0.139 A
HETATM    3  N3  UNL     1      -5.425  21.912 -11.207  1.00  0.00    -0.347 N
ATOM      4  H3  UNL     1      -5.084  20.956 -11.301  1.00  0.00     0.166 HD
HETATM    5  C5  UNL     1      -4.842  22.888 -10.535  1.00  0.00     0.078 A
HETATM    6  C6  UNL     1      -3.649  22.843  -9.811  1.00  0.00     0.064 A
HETATM    7  C8  UNL     1      -3.186  23.972  -9.165  1.00  0.00     0.111 A
HETATM    8  C9  UNL     1      -1.946  23.948  -8.406  1.00  0.00     0.105 C
HETATM    9  N8  UNL     1      -0.969  23.927  -7.785  1.00  0.00    -0.191 NA
HETATM   10  C10 UNL     1      -3.947  25.118  -9.270  1.00  0.00     0.163 A
HETATM   11  N9  UNL     1      -5.103  25.128  -9.981  1.00  0.00    -0.332 N
ATOM     12  H9  UNL     1      -5.641  25.993 -10.036  1.00  0.00     0.168 HD
HETATM   13  C11 UNL     1      -5.559  24.047 -10.608  1.00  0.00     0.098 A
ENDROOT
BRANCH   6  14
HETATM   14  C7  UNL     1      -2.861  21.632  -9.712  1.00  0.00     0.145 A
HETATM   15  N4  UNL     1      -2.848  20.816  -8.647  1.00  0.00    -0.270 N
HETATM   16  N5  UNL     1      -2.025  19.798  -8.875  1.00  0.00    -0.007 NA
ATOM     17  H4  UNL     1      -3.388  20.956  -7.793  1.00  0.00     0.185 HD
HETATM   18  N6  UNL     1      -1.512  19.964 -10.081  1.00  0.00    -0.007 NA
HETATM   19  N7  UNL     1      -2.019  21.078 -10.594  1.00  0.00    -0.270 N
ATOM     20  H7  UNL     1      -1.800  21.455 -11.517  1.00  0.00     0.185 HD
ENDBRANCH   6  14
BRANCH  10  21
HETATM   21  O3  UNL     1      -3.512  26.269  -8.633  1.00  0.00    -0.345 OA
ATOM     22  H3  UNL     1      -4.010  26.599  -7.894  1.00  0.00     0.219 HD
ENDBRANCH  10  21
BRANCH   2  23
HETATM   23  C4  UNL     1      -7.466  21.597 -12.521  1.00  0.00     0.289 C
HETATM   24  O2  UNL     1      -7.604  21.812 -13.769  1.00  0.00    -0.264 OA
HETATM   25  N1  UNL     1      -8.219  20.538 -11.963  1.00  0.00    -0.271 N
ATOM     26  H1  UNL     1      -8.136  20.325 -10.969  1.00  0.00     0.189 HD
BRANCH  25  27
HETATM   27  N2  UNL     1      -9.089  19.769 -12.781  1.00  0.00    -0.342 N
ATOM     28  H22 UNL     1      -9.318  20.112 -13.714  1.00  0.00     0.176 HD
ATOM     29  H21 UNL     1      -9.476  18.891 -12.437  1.00  0.00     0.176 HD
ENDBRANCH  25  27
ENDBRANCH   2  23
BRANCH   1  30
HETATM   30  O1  UNL     1      -7.640  24.674 -11.701  1.00  0.00    -0.351 OA
HETATM   31  C1  UNL     1      -7.610  25.397 -12.928  1.00  0.00     0.210 C
ENDBRANCH   1  30
TORSDOF 5
ENDMDL