MODEL 5
REMARK VINA RESULT: -6.283390376      2.666      3.285
REMARK  5 active torsions:
REMARK  status: ('A' for Active; 'I' for Inactive)
REMARK    1  A    between atoms: O1_2  and  C2_3
REMARK    2  A    between atoms: C2_3  and  C3_5
REMARK    3  A    between atoms: C5_8  and  C6_9
REMARK    4  A    between atoms: C6_9  and  C7_10
REMARK    5  A    between atoms: N4_22  and  N5_24
ROOT
HETATM    1  C3  UNL     1      -2.189  22.663  -8.633  1.00  0.00     0.219 C
HETATM    2  C4  UNL     1      -3.610  22.449  -9.105  1.00  0.00     0.186 C
HETATM    3  O3  UNL     1      -4.540  22.233  -8.243  1.00  0.00    -0.290 OA
HETATM    4  C5  UNL     1      -3.743  22.519 -10.523  1.00  0.00     0.055 C
HETATM    5  S2  UNL     1      -2.045  22.552 -11.177  1.00  0.00    -0.070 SA
HETATM    6  C10 UNL     1      -1.276  22.119  -9.639  1.00  0.00     0.087 C
HETATM    7  N4  UNL     1      -0.209  21.497  -9.465  1.00  0.00    -0.303 N
ATOM      8  H4  UNL     1       0.044  21.357  -8.486  1.00  0.00     0.186 HD
ENDROOT
BRANCH   4   9
HETATM    9  C6  UNL     1      -4.769  22.539 -11.301  1.00  0.00     0.045 C
BRANCH   9  10
HETATM   10  C7  UNL     1      -5.503  23.677 -11.844  1.00  0.00     0.051 A
HETATM   11  S1  UNL     1      -6.379  23.729 -13.326  1.00  0.00    -0.051 SA
HETATM   12  C8  UNL     1      -6.996  25.316 -13.202  1.00  0.00     0.144 A
HETATM   13  N1  UNL     1      -7.763  25.995 -14.025  1.00  0.00    -0.380 N
HETATM   14  N2  UNL     1      -6.502  25.730 -12.030  1.00  0.00    -0.324 N
ATOM     15  H12 UNL     1      -8.139  25.680 -14.919  1.00  0.00     0.158 HD
ATOM     16  H11 UNL     1      -8.131  26.943 -13.951  1.00  0.00     0.158 HD
HETATM   17  C9  UNL     1      -5.752  24.916 -11.340  1.00  0.00     0.135 A
ATOM     18  H2  UNL     1      -6.709  26.667 -11.681  1.00  0.00     0.169 HD
HETATM   19  N3  UNL     1      -5.222  25.290 -10.028  1.00  0.00    -0.081 NA
ENDBRANCH   9  10
ENDBRANCH   4   9
BRANCH   1  20
HETATM   20  C2  UNL     1      -1.979  22.076  -7.304  1.00  0.00     0.276 C
HETATM   21  O2  UNL     1      -1.464  20.947  -7.208  1.00  0.00    -0.264 OA
BRANCH  20  22
HETATM   22  O1  UNL     1      -2.336  22.737  -6.146  1.00  0.00    -0.326 OA
HETATM   23  C1  UNL     1      -2.785  24.099  -6.203  1.00  0.00     0.213 C
ENDBRANCH  20  22
ENDBRANCH   1  20
BRANCH   7  24
HETATM   24  N5  UNL     1       0.680  20.969 -10.363  1.00  0.00    -0.344 N
ATOM     25  H52 UNL     1       1.244  21.677 -10.833  1.00  0.00     0.176 HD
ATOM     26  H51 UNL     1       0.866  20.003 -10.632  1.00  0.00     0.176 HD
ENDBRANCH   7  24
TORSDOF 5
ENDMDL