MODEL 1
REMARK VINA RESULT: -6.631503878      0.000      0.000
REMARK  3 active torsions:
REMARK  status: ('A' for Active; 'I' for Inactive)
REMARK       I    between atoms: C1_2  and  N2_4
REMARK    1  A    between atoms: N2_4  and  N3_6
REMARK    2  A    between atoms: C2_9  and  C3_10
REMARK    3  A    between atoms: C4_16  and  N7_17
ROOT
HETATM    1  C3  UNL     1      -3.569  24.070  -8.521  1.00  0.00     0.129 A
HETATM    2  N5  UNL     1      -3.563  25.072  -7.652  1.00  0.00    -0.288 N
ATOM      3  H5  UNL     1      -4.263  25.811  -7.727  1.00  0.00     0.188 HD
HETATM    4  N6  UNL     1      -2.688  25.119  -6.724  1.00  0.00    -0.268 N
ATOM      5  H6  UNL     1      -2.580  25.832  -6.002  1.00  0.00     0.195 HD
HETATM    6  S1  UNL     1      -1.762  23.750  -6.960  1.00  0.00     0.022 SA
HETATM    7  C4  UNL     1      -2.600  23.129  -8.347  1.00  0.00     0.122 A
ENDROOT
BRANCH   1   8
HETATM    8  C2  UNL     1      -4.610  24.052  -9.593  1.00  0.00     0.155 A
HETATM    9  N4  UNL     1      -5.085  25.143 -10.259  1.00  0.00    -0.259 N
HETATM   10  N3  UNL     1      -5.996  24.798 -11.146  1.00  0.00    -0.163 N
ATOM     11  H4  UNL     1      -4.774  26.100 -10.093  1.00  0.00     0.191 HD
HETATM   12  C9  UNL     1      -6.130  23.474 -11.074  1.00  0.00     0.216 A
HETATM   13  N9  UNL     1      -5.268  23.033 -10.110  1.00  0.00    -0.313 N
HETATM   14  S2  UNL     1      -7.148  22.588 -11.984  1.00  0.00    -0.037 SA
ATOM     15  H9  UNL     1      -5.151  22.059  -9.833  1.00  0.00     0.170 HD
BRANCH  10  16
HETATM   16  N2  UNL     1      -6.719  25.618 -12.025  1.00  0.00    -0.230 N
HETATM   17  C1  UNL     1      -6.498  25.517 -13.414  1.00  0.00     0.348 C
HETATM   18  N1  UNL     1      -7.214  26.329 -14.307  1.00  0.00    -0.038 NA
HETATM   19  O1  UNL     1      -5.662  24.702 -13.850  1.00  0.00    -0.249 OA
ATOM     20  H2  UNL     1      -7.402  26.283 -11.661  1.00  0.00     0.193 HD
ENDBRANCH  10  16
ENDBRANCH   1   8
BRANCH   7  21
HETATM   21  N7  UNL     1      -2.282  21.922  -9.061  1.00  0.00    -0.369 N
HETATM   22  C5  UNL     1      -1.577  21.998 -10.338  1.00  0.00     0.151 C
HETATM   23  C6  UNL     1      -0.633  20.818 -10.501  1.00  0.00     0.252 C
HETATM   24  N8  UNL     1      -1.219  19.572 -10.116  1.00  0.00    -0.072 N
HETATM   25  C7  UNL     1      -1.622  19.586  -8.729  1.00  0.00     0.252 C
ATOM     26  H82 UNL     1      -1.994  19.317 -10.728  1.00  0.00     0.277 HD
ATOM     27  H81 UNL     1      -0.596  18.788 -10.315  1.00  0.00     0.277 HD
HETATM   28  C8  UNL     1      -2.652  20.664  -8.452  1.00  0.00     0.151 C
ENDBRANCH   7  21
TORSDOF 3
ENDMDL