MODEL 4
REMARK VINA RESULT: -8.714004418      1.224      1.784
REMARK  8 active torsions:
REMARK  status: ('A' for Active; 'I' for Inactive)
REMARK    1  A    between atoms: C2_2  and  C4_4
REMARK    2  A    between atoms: C8_8  and  O1_9
REMARK    3  A    between atoms: C14_17  and  C15_18
REMARK    4  A    between atoms: C15_18  and  C17_20
REMARK    5  A    between atoms: C17_20  and  O3_21
REMARK    6  A    between atoms: C17_20  and  C18_23
REMARK    7  A    between atoms: C19_24  and  C20_25
REMARK    8  A    between atoms: C20_25  and  C22_27
ROOT
HETATM    1  C4  UNL     1      48.596  33.151  35.269  1.00  0.00    -0.066 C
HETATM    2  C5  UNL     1      47.518  32.139  35.214  1.00  0.00     0.044 C
HETATM    3  C6  UNL     1      48.157  30.777  35.503  1.00  0.00     0.022 C
HETATM    4  C7  UNL     1      49.233  30.559  34.490  1.00  0.00     0.042 C
HETATM    5  C8  UNL     1      50.306  31.608  34.522  1.00  0.00     0.128 C
HETATM    6  C9  UNL     1      49.968  32.614  35.637  1.00  0.00     0.064 C
HETATM    7  C10 UNL     1      49.982  31.801  36.908  1.00  0.00     0.050 C
HETATM    8  C11 UNL     1      51.285  30.992  36.855  1.00  0.00     0.029 C
HETATM    9  C12 UNL     1      50.054  32.574  38.150  1.00  0.00     0.140 C
HETATM   10  O2  UNL     1      50.655  33.606  38.206  1.00  0.00    -0.297 OA
HETATM   11  C13 UNL     1      49.369  32.063  39.359  1.00  0.00     0.088 C
HETATM   12  C14 UNL     1      49.003  30.600  39.223  1.00  0.00     0.022 C
HETATM   13  C29 UNL     1      48.320  30.378  37.949  1.00  0.00    -0.017 C
HETATM   14  C30 UNL     1      48.778  30.936  36.848  1.00  0.00    -0.062 C
ENDROOT
BRANCH  12  15
HETATM   15  C15 UNL     1      48.204  30.138  40.417  1.00  0.00     0.022 C
HETATM   16  C16 UNL     1      47.887  28.671  40.221  1.00  0.00     0.014 C
BRANCH  15  17
HETATM   17  C17 UNL     1      46.976  30.937  40.694  1.00  0.00     0.145 C
BRANCH  17  18
HETATM   18  O3  UNL     1      45.861  30.103  40.713  1.00  0.00    -0.391 OA
ATOM     19  H3  UNL     1      45.450  30.093  39.856  1.00  0.00     0.210 HD
ENDBRANCH  17  18
BRANCH  17  20
HETATM   20  C18 UNL     1      47.116  31.509  42.071  1.00  0.00     0.001 C
HETATM   21  C19 UNL     1      48.284  31.574  42.675  1.00  0.00    -0.023 C
BRANCH  21  22
HETATM   22  C20 UNL     1      48.564  32.111  44.023  1.00  0.00     0.015 C
HETATM   23  C21 UNL     1      47.566  33.195  44.324  1.00  0.00     0.015 C
BRANCH  22  24
HETATM   24  C22 UNL     1      48.766  31.123  45.094  1.00  0.00     0.062 C
HETATM   25  C23 UNL     1      48.420  31.505  46.482  1.00  0.00     0.013 C
HETATM   26  C24 UNL     1      49.650  31.538  47.402  1.00  0.00     0.005 C
HETATM   27  C25 UNL     1      50.125  30.103  47.500  1.00  0.00    -0.012 C
HETATM   28  C26 UNL     1      51.117  29.934  48.633  1.00  0.00     0.010 C
HETATM   29  C27 UNL     1      50.731  29.743  46.160  1.00  0.00     0.083 C
HETATM   30  C28 UNL     1      50.155  30.565  45.094  1.00  0.00     0.132 C
HETATM   31  O4  UNL     1      50.848  30.828  44.117  1.00  0.00    -0.298 OA
ENDBRANCH  22  24
ENDBRANCH  21  22
ENDBRANCH  17  20
ENDBRANCH  15  17
ENDBRANCH  12  15
BRANCH   1  32
HETATM   32  C2  UNL     1      48.300  34.436  35.914  1.00  0.00    -0.069 C
HETATM   33  C1  UNL     1      47.271  34.637  36.672  1.00  0.00     0.018 C
HETATM   34  C3  UNL     1      49.237  35.575  35.657  1.00  0.00     0.047 C
ENDBRANCH   1  32
BRANCH   5  35
HETATM   35  O1  UNL     1      50.206  32.349  33.320  1.00  0.00    -0.395 OA
ATOM     36  H1  UNL     1      49.844  33.199  33.542  1.00  0.00     0.210 HD
ENDBRANCH   5  35
TORSDOF 8
ENDMDL