MODEL 4
REMARK VINA RESULT: -7.999278928      2.477      4.796
REMARK  6 active torsions:
REMARK  status: ('A' for Active; 'I' for Inactive)
REMARK    1  A    between atoms: O1_2  and  N1_3
REMARK       I    between atoms: N1_3  and  C2_5
REMARK    2  A    between atoms: C2_5  and  C3_7
REMARK    3  A    between atoms: C3_7  and  C4_8
REMARK    4  A    between atoms: C4_8  and  C5_9
REMARK    5  A    between atoms: C5_9  and  C7_11
REMARK    6  A    between atoms: C19_24  and  O4_25
ROOT
HETATM    1  C7  UNL     1      48.688  31.831  45.276  1.00  0.00    -0.002 C
HETATM    2  C8  UNL     1      47.478  30.915  45.625  1.00  0.00     0.006 C
HETATM    3  C9  UNL     1      46.510  31.127  44.471  1.00  0.00     0.006 C
HETATM    4  C10 UNL     1      47.495  31.180  43.393  1.00  0.00     0.006 C
HETATM    5  C11 UNL     1      47.147  31.694  42.077  1.00  0.00     0.069 C
HETATM    6  C12 UNL     1      46.883  30.478  41.226  1.00  0.00     0.132 C
HETATM    7  O3  UNL     1      45.793  30.049  41.003  1.00  0.00    -0.298 OA
HETATM    8  C13 UNL     1      48.176  29.970  40.768  1.00  0.00     0.084 C
HETATM    9  C14 UNL     1      48.965  31.238  40.586  1.00  0.00     0.010 C
HETATM   10  C15 UNL     1      48.982  31.660  39.146  1.00  0.00    -0.035 C
HETATM   11  C16 UNL     1      49.770  30.554  38.415  1.00  0.00     0.016 C
HETATM   12  C17 UNL     1      47.626  31.635  38.530  1.00  0.00     0.012 C
HETATM   13  C18 UNL     1      47.636  32.179  37.115  1.00  0.00     0.033 C
HETATM   14  C19 UNL     1      48.077  33.598  37.198  1.00  0.00     0.126 C
HETATM   15  C20 UNL     1      49.478  33.667  37.696  1.00  0.00    -0.017 C
HETATM   16  C21 UNL     1      50.433  33.190  36.589  1.00  0.00     0.018 C
HETATM   17  C22 UNL     1      49.805  35.160  37.825  1.00  0.00     0.018 C
HETATM   18  C23 UNL     1      49.741  32.941  38.979  1.00  0.00     0.004 C
HETATM   19  C24 UNL     1      49.699  33.814  40.197  1.00  0.00     0.007 C
HETATM   20  C25 UNL     1      48.416  33.630  41.023  1.00  0.00     0.011 C
HETATM   21  C26 UNL     1      48.457  32.252  41.571  1.00  0.00    -0.024 C
HETATM   22  C27 UNL     1      49.364  32.312  42.826  1.00  0.00     0.020 C
HETATM   23  C28 UNL     1      48.425  32.277  43.946  1.00  0.00    -0.035 C
HETATM   24  C29 UNL     1      47.622  33.581  44.081  1.00  0.00     0.016 C
ENDROOT
BRANCH   1  25
HETATM   25  C5  UNL     1      49.947  31.169  45.747  1.00  0.00    -0.013 C
HETATM   26  C6  UNL     1      50.441  30.399  44.541  1.00  0.00     0.010 C
BRANCH  25  27
HETATM   27  C4  UNL     1      49.712  30.342  46.946  1.00  0.00     0.014 C
BRANCH  27  28
HETATM   28  C3  UNL     1      50.592  29.181  47.220  1.00  0.00     0.105 C
BRANCH  28  29
HETATM   29  C2  UNL     1      49.887  27.899  47.301  1.00  0.00     0.241 C
HETATM   30  N1  UNL     1      48.499  27.783  47.582  1.00  0.00    -0.235 N
ATOM     31  H1  UNL     1      47.937  28.618  47.744  1.00  0.00     0.197 HD
HETATM   32  O2  UNL     1      50.551  26.830  47.110  1.00  0.00    -0.271 OA
BRANCH  30  33
HETATM   33  O1  UNL     1      47.933  26.575  47.631  1.00  0.00    -0.283 OA
HETATM   34  C1  UNL     1      46.567  26.539  47.698  1.00  0.00     0.237 C
ENDBRANCH  30  33
ENDBRANCH  28  29
ENDBRANCH  27  28
ENDBRANCH  25  27
ENDBRANCH   1  25
BRANCH  14  35
HETATM   35  O4  UNL     1      48.024  34.234  35.971  1.00  0.00    -0.395 OA
ATOM     36  H4  UNL     1      48.345  35.127  36.015  1.00  0.00     0.210 HD
ENDBRANCH  14  35
TORSDOF 6
ENDMDL