MODEL 2
REMARK VINA RESULT: -7.512333991      1.288      2.079
REMARK  7 active torsions:
REMARK  status: ('A' for Active; 'I' for Inactive)
REMARK    1  A    between atoms: C2_2  and  C3_3
REMARK    2  A    between atoms: C2_2  and  C26_32
REMARK    3  A    between atoms: C3_3  and  C4_4
REMARK    4  A    between atoms: C4_4  and  C5_5
REMARK    5  A    between atoms: C5_5  and  C7_7
REMARK    6  A    between atoms: C16_16  and  O1_17
REMARK    7  A    between atoms: O1_17  and  C17_18
ROOT
HETATM    1  C7  UNL     1      49.760  32.095  36.090  1.00  0.00    -0.002 C
HETATM    2  C8  UNL     1      49.408  30.586  36.000  1.00  0.00     0.006 C
HETATM    3  C9  UNL     1      48.857  30.218  37.325  1.00  0.00     0.006 C
HETATM    4  C10 UNL     1      48.297  31.483  37.946  1.00  0.00     0.001 C
HETATM    5  C11 UNL     1      48.781  31.512  39.327  1.00  0.00     0.026 C
HETATM    6  C12 UNL     1      48.284  30.226  40.007  1.00  0.00     0.010 C
HETATM    7  C13 UNL     1      49.099  29.899  41.219  1.00  0.00     0.026 C
HETATM    8  C14 UNL     1      49.727  31.182  41.745  1.00  0.00     0.091 C
HETATM    9  C15 UNL     1      49.974  31.073  43.233  1.00  0.00     0.067 C
HETATM   10  C16 UNL     1      48.712  31.601  43.894  1.00  0.00     0.227 C
HETATM   11  C18 UNL     1      48.274  32.615  42.875  1.00  0.00     0.251 C
HETATM   12  O3  UNL     1      47.610  33.642  43.121  1.00  0.00    -0.270 OA
HETATM   13  N2  UNL     1      48.733  32.221  41.595  1.00  0.00    -0.329 N
HETATM   14  C19 UNL     1      48.420  32.633  40.213  1.00  0.00     0.096 C
HETATM   15  C20 UNL     1      46.960  32.987  40.226  1.00  0.00     0.047 C
HETATM   16  C21 UNL     1      49.316  33.793  39.949  1.00  0.00     0.155 C
HETATM   17  O4  UNL     1      49.570  34.579  40.818  1.00  0.00    -0.295 OA
HETATM   18  C22 UNL     1      49.953  34.057  38.603  1.00  0.00     0.082 C
HETATM   19  C23 UNL     1      48.858  33.909  37.606  1.00  0.00     0.017 C
HETATM   20  C24 UNL     1      48.676  32.562  36.991  1.00  0.00    -0.036 C
HETATM   21  C25 UNL     1      47.438  32.749  36.084  1.00  0.00     0.016 C
ENDROOT
BRANCH   1  22
HETATM   22  C5  UNL     1      49.775  32.528  34.685  1.00  0.00    -0.014 C
HETATM   23  C6  UNL     1      50.043  31.257  33.849  1.00  0.00     0.010 C
BRANCH  22  24
HETATM   24  C4  UNL     1      50.737  33.531  34.202  1.00  0.00     0.009 C
BRANCH  24  25
HETATM   25  C3  UNL     1      50.201  34.475  33.151  1.00  0.00     0.034 C
BRANCH  25  26
HETATM   26  C2  UNL     1      49.183  35.382  33.699  1.00  0.00    -0.086 C
HETATM   27  C1  UNL     1      49.474  36.157  34.729  1.00  0.00     0.014 C
BRANCH  26  28
HETATM   28  C26 UNL     1      47.832  35.446  33.115  1.00  0.00     0.005 C
HETATM   29  C27 UNL     1      46.798  35.832  34.158  1.00  0.00     0.014 C
HETATM   30  C28 UNL     1      47.408  34.199  32.413  1.00  0.00     0.014 C
ENDBRANCH  26  28
ENDBRANCH  25  26
ENDBRANCH  24  25
ENDBRANCH  22  24
ENDBRANCH   1  22
BRANCH  10  31
HETATM   31  O1  UNL     1      48.948  32.171  45.145  1.00  0.00    -0.291 OA
BRANCH  31  32
HETATM   32  C17 UNL     1      48.823  31.347  46.275  1.00  0.00     0.373 C
HETATM   33  N1  UNL     1      49.877  31.097  47.169  1.00  0.00    -0.032 NA
HETATM   34  O2  UNL     1      47.711  30.796  46.507  1.00  0.00    -0.242 OA
ENDBRANCH  31  32
ENDBRANCH  10  31
TORSDOF 7
ENDMDL