MODEL 5
REMARK VINA RESULT: -6.058359724      3.145      8.112
REMARK  9 active torsions:
REMARK  status: ('A' for Active; 'I' for Inactive)
REMARK    1  A    between atoms: C4_4  and  O1_5
REMARK    2  A    between atoms: C8_10  and  C9_11
REMARK    3  A    between atoms: C9_11  and  O2_13
REMARK    4  A    between atoms: O2_13  and  N1_14
REMARK    5  A    between atoms: C18_24  and  C19_25
REMARK    6  A    between atoms: C19_25  and  C20_26
REMARK    7  A    between atoms: C19_25  and  C25_31
REMARK    8  A    between atoms: C20_26  and  C21_27
REMARK    9  A    between atoms: C21_27  and  C22_28
ROOT
HETATM    1  C1  UNL     1      46.829  35.117  36.167  1.00  0.00     0.013 C
HETATM    2  C2  UNL     1      47.762  34.815  36.875  1.00  0.00    -0.103 C
HETATM    3  C3  UNL     1      48.928  34.437  37.727  1.00  0.00     0.064 C
HETATM    4  C4  UNL     1      49.329  35.721  38.408  1.00  0.00     0.141 C
HETATM    5  C5  UNL     1      49.913  36.718  37.437  1.00  0.00     0.043 C
HETATM    6  C6  UNL     1      51.200  36.170  36.900  1.00  0.00    -0.032 C
HETATM    7  C7  UNL     1      52.405  36.714  37.664  1.00  0.00     0.016 C
HETATM    8  C8  UNL     1      51.265  36.484  35.447  1.00  0.00     0.025 C
HETATM    9  C11 UNL     1      51.829  35.292  34.760  1.00  0.00     0.008 C
HETATM   10  C12 UNL     1      52.303  34.419  35.897  1.00  0.00     0.006 C
HETATM   11  C13 UNL     1      51.326  34.660  37.018  1.00  0.00     0.000 C
HETATM   12  C14 UNL     1      50.008  33.963  36.794  1.00  0.00     0.018 C
HETATM   13  C15 UNL     1      50.162  32.458  36.855  1.00  0.00     0.034 C
HETATM   14  C16 UNL     1      50.311  31.994  38.260  1.00  0.00    -0.022 C
HETATM   15  C17 UNL     1      49.520  32.480  39.209  1.00  0.00    -0.069 C
HETATM   16  C18 UNL     1      49.337  32.306  40.661  1.00  0.00     0.026 C
HETATM   17  C27 UNL     1      47.900  32.716  40.867  1.00  0.00     0.011 C
HETATM   18  C28 UNL     1      47.953  34.010  40.004  1.00  0.00     0.016 C
HETATM   19  C29 UNL     1      48.464  33.434  38.704  1.00  0.00     0.001 C
HETATM   20  C30 UNL     1      47.343  32.548  38.205  1.00  0.00     0.022 C
ENDROOT
BRANCH   4  21
HETATM   21  O1  UNL     1      48.150  36.350  38.893  1.00  0.00    -0.394 OA
ATOM     22  H1  UNL     1      48.263  36.510  39.823  1.00  0.00     0.210 HD
ENDBRANCH   4  21
BRANCH  16  23
HETATM   23  C19 UNL     1      49.677  30.925  41.196  1.00  0.00     0.063 C
BRANCH  23  24
HETATM   24  C20 UNL     1      48.515  29.995  40.903  1.00  0.00     0.013 C
BRANCH  24  25
HETATM   25  C21 UNL     1      48.769  28.735  40.216  1.00  0.00     0.005 C
BRANCH  25  26
HETATM   26  C22 UNL     1      48.095  28.453  38.929  1.00  0.00    -0.023 C
HETATM   27  C23 UNL     1      46.919  29.219  38.508  1.00  0.00     0.009 C
HETATM   28  C24 UNL     1      49.176  28.666  37.837  1.00  0.00     0.009 C
ENDBRANCH  25  26
ENDBRANCH  24  25
ENDBRANCH  23  24
BRANCH  23  29
HETATM   29  C25 UNL     1      49.561  31.092  42.718  1.00  0.00     0.127 C
HETATM   30  C26 UNL     1      48.701  32.018  43.424  1.00  0.00     0.091 C
HETATM   31  O3  UNL     1      50.295  30.347  43.395  1.00  0.00    -0.298 OA
ENDBRANCH  23  29
ENDBRANCH  16  23
BRANCH   8  32
HETATM   32  C9  UNL     1      51.971  37.742  35.062  1.00  0.00     0.152 C
HETATM   33  C10 UNL     1      52.938  37.468  33.887  1.00  0.00     0.042 C
BRANCH  32  34
HETATM   34  O2  UNL     1      51.099  38.715  34.530  1.00  0.00    -0.282 OA
BRANCH  34  35
HETATM   35  N1  UNL     1      50.675  39.602  35.424  1.00  0.00    -0.311 N
ATOM     36  H12 UNL     1      50.944  40.586  35.385  1.00  0.00     0.184 HD
ATOM     37  H11 UNL     1      50.065  39.207  36.139  1.00  0.00     0.184 HD
ENDBRANCH  34  35
ENDBRANCH  32  34
ENDBRANCH   8  32
TORSDOF 9
ENDMDL