MODEL 2
REMARK VINA RESULT: -8.566257604      0.903      1.094
REMARK  8 active torsions:
REMARK  status: ('A' for Active; 'I' for Inactive)
REMARK    1  A    between atoms: C4_6  and  C5_7
REMARK    2  A    between atoms: C5_7  and  C6_8
REMARK    3  A    between atoms: C7_9  and  C8_10
REMARK    4  A    between atoms: C8_10  and  O3_11
REMARK    5  A    between atoms: C9_13  and  C10_14
REMARK    6  A    between atoms: C10_14  and  C11_15
REMARK    7  A    between atoms: C11_15  and  C12_16
REMARK    8  A    between atoms: C16_20  and  O4_21
ROOT
HETATM    1  C12 UNL     1      49.176  34.540  39.024  1.00  0.00    -0.009 C
HETATM    2  C13 UNL     1      49.721  35.959  39.242  1.00  0.00     0.010 C
HETATM    3  C14 UNL     1      49.768  36.792  38.027  1.00  0.00    -0.003 C
HETATM    4  C15 UNL     1      50.210  38.166  38.376  1.00  0.00     0.037 C
HETATM    5  C16 UNL     1      51.683  38.346  38.511  1.00  0.00     0.118 C
HETATM    6  C17 UNL     1      52.509  37.596  37.524  1.00  0.00     0.032 C
HETATM    7  C18 UNL     1      52.110  36.119  37.453  1.00  0.00     0.012 C
HETATM    8  C19 UNL     1      50.665  36.095  37.028  1.00  0.00    -0.036 C
HETATM    9  C20 UNL     1      50.582  36.945  35.751  1.00  0.00     0.016 C
HETATM   10  C21 UNL     1      50.119  34.770  36.707  1.00  0.00    -0.001 C
HETATM   11  C22 UNL     1      51.072  34.026  35.803  1.00  0.00     0.006 C
HETATM   12  C23 UNL     1      50.286  32.927  35.127  1.00  0.00     0.010 C
HETATM   13  C24 UNL     1      48.991  32.626  35.780  1.00  0.00    -0.036 A
HETATM   14  C25 UNL     1      47.755  32.580  34.869  1.00  0.00     0.016 C
HETATM   15  C26 UNL     1      49.108  31.509  36.815  1.00  0.00    -0.005 A
HETATM   16  C27 UNL     1      50.409  30.811  36.993  1.00  0.00     0.011 C
HETATM   17  C28 UNL     1      48.803  32.866  37.202  1.00  0.00     0.003 A
HETATM   18  C29 UNL     1      49.777  33.851  37.849  1.00  0.00    -0.001 C
ENDROOT
BRANCH   1  19
HETATM   19  C11 UNL     1      49.399  33.883  40.361  1.00  0.00     0.006 C
BRANCH  19  20
HETATM   20  C10 UNL     1      48.222  33.488  41.135  1.00  0.00     0.012 C
BRANCH  20  21
HETATM   21  C9  UNL     1      48.208  32.080  41.645  1.00  0.00     0.054 C
HETATM   22  C2  UNL     1      47.729  31.129  40.611  1.00  0.00     0.014 C
HETATM   23  C1  UNL     1      46.879  31.307  39.630  1.00  0.00     0.025 C
HETATM   24  C3  UNL     1      48.413  29.869  40.895  1.00  0.00     0.289 C
HETATM   25  O1  UNL     1      48.088  28.703  40.557  1.00  0.00    -0.260 OA
HETATM   26  O2  UNL     1      49.524  30.174  41.627  1.00  0.00    -0.311 OA
HETATM   27  C4  UNL     1      49.509  31.526  42.057  1.00  0.00     0.144 C
BRANCH  27  28
HETATM   28  C5  UNL     1      49.605  31.480  43.569  1.00  0.00     0.060 C
BRANCH  28  29
HETATM   29  C6  UNL     1      48.421  32.097  44.189  1.00  0.00    -0.026 C
HETATM   30  C7  UNL     1      48.059  31.871  45.430  1.00  0.00    -0.005 C
BRANCH  30  31
HETATM   31  C8  UNL     1      48.703  31.008  46.427  1.00  0.00     0.191 C
BRANCH  31  32
HETATM   32  O3  UNL     1      49.577  31.800  47.200  1.00  0.00    -0.397 OA
ATOM     33  H3  UNL     1      49.648  31.411  48.063  1.00  0.00     0.209 HD
ENDBRANCH  31  32
ENDBRANCH  30  31
ENDBRANCH  28  29
ENDBRANCH  27  28
ENDBRANCH  20  21
ENDBRANCH  19  20
ENDBRANCH   1  19
BRANCH   5  34
HETATM   34  O4  UNL     1      51.957  39.714  38.328  1.00  0.00    -0.396 OA
ATOM     35  H4  UNL     1      51.900  39.892  37.397  1.00  0.00     0.210 HD
ENDBRANCH   5  34
TORSDOF 8
ENDMDL