MODEL 2
REMARK VINA RESULT: -7.902352894      3.800      6.531
REMARK  9 active torsions:
REMARK  status: ('A' for Active; 'I' for Inactive)
REMARK    1  A    between atoms: C2_2  and  O1_3
REMARK    2  A    between atoms: O1_3  and  C3_4
REMARK    3  A    between atoms: C3_4  and  C4_6
REMARK    4  A    between atoms: C4_6  and  C5_7
REMARK    5  A    between atoms: C5_7  and  C6_8
REMARK    6  A    between atoms: C6_8  and  C8_10
REMARK    7  A    between atoms: C17_19  and  O3_20
REMARK    8  A    between atoms: C18_22  and  C19_23
REMARK    9  A    between atoms: C19_23  and  N1_24
ROOT
HETATM    1  C8  UNL     1      47.888  32.696  41.752  1.00  0.00    -0.002 C
HETATM    2  C9  UNL     1      47.280  31.285  41.369  1.00  0.00     0.006 C
HETATM    3  C10 UNL     1      46.587  31.713  40.117  1.00  0.00     0.006 C
HETATM    4  C11 UNL     1      47.552  32.715  39.496  1.00  0.00    -0.002 C
HETATM    5  C12 UNL     1      47.946  32.351  38.135  1.00  0.00    -0.005 C
HETATM    6  C13 UNL     1      47.973  33.541  37.201  1.00  0.00     0.006 C
HETATM    7  C14 UNL     1      47.845  32.903  35.825  1.00  0.00     0.006 C
HETATM    8  C15 UNL     1      49.084  32.059  35.681  1.00  0.00    -0.003 C
HETATM    9  C16 UNL     1      49.169  31.726  34.234  1.00  0.00     0.037 C
HETATM   10  C17 UNL     1      50.487  31.045  33.986  1.00  0.00     0.125 C
HETATM   11  C18 UNL     1      50.421  29.755  34.775  1.00  0.00     0.048 C
HETATM   12  C20 UNL     1      50.388  30.072  36.231  1.00  0.00    -0.032 C
HETATM   13  C21 UNL     1      51.745  30.747  36.460  1.00  0.00     0.016 C
HETATM   14  C22 UNL     1      50.392  28.839  37.093  1.00  0.00     0.016 C
HETATM   15  C23 UNL     1      49.220  30.932  36.659  1.00  0.00    -0.029 C
HETATM   16  C24 UNL     1      48.013  29.973  36.573  1.00  0.00     0.016 C
HETATM   17  C25 UNL     1      49.163  31.452  37.998  1.00  0.00    -0.001 C
HETATM   18  C26 UNL     1      50.216  32.181  38.714  1.00  0.00     0.006 C
HETATM   19  C27 UNL     1      49.840  32.226  40.214  1.00  0.00     0.010 C
HETATM   20  C28 UNL     1      48.629  33.009  40.527  1.00  0.00    -0.036 C
HETATM   21  C29 UNL     1      48.981  34.493  40.457  1.00  0.00     0.016 C
ENDROOT
BRANCH   1  22
HETATM   22  C6  UNL     1      48.455  32.531  43.090  1.00  0.00    -0.013 C
HETATM   23  C7  UNL     1      47.582  33.099  44.207  1.00  0.00     0.010 C
BRANCH  22  24
HETATM   24  C5  UNL     1      48.768  31.123  43.503  1.00  0.00     0.014 C
BRANCH  24  25
HETATM   25  C4  UNL     1      50.226  30.848  43.788  1.00  0.00     0.111 C
BRANCH  25  26
HETATM   26  C3  UNL     1      50.451  30.649  45.247  1.00  0.00     0.258 C
HETATM   27  O2  UNL     1      51.092  29.649  45.660  1.00  0.00    -0.265 OA
BRANCH  26  28
HETATM   28  O1  UNL     1      49.967  31.548  46.165  1.00  0.00    -0.322 OA
BRANCH  28  29
HETATM   29  C2  UNL     1      49.271  31.114  47.338  1.00  0.00     0.174 C
HETATM   30  C1  UNL     1      47.872  30.647  46.963  1.00  0.00     0.034 C
ENDBRANCH  28  29
ENDBRANCH  26  28
ENDBRANCH  25  26
ENDBRANCH  24  25
ENDBRANCH  22  24
ENDBRANCH   1  22
BRANCH  11  31
HETATM   31  C19 UNL     1      49.500  28.833  34.133  1.00  0.00     0.237 C
BRANCH  31  32
HETATM   32  N1  UNL     1      50.278  27.960  33.254  1.00  0.00    -0.079 N
ATOM     33  H13 UNL     1      51.269  27.936  33.497  1.00  0.00     0.274 HD
ATOM     34  H12 UNL     1      50.079  26.971  33.402  1.00  0.00     0.274 HD
ATOM     35  H11 UNL     1      50.115  28.257  32.292  1.00  0.00     0.274 HD
ENDBRANCH  31  32
ENDBRANCH  11  31
BRANCH  10  36
HETATM   36  O3  UNL     1      50.826  30.901  32.669  1.00  0.00    -0.395 OA
ATOM     37  H3  UNL     1      50.966  30.006  32.385  1.00  0.00     0.210 HD
ENDBRANCH  10  36
TORSDOF 9
ENDMDL