MODEL 2
REMARK VINA RESULT: -10.113838136      1.381      2.502
REMARK  8 active torsions:
REMARK  status: ('A' for Active; 'I' for Inactive)
REMARK    1  A    between atoms: C2_2  and  C3_3
REMARK    2  A    between atoms: C2_2  and  C11_17
REMARK    3  A    between atoms: C3_3  and  C4_4
REMARK    4  A    between atoms: C4_4  and  C5_5
REMARK    5  A    between atoms: C5_5  and  N1_6
REMARK    6  A    between atoms: C5_5  and  C6_10
REMARK    7  A    between atoms: C6_10  and  C8_12
REMARK    8  A    between atoms: C8_12  and  O1_13
ROOT
HETATM    1  C11 UNL     1      48.263  31.154  42.354  1.00  0.00    -0.002 C
HETATM    2  C12 UNL     1      49.686  30.734  42.049  1.00  0.00     0.006 C
HETATM    3  C13 UNL     1      50.279  31.939  41.425  1.00  0.00     0.006 C
HETATM    4  C14 UNL     1      49.231  32.203  40.353  1.00  0.00    -0.001 C
HETATM    5  C15 UNL     1      49.517  31.459  39.098  1.00  0.00     0.002 C
HETATM    6  C16 UNL     1      50.695  32.178  38.426  1.00  0.00     0.084 C
HETATM    7  C17 UNL     1      50.529  32.133  36.945  1.00  0.00     0.132 C
HETATM    8  O2  UNL     1      50.848  33.087  36.291  1.00  0.00    -0.298 OA
HETATM    9  C18 UNL     1      49.962  30.869  36.388  1.00  0.00     0.071 C
HETATM   10  C19 UNL     1      50.083  30.810  34.889  1.00  0.00     0.091 C
HETATM   11  C20 UNL     1      49.077  31.598  34.186  1.00  0.00     0.127 C
HETATM   12  O3  UNL     1      49.191  31.837  33.006  1.00  0.00    -0.298 OA
HETATM   13  C21 UNL     1      47.896  32.114  34.916  1.00  0.00     0.079 C
HETATM   14  C22 UNL     1      47.493  31.081  35.923  1.00  0.00     0.017 C
HETATM   15  C23 UNL     1      48.572  30.716  36.901  1.00  0.00    -0.029 C
HETATM   16  C24 UNL     1      48.375  29.224  37.212  1.00  0.00     0.016 C
HETATM   17  C25 UNL     1      48.356  31.563  38.140  1.00  0.00    -0.001 C
HETATM   18  C26 UNL     1      47.056  31.164  38.755  1.00  0.00     0.006 C
HETATM   19  C27 UNL     1      47.217  30.729  40.194  1.00  0.00     0.010 C
HETATM   20  C28 UNL     1      47.919  31.789  41.029  1.00  0.00    -0.036 C
HETATM   21  C29 UNL     1      47.062  32.996  41.031  1.00  0.00     0.016 C
ENDROOT
BRANCH   1  22
HETATM   22  C2  UNL     1      48.149  32.043  43.546  1.00  0.00    -0.014 C
HETATM   23  C1  UNL     1      46.731  32.253  43.922  1.00  0.00     0.010 C
BRANCH  22  24
HETATM   24  C3  UNL     1      49.053  31.787  44.681  1.00  0.00     0.007 C
BRANCH  24  25
HETATM   25  C4  UNL     1      48.502  31.330  45.962  1.00  0.00     0.033 C
BRANCH  25  26
HETATM   26  C5  UNL     1      49.254  30.694  47.029  1.00  0.00     0.190 C
BRANCH  26  27
HETATM   27  N1  UNL     1      50.102  31.793  47.620  1.00  0.00    -0.075 N
ATOM     28  H13 UNL     1      50.816  31.461  48.268  1.00  0.00     0.274 HD
ATOM     29  H12 UNL     1      50.742  32.226  46.954  1.00  0.00     0.274 HD
ATOM     30  H11 UNL     1      49.437  32.445  48.038  1.00  0.00     0.274 HD
ENDBRANCH  26  27
BRANCH  26  31
HETATM   31  C6  UNL     1      50.101  29.524  46.785  1.00  0.00     0.046 C
HETATM   32  C7  UNL     1      49.341  28.317  47.408  1.00  0.00     0.015 C
BRANCH  31  33
HETATM   33  C8  UNL     1      51.488  29.403  47.178  1.00  0.00     0.063 A
HETATM   34  C9  UNL     1      52.074  28.034  47.448  1.00  0.00     0.041 A
HETATM   35  C10 UNL     1      52.127  29.180  48.449  1.00  0.00     0.041 A
BRANCH  33  36
HETATM   36  O1  UNL     1      52.333  30.122  46.242  1.00  0.00    -0.389 OA
ATOM     37  H1  UNL     1      53.097  29.600  46.028  1.00  0.00     0.210 HD
ENDBRANCH  33  36
ENDBRANCH  31  33
ENDBRANCH  26  31
ENDBRANCH  25  26
ENDBRANCH  24  25
ENDBRANCH  22  24
ENDBRANCH   1  22
TORSDOF 8
ENDMDL