MODEL 1
REMARK VINA RESULT: -9.041834026      0.000      0.000
REMARK  8 active torsions:
REMARK  status: ('A' for Active; 'I' for Inactive)
REMARK    1  A    between atoms: C2_2  and  C3_3
REMARK    2  A    between atoms: C2_2  and  C4_6
REMARK    3  A    between atoms: C3_3  and  O1_4
REMARK    4  A    between atoms: C4_6  and  C5_7
REMARK    5  A    between atoms: C5_7  and  C6_8
REMARK    6  A    between atoms: C6_8  and  C7_9
REMARK    7  A    between atoms: C7_9  and  C9_11
REMARK    8  A    between atoms: C15_17  and  O2_18
ROOT
HETATM    1  C9  UNL     1      48.329  32.400  41.690  1.00  0.00    -0.002 C
HETATM    2  C10 UNL     1      46.837  32.126  41.516  1.00  0.00     0.006 C
HETATM    3  C11 UNL     1      46.558  32.176  40.005  1.00  0.00     0.006 C
HETATM    4  C12 UNL     1      47.803  32.886  39.538  1.00  0.00    -0.001 C
HETATM    5  C13 UNL     1      47.979  33.093  38.112  1.00  0.00     0.001 C
HETATM    6  C14 UNL     1      47.391  34.469  37.759  1.00  0.00     0.038 C
HETATM    7  C15 UNL     1      48.335  35.599  37.874  1.00  0.00     0.123 C
HETATM    8  C16 UNL     1      49.618  35.432  37.135  1.00  0.00     0.025 C
HETATM    9  C17 UNL     1      50.794  36.003  37.885  1.00  0.00     0.011 C
HETATM   10  C18 UNL     1      50.667  37.504  37.998  1.00  0.00     0.013 C
HETATM   11  C19 UNL     1      51.309  38.108  36.766  1.00  0.00     0.079 C
HETATM   12  C20 UNL     1      52.090  37.040  36.139  1.00  0.00     0.138 C
HETATM   13  O3  UNL     1      52.647  37.057  35.079  1.00  0.00    -0.297 OA
HETATM   14  C21 UNL     1      52.065  35.890  37.081  1.00  0.00     0.129 C
HETATM   15  C22 UNL     1      52.158  34.658  36.288  1.00  0.00     0.139 C
HETATM   16  O4  UNL     1      53.273  34.351  35.862  1.00  0.00    -0.297 OA
HETATM   17  C23 UNL     1      51.055  33.748  35.950  1.00  0.00     0.085 C
HETATM   18  C24 UNL     1      49.753  34.069  36.608  1.00  0.00     0.008 C
HETATM   19  C25 UNL     1      49.345  32.916  37.536  1.00  0.00    -0.035 C
HETATM   20  C26 UNL     1      49.241  31.747  36.517  1.00  0.00     0.016 C
HETATM   21  C27 UNL     1      50.410  32.511  38.478  1.00  0.00     0.011 C
HETATM   22  C28 UNL     1      50.141  32.652  39.947  1.00  0.00     0.011 C
HETATM   23  C29 UNL     1      48.829  32.077  40.292  1.00  0.00    -0.036 C
HETATM   24  C30 UNL     1      48.697  30.606  40.135  1.00  0.00     0.016 C
ENDROOT
BRANCH   1  25
HETATM   25  C7  UNL     1      48.851  31.499  42.765  1.00  0.00    -0.014 C
HETATM   26  C8  UNL     1      50.290  31.159  42.633  1.00  0.00     0.010 C
BRANCH  25  27
HETATM   27  C6  UNL     1      48.593  32.215  44.066  1.00  0.00     0.005 C
BRANCH  27  28
HETATM   28  C5  UNL     1      48.104  31.366  45.182  1.00  0.00     0.001 C
BRANCH  28  29
HETATM   29  C4  UNL     1      48.956  31.727  46.414  1.00  0.00     0.006 C
BRANCH  29  30
HETATM   30  C2  UNL     1      49.627  30.495  46.965  1.00  0.00     0.005 C
HETATM   31  C1  UNL     1      50.296  30.722  48.289  1.00  0.00     0.012 C
BRANCH  30  32
HETATM   32  C3  UNL     1      50.592  29.881  46.004  1.00  0.00     0.168 C
BRANCH  32  33
HETATM   33  O1  UNL     1      51.668  30.723  45.714  1.00  0.00    -0.400 OA
ATOM     34  H1  UNL     1      52.110  30.484  44.908  1.00  0.00     0.209 HD
ENDBRANCH  32  33
ENDBRANCH  30  32
ENDBRANCH  29  30
ENDBRANCH  28  29
ENDBRANCH  27  28
ENDBRANCH  25  27
ENDBRANCH   1  25
BRANCH   7  35
HETATM   35  O2  UNL     1      48.641  35.977  39.198  1.00  0.00    -0.395 OA
ATOM     36  H2  UNL     1      48.663  35.259  39.819  1.00  0.00     0.210 HD
ENDBRANCH   7  35
TORSDOF 8
ENDMDL