MODEL 2
REMARK VINA RESULT: -6.136245805      2.706      6.124
REMARK  9 active torsions:
REMARK  status: ('A' for Active; 'I' for Inactive)
REMARK    1  A    between atoms: C3_3  and  C5_5
REMARK    2  A    between atoms: C5_5  and  C6_6
REMARK    3  A    between atoms: C6_6  and  C8_8
REMARK    4  A    between atoms: C15_15  and  O1_16
REMARK    5  A    between atoms: C19_21  and  O2_22
REMARK    6  A    between atoms: O2_22  and  C20_23
REMARK    7  A    between atoms: C20_23  and  C21_25
REMARK    8  A    between atoms: C26_30  and  C27_31
REMARK    9  A    between atoms: C26_30  and  C29_33
ROOT
HETATM    1  C1  UNL     1      49.366  24.252  38.125  1.00  0.00     0.012 C
HETATM    2  C2  UNL     1      48.814  25.328  38.048  1.00  0.00    -0.113 C
HETATM    3  C3  UNL     1      48.151  26.645  37.978  1.00  0.00     0.064 C
HETATM    4  C4  UNL     1      48.093  26.976  36.496  1.00  0.00     0.023 C
ENDROOT
BRANCH   3   5
HETATM    5  C5  UNL     1      49.005  27.717  38.604  1.00  0.00     0.051 C
BRANCH   5   6
HETATM    6  C6  UNL     1      48.250  28.629  39.523  1.00  0.00    -0.075 C
HETATM    7  C7  UNL     1      47.053  28.007  40.152  1.00  0.00     0.044 C
BRANCH   6   8
HETATM    8  C8  UNL     1      48.180  30.046  39.111  1.00  0.00    -0.046 C
HETATM    9  C9  UNL     1      48.178  31.139  40.108  1.00  0.00    -0.066 C
HETATM   10  C10 UNL     1      46.925  31.271  40.939  1.00  0.00     0.035 C
HETATM   11  C14 UNL     1      49.436  31.437  40.840  1.00  0.00     0.044 C
HETATM   12  C11 UNL     1      46.965  32.712  41.496  1.00  0.00     0.004 C
HETATM   13  C12 UNL     1      48.108  32.855  42.470  1.00  0.00     0.001 C
HETATM   14  C13 UNL     1      49.214  31.889  42.270  1.00  0.00     0.011 C
HETATM   15  C15 UNL     1      50.283  32.524  40.202  1.00  0.00     0.126 C
HETATM   16  C16 UNL     1      50.174  32.456  38.693  1.00  0.00     0.039 C
HETATM   17  C17 UNL     1      50.292  31.107  38.126  1.00  0.00     0.022 C
HETATM   18  C18 UNL     1      49.066  30.312  37.928  1.00  0.00     0.054 C
HETATM   19  C26 UNL     1      50.787  31.130  36.667  1.00  0.00     0.072 C
HETATM   20  C19 UNL     1      48.362  30.928  36.740  1.00  0.00     0.142 C
HETATM   21  C25 UNL     1      49.517  31.340  35.855  1.00  0.00     0.058 C
BRANCH  15  22
HETATM   22  O1  UNL     1      49.880  33.802  40.574  1.00  0.00    -0.395 OA
ATOM     23  H1  UNL     1      49.190  34.144  40.018  1.00  0.00     0.210 HD
ENDBRANCH  15  22
BRANCH  20  24
HETATM   24  O2  UNL     1      47.509  31.971  37.058  1.00  0.00    -0.311 OA
BRANCH  24  25
HETATM   25  C20 UNL     1      47.416  33.083  36.270  1.00  0.00     0.289 C
HETATM   26  O3  UNL     1      46.648  33.113  35.266  1.00  0.00    -0.260 OA
BRANCH  25  27
HETATM   27  C21 UNL     1      48.193  34.281  36.545  1.00  0.00     0.009 C
HETATM   28  C22 UNL     1      47.975  34.993  37.824  1.00  0.00     0.054 C
HETATM   29  C23 UNL     1      49.083  34.756  35.696  1.00  0.00    -0.018 C
HETATM   30  C24 UNL     1      49.864  35.981  35.999  1.00  0.00     0.036 C
ENDBRANCH  25  27
ENDBRANCH  24  25
ENDBRANCH  20  24
BRANCH  19  31
HETATM   31  C27 UNL     1      51.822  32.115  36.403  1.00  0.00    -0.016 C
HETATM   32  C28 UNL     1      52.109  32.545  35.183  1.00  0.00     0.008 C
ENDBRANCH  19  31
BRANCH  19  33
HETATM   33  C29 UNL     1      51.254  29.737  36.365  1.00  0.00     0.186 C
HETATM   34  O4  UNL     1      52.120  29.149  37.060  1.00  0.00    -0.647 OA
HETATM   35  O5  UNL     1      50.728  29.058  35.289  1.00  0.00    -0.647 OA
ENDBRANCH  19  33
ENDBRANCH   6   8
ENDBRANCH   5   6
ENDBRANCH   3   5
TORSDOF 9
ENDMDL