MODEL 5
REMARK VINA RESULT: -9.105454818      7.217     10.173
REMARK  7 active torsions:
REMARK  status: ('A' for Active; 'I' for Inactive)
REMARK    1  A    between atoms: C6_6  and  C7_7
REMARK    2  A    between atoms: C7_7  and  C9_10
REMARK    3  A    between atoms: C7_7  and  C22_29
REMARK       I    between atoms: C9_10  and  N2_12
REMARK    4  A    between atoms: N2_12  and  C10_14
REMARK    5  A    between atoms: C10_14  and  C11_15
REMARK    6  A    between atoms: N3_18  and  C14_19
REMARK    7  A    between atoms: C19_24  and  O2_25
ROOT
HETATM    1  C7  UNL     1      42.366  24.626  45.120  1.00  0.00     0.137 C
HETATM    2  C8  UNL     1      42.702  24.203  43.733  1.00  0.00     0.080 C
HETATM    3  N1  UNL     1      42.989  23.859  42.643  1.00  0.00    -0.196 NA
ENDROOT
BRANCH   1   4
HETATM    4  C6  UNL     1      43.033  23.649  46.000  1.00  0.00     0.018 C
HETATM    5  C5  UNL     1      44.527  23.676  45.961  1.00  0.00     0.007 C
HETATM    6  C4  UNL     1      44.943  23.236  47.397  1.00  0.00     0.001 C
HETATM    7  C3  UNL     1      44.339  21.916  47.685  1.00  0.00     0.004 C
HETATM    8  C2  UNL     1      43.501  21.288  46.631  1.00  0.00    -0.018 C
HETATM    9  C1  UNL     1      42.673  20.187  47.288  1.00  0.00     0.010 C
HETATM   10  C28 UNL     1      42.529  22.222  45.942  1.00  0.00     0.011 C
ENDBRANCH   1   4
BRANCH   1  11
HETATM   11  C9  UNL     1      43.114  25.973  45.225  1.00  0.00     0.244 C
HETATM   12  O1  UNL     1      43.586  26.464  44.189  1.00  0.00    -0.271 OA
HETATM   13  N2  UNL     1      43.244  26.604  46.465  1.00  0.00    -0.339 N
ATOM     14  H2  UNL     1      42.822  26.108  47.250  1.00  0.00     0.167 HD
BRANCH  13  15
HETATM   15  C10 UNL     1      43.866  27.818  46.795  1.00  0.00     0.068 C
BRANCH  15  16
HETATM   16  C11 UNL     1      45.272  27.885  47.221  1.00  0.00     0.027 C
HETATM   17  C12 UNL     1      46.193  26.755  46.992  1.00  0.00     0.040 C
HETATM   18  C13 UNL     1      47.420  27.030  47.909  1.00  0.00     0.273 C
HETATM   19  N3  UNL     1      48.063  28.198  47.344  1.00  0.00     0.095 N
HETATM   20  C20 UNL     1      47.202  29.355  47.496  1.00  0.00     0.273 C
HETATM   21  C21 UNL     1      45.975  29.129  46.653  1.00  0.00     0.040 C
BRANCH  19  22
HETATM   22  C14 UNL     1      49.346  28.391  47.983  1.00  0.00     0.251 C
HETATM   23  C15 UNL     1      49.836  29.803  47.968  1.00  0.00     0.038 C
HETATM   24  C16 UNL     1      50.936  29.891  49.033  1.00  0.00     0.002 C
HETATM   25  C17 UNL     1      52.068  28.997  48.566  1.00  0.00     0.003 C
HETATM   26  C18 UNL     1      51.625  27.586  48.328  1.00  0.00     0.034 C
HETATM   27  C19 UNL     1      50.425  27.503  47.412  1.00  0.00     0.151 C
BRANCH  27  28
HETATM   28  O2  UNL     1      49.942  26.192  47.470  1.00  0.00    -0.393 OA
ATOM     29  H2  UNL     1      49.244  26.128  46.828  1.00  0.00     0.210 HD
ENDBRANCH  27  28
ENDBRANCH  19  22
ENDBRANCH  15  16
ENDBRANCH  13  15
ENDBRANCH   1  11
BRANCH   1  30
HETATM   30  C22 UNL     1      40.916  24.889  45.279  1.00  0.00     0.018 C
HETATM   31  C23 UNL     1      40.356  24.526  46.610  1.00  0.00     0.007 C
HETATM   32  C24 UNL     1      38.859  24.460  46.701  1.00  0.00     0.000 C
HETATM   33  C25 UNL     1      38.213  23.709  45.597  1.00  0.00     0.000 C
HETATM   34  C26 UNL     1      39.287  23.051  44.765  1.00  0.00     0.000 C
HETATM   35  C27 UNL     1      40.106  24.199  44.183  1.00  0.00     0.007 C
ENDBRANCH   1  30
TORSDOF 7
ENDMDL