MODEL 1
REMARK VINA RESULT: -6.593041283      0.000      0.000
REMARK  11 active torsions:
REMARK  status: ('A' for Active; 'I' for Inactive)
REMARK    1  A    between atoms: O1_3  and  C2_4
REMARK    2  A    between atoms: C2_4  and  C3_6
REMARK    3  A    between atoms: C3_6  and  C11_20
REMARK    4  A    between atoms: C4_7  and  C5_8
REMARK    5  A    between atoms: C7_10  and  N2_11
REMARK    6  A    between atoms: C9_15  and  N3_16
REMARK    7  A    between atoms: C11_20  and  O7_21
REMARK    8  A    between atoms: C11_20  and  C12_23
REMARK    9  A    between atoms: C13_24  and  C14_25
REMARK   10  A    between atoms: C16_30  and  N6_31
REMARK   11  A    between atoms: C17_36  and  N8_37
ROOT
HETATM    1  N1  UNL     1       5.544  -4.606  58.583  1.00  0.00    -0.163 NA
HETATM    2  C1  UNL     1       5.887  -5.398  57.808  1.00  0.00     0.237 C
HETATM    3  O1  UNL     1       6.289  -6.319  56.869  1.00  0.00    -0.200 OA
ENDROOT
BRANCH   3   4
HETATM    4  C2  UNL     1       7.019  -5.979  55.746  1.00  0.00     0.306 C
HETATM    5  O2  UNL     1       8.199  -5.579  55.917  1.00  0.00    -0.258 OA
BRANCH   4   6
HETATM    6  C3  UNL     1       6.401  -6.097  54.439  1.00  0.00     0.051 C
HETATM    7  C4  UNL     1       5.581  -5.178  54.032  1.00  0.00     0.027 C
BRANCH   7   8
HETATM    8  C5  UNL     1       4.850  -5.074  52.796  1.00  0.00    -0.031 A
HETATM    9  C6  UNL     1       5.326  -4.243  51.770  1.00  0.00     0.047 A
HETATM   10  C7  UNL     1       4.631  -4.107  50.577  1.00  0.00     0.106 A
HETATM   11  C8  UNL     1       3.451  -4.781  50.356  1.00  0.00     0.072 A
HETATM   12  C9  UNL     1       2.976  -5.598  51.357  1.00  0.00     0.106 A
HETATM   13  C10 UNL     1       3.677  -5.738  52.565  1.00  0.00     0.047 A
BRANCH  10  14
HETATM   14  N2  UNL     1       5.134  -3.260  49.556  1.00  0.00    -0.116 N
HETATM   15  O3  UNL     1       5.666  -2.163  49.872  1.00  0.00    -0.532 OA
HETATM   16  O4  UNL     1       5.033  -3.653  48.259  1.00  0.00    -0.532 OA
ENDBRANCH  10  14
BRANCH  12  17
HETATM   17  N3  UNL     1       1.757  -6.329  51.192  1.00  0.00    -0.116 N
HETATM   18  O5  UNL     1       1.155  -6.259  50.098  1.00  0.00    -0.532 OA
HETATM   19  O6  UNL     1       1.246  -7.098  52.207  1.00  0.00    -0.532 OA
ENDBRANCH  12  17
ENDBRANCH   7   8
BRANCH   6  20
HETATM   20  C11 UNL     1       6.753  -7.253  53.608  1.00  0.00     0.180 C
BRANCH  20  21
HETATM   21  O7  UNL     1       7.451  -6.707  52.484  1.00  0.00    -0.387 OA
ATOM     22  H7  UNL     1       8.012  -7.409  52.176  1.00  0.00     0.210 HD
ENDBRANCH  20  21
BRANCH  20  23
HETATM   23  C12 UNL     1       7.776  -8.153  54.277  1.00  0.00     0.010 C
HETATM   24  C13 UNL     1       8.234  -9.197  53.664  1.00  0.00     0.017 C
BRANCH  24  25
HETATM   25  C14 UNL     1       9.185 -10.198  54.051  1.00  0.00     0.050 A
HETATM   26  C15 UNL     1      10.517 -10.085  53.616  1.00  0.00     0.145 A
HETATM   27  N4  UNL     1      10.895  -8.979  52.788  1.00  0.00    -0.081 NA
HETATM   28  N5  UNL     1      11.409 -11.012  53.978  1.00  0.00    -0.178 N
HETATM   29  C16 UNL     1      11.080 -12.060  54.749  1.00  0.00     0.678 A
ATOM     30  H5  UNL     1      12.372 -10.920  53.658  1.00  0.00     0.185 HD
HETATM   31  N7  UNL     1       9.818 -12.172  55.164  1.00  0.00    -0.176 N
HETATM   32  C17 UNL     1       8.849 -11.271  54.841  1.00  0.00     0.128 A
ATOM     33  H7  UNL     1       9.567 -12.968  55.751  1.00  0.00     0.186 HD
BRANCH  29  34
HETATM   34  N6  UNL     1      11.945 -12.954  55.100  1.00  0.00    -0.234 N
ATOM     35  H62 UNL     1      11.718 -13.942  54.991  1.00  0.00     0.174 HD
ATOM     36  H61 UNL     1      12.856 -12.705  55.488  1.00  0.00     0.174 HD
ENDBRANCH  29  34
BRANCH  32  37
HETATM   37  N8  UNL     1       7.673 -11.467  55.301  1.00  0.00    -0.384 N
ATOM     38  H82 UNL     1       6.887 -11.054  54.798  1.00  0.00     0.157 HD
ATOM     39  H81 UNL     1       7.480 -12.018  56.137  1.00  0.00     0.157 HD
ENDBRANCH  32  37
ENDBRANCH  24  25
ENDBRANCH  20  23
ENDBRANCH   6  20
ENDBRANCH   4   6
ENDBRANCH   3   4
TORSDOF 11
ENDMDL