MODEL 2
REMARK VINA RESULT: -8.800185202      1.127      2.781
REMARK  15 active torsions:
REMARK  status: ('A' for Active; 'I' for Inactive)
REMARK    1  A    between atoms: O1_1  and  C1_3
REMARK    2  A    between atoms: C1_3  and  N1_4
REMARK    3  A    between atoms: C1_3  and  C16_32
REMARK    4  A    between atoms: N1_4  and  C2_5
REMARK    5  A    between atoms: C2_5  and  C3_6
REMARK    6  A    between atoms: C5_8  and  O2_9
REMARK    7  A    between atoms: C6_11  and  O3_12
REMARK    8  A    between atoms: C7_14  and  N2_15
REMARK    9  A    between atoms: N2_15  and  N3_17
REMARK   10  A    between atoms: N3_17  and  C8_18
REMARK   11  A    between atoms: C8_18  and  C9_19
REMARK   12  A    between atoms: C13_23  and  N4_24
REMARK   13  A    between atoms: C15_28  and  N5_29
REMARK   14  A    between atoms: C16_32  and  O8_33
REMARK   15  A    between atoms: N6_35  and  O9_37
ROOT
HETATM    1  C3  UNL     1       3.637  -4.593  48.434  1.00  0.00     0.031 A
HETATM    2  C4  UNL     1       4.673  -3.800  48.016  1.00  0.00     0.056 A
HETATM    3  C5  UNL     1       5.542  -3.251  48.971  1.00  0.00     0.102 A
HETATM    4  C6  UNL     1       5.373  -3.494  50.299  1.00  0.00     0.129 A
HETATM    5  C7  UNL     1       4.327  -4.297  50.738  1.00  0.00     0.114 A
HETATM    6  C15 UNL     1       3.489  -4.824  49.805  1.00  0.00     0.146 A
ENDROOT
BRANCH   5   7
HETATM    7  N2  UNL     1       4.185  -4.541  52.124  1.00  0.00    -0.299 N
ATOM      8  H2  UNL     1       3.712  -3.817  52.664  1.00  0.00     0.182 HD
BRANCH   7   9
HETATM    9  N3  UNL     1       4.613  -5.641  52.823  1.00  0.00    -0.136 NA
BRANCH   9  10
HETATM   10  C8  UNL     1       5.658  -5.350  53.776  1.00  0.00     0.173 C
BRANCH  10  11
HETATM   11  C9  UNL     1       6.795  -6.270  53.755  1.00  0.00    -0.040 A
HETATM   12  C10 UNL     1       7.476  -6.422  54.958  1.00  0.00     0.008 A
HETATM   13  C11 UNL     1       8.564  -7.251  55.119  1.00  0.00     0.003 A
HETATM   14  C12 UNL     1       8.989  -7.968  54.002  1.00  0.00     0.036 A
HETATM   15  C13 UNL     1       8.338  -7.842  52.793  1.00  0.00     0.103 A
HETATM   16  C14 UNL     1       7.241  -6.985  52.693  1.00  0.00     0.044 A
BRANCH  15  17
HETATM   17  N4  UNL     1       8.775  -8.574  51.657  1.00  0.00    -0.116 N
HETATM   18  O4  UNL     1       9.892  -8.332  51.175  1.00  0.00    -0.532 OA
HETATM   19  O5  UNL     1       7.964  -9.534  51.109  1.00  0.00    -0.532 OA
ENDBRANCH  15  17
ENDBRANCH  10  11
ENDBRANCH   9  10
ENDBRANCH   7   9
ENDBRANCH   5   7
BRANCH   4  20
HETATM   20  O3  UNL     1       6.219  -2.964  51.273  1.00  0.00    -0.356 OA
ATOM     21  H3  UNL     1       7.037  -2.530  51.058  1.00  0.00     0.218 HD
ENDBRANCH   4  20
BRANCH   6  22
HETATM   22  N5  UNL     1       2.371  -5.634  50.189  1.00  0.00    -0.112 N
HETATM   23  O6  UNL     1       2.627  -6.748  50.683  1.00  0.00    -0.532 OA
HETATM   24  O7  UNL     1       1.079  -5.252  50.037  1.00  0.00    -0.532 OA
ENDBRANCH   6  22
BRANCH   3  25
HETATM   25  O2  UNL     1       6.560  -2.464  48.487  1.00  0.00    -0.358 OA
ATOM     26  H2  UNL     1       6.312  -1.603  48.172  1.00  0.00     0.217 HD
ENDBRANCH   3  25
BRANCH   1  27
HETATM   27  C2  UNL     1       2.696  -5.184  47.451  1.00  0.00     0.199 C
BRANCH  27  28
HETATM   28  N1  UNL     1       2.892  -5.252  46.293  1.00  0.00    -0.389 NA
BRANCH  28  29
HETATM   29  C1  UNL     1       3.112  -5.258  45.011  1.00  0.00     0.267 C
BRANCH  29  30
HETATM   30  O1  UNL     1       2.220  -5.745  44.195  1.00  0.00    -0.332 OA
ATOM     31  H1  UNL     1       2.490  -6.185  43.398  1.00  0.00     0.220 HD
ENDBRANCH  29  30
BRANCH  29  32
HETATM   32  C16 UNL     1       4.346  -4.739  44.363  1.00  0.00     0.227 C
HETATM   33  N6  UNL     1       4.684  -3.519  44.441  1.00  0.00    -0.243 N
ATOM     34  H6  UNL     1       5.537  -3.195  43.986  1.00  0.00     0.196 HD
BRANCH  32  35
HETATM   35  O8  UNL     1       5.154  -5.613  43.654  1.00  0.00    -0.341 OA
ATOM     36  H8  UNL     1       5.509  -5.338  42.817  1.00  0.00     0.219 HD
ENDBRANCH  32  35
BRANCH  33  37
HETATM   37  O9  UNL     1       3.900  -2.640  45.136  1.00  0.00    -0.288 OA
ATOM     38  H9  UNL     1       3.075  -2.934  45.505  1.00  0.00     0.244 HD
ENDBRANCH  33  37
ENDBRANCH  29  32
ENDBRANCH  28  29
ENDBRANCH  27  28
ENDBRANCH   1  27
TORSDOF 15
ENDMDL