MODEL 3
REMARK VINA RESULT: -7.164733777      1.425      2.037
REMARK  11 active torsions:
REMARK  status: ('A' for Active; 'I' for Inactive)
REMARK    1  A    between atoms: N1_1  and  N2_4
REMARK    2  A    between atoms: N2_4  and  C1_6
REMARK    3  A    between atoms: C3_8  and  C4_9
REMARK    4  A    between atoms: C5_13  and  C6_14
REMARK    5  A    between atoms: C6_14  and  S1_15
REMARK    6  A    between atoms: S1_15  and  C7_16
REMARK    7  A    between atoms: C12_21  and  N4_22
REMARK    8  A    between atoms: C13_25  and  O3_26
REMARK    9  A    between atoms: C14_28  and  O4_29
REMARK   10  A    between atoms: C15_31  and  O5_32
REMARK   11  A    between atoms: C16_35  and  N5_36
ROOT
HETATM    1  C4  UNL     1       5.017  -3.614  50.744  1.00  0.00     0.274 C
HETATM    2  N3  UNL     1       6.064  -4.562  51.076  1.00  0.00    -0.055 N
ATOM      3  H31 UNL     1       6.941  -4.383  50.586  1.00  0.00     0.278 HD
ATOM      4  H32 UNL     1       5.897  -5.496  50.700  1.00  0.00     0.278 HD
HETATM    5  C5  UNL     1       6.200  -4.541  52.516  1.00  0.00     0.227 C
HETATM    6  C13 UNL     1       5.033  -5.307  53.087  1.00  0.00     0.180 C
HETATM    7  C14 UNL     1       3.721  -4.927  52.454  1.00  0.00     0.180 C
HETATM    8  C15 UNL     1       3.804  -3.707  51.588  1.00  0.00     0.186 C
ENDROOT
BRANCH   1   9
HETATM    9  C3  UNL     1       4.706  -3.760  49.280  1.00  0.00     0.091 A
HETATM   10  C2  UNL     1       5.414  -3.246  48.229  1.00  0.00     0.070 A
HETATM   11  C1  UNL     1       4.760  -3.633  47.031  1.00  0.00     0.107 A
HETATM   12  C16 UNL     1       3.690  -4.363  47.452  1.00  0.00     0.243 A
HETATM   13  O6  UNL     1       3.706  -4.407  48.788  1.00  0.00    -0.289 OA
BRANCH  11  14
HETATM   14  N2  UNL     1       5.222  -3.272  45.737  1.00  0.00    -0.303 N
ATOM     15  H2  UNL     1       6.221  -3.404  45.582  1.00  0.00     0.186 HD
BRANCH  14  16
HETATM   16  N1  UNL     1       4.532  -2.776  44.674  1.00  0.00    -0.345 N
ATOM     17  H12 UNL     1       5.126  -2.403  43.934  1.00  0.00     0.176 HD
ATOM     18  H11 UNL     1       3.526  -2.725  44.516  1.00  0.00     0.176 HD
ENDBRANCH  14  16
ENDBRANCH  11  14
BRANCH  12  19
HETATM   19  N5  UNL     1       2.697  -4.992  46.661  1.00  0.00    -0.088 N
HETATM   20  O7  UNL     1       2.696  -5.220  45.464  1.00  0.00    -0.530 OA
HETATM   21  O8  UNL     1       1.535  -5.426  47.321  1.00  0.00    -0.530 OA
ENDBRANCH  12  19
ENDBRANCH   1   9
BRANCH   8  22
HETATM   22  O5  UNL     1       2.635  -3.633  50.828  1.00  0.00    -0.390 OA
ATOM     23  H5  UNL     1       2.699  -2.979  50.142  1.00  0.00     0.210 HD
ENDBRANCH   8  22
BRANCH   5  24
HETATM   24  C6  UNL     1       7.486  -5.195  52.972  1.00  0.00     0.115 C
BRANCH  24  25
HETATM   25  S1  UNL     1       7.143  -6.943  53.284  1.00  0.00    -0.125 SA
BRANCH  25  26
HETATM   26  C7  UNL     1       8.389  -7.993  52.556  1.00  0.00     0.033 A
HETATM   27  C8  UNL     1       8.164  -8.738  51.424  1.00  0.00     0.021 A
HETATM   28  C9  UNL     1       9.158  -9.539  50.893  1.00  0.00     0.002 A
HETATM   29  C10 UNL     1      10.399  -9.609  51.491  1.00  0.00     0.003 A
HETATM   30  C11 UNL     1      10.650  -8.871  52.627  1.00  0.00     0.037 A
HETATM   31  C12 UNL     1       9.629  -8.069  53.145  1.00  0.00     0.119 A
BRANCH  31  32
HETATM   32  N4  UNL     1       9.901  -7.316  54.314  1.00  0.00    -0.114 N
HETATM   33  O1  UNL     1       9.403  -7.588  55.415  1.00  0.00    -0.532 OA
HETATM   34  O2  UNL     1      10.754  -6.245  54.206  1.00  0.00    -0.532 OA
ENDBRANCH  31  32
ENDBRANCH  25  26
ENDBRANCH  24  25
ENDBRANCH   5  24
BRANCH   7  35
HETATM   35  O4  UNL     1       3.178  -5.983  51.718  1.00  0.00    -0.390 OA
ATOM     36  H4  UNL     1       2.596  -5.673  51.034  1.00  0.00     0.210 HD
ENDBRANCH   7  35
BRANCH   6  37
HETATM   37  O3  UNL     1       5.047  -5.161  54.460  1.00  0.00    -0.391 OA
ATOM     38  H3  UNL     1       5.067  -6.027  54.852  1.00  0.00     0.210 HD
ENDBRANCH   6  37
TORSDOF 11
ENDMDL