MODEL 3
REMARK VINA RESULT: -8.521647281      2.078      2.581
REMARK  11 active torsions:
REMARK  status: ('A' for Active; 'I' for Inactive)
REMARK    1  A    between atoms: C1_4  and  C2_5
REMARK    2  A    between atoms: C1_4  and  N3_9
REMARK    3  A    between atoms: C2_5  and  N2_6
REMARK    4  A    between atoms: N3_9  and  S1_11
REMARK    5  A    between atoms: S1_11  and  C3_12
REMARK    6  A    between atoms: C5_18  and  C6_19
REMARK       I    between atoms: C6_19  and  N5_21
REMARK    7  A    between atoms: N5_21  and  N6_22
REMARK    8  A    between atoms: C7_24  and  C8_25
REMARK    9  A    between atoms: C11_28  and  O6_29
REMARK   10  A    between atoms: C12_31  and  O7_32
REMARK   11  A    between atoms: C13_34  and  N7_35
ROOT
HETATM    1  C6  UNL     1       3.149  -4.510  51.661  1.00  0.00     0.354 C
HETATM    2  O5  UNL     1       2.799  -3.364  51.988  1.00  0.00    -0.249 OA
HETATM    3  N5  UNL     1       4.288  -5.152  52.071  1.00  0.00    -0.281 NA
ENDROOT
BRANCH   1   4
HETATM    4  C5  UNL     1       2.273  -5.256  50.741  1.00  0.00     0.162 A
HETATM    5  C3  UNL     1       2.167  -4.999  49.345  1.00  0.00     0.135 A
HETATM    6  N4  UNL     1       1.287  -5.925  48.967  1.00  0.00    -0.248 N
HETATM    7  O3  UNL     1       0.864  -6.667  49.927  1.00  0.00    -0.194 OA
ATOM      8  H4  UNL     1       0.976  -6.034  48.002  1.00  0.00     0.195 HD
HETATM    9  C4  UNL     1       1.434  -6.302  51.026  1.00  0.00     0.324 A
HETATM   10  O4  UNL     1       1.308  -6.777  52.217  1.00  0.00    -0.257 OA
BRANCH   5  11
HETATM   11  S1  UNL     1       3.060  -3.751  48.456  1.00  0.00     0.008 SA
BRANCH  11  12
HETATM   12  N3  UNL     1       4.810  -4.100  48.589  1.00  0.00    -0.313 N
ATOM     13  H3  UNL     1       5.195  -4.850  48.015  1.00  0.00     0.175 HD
BRANCH  12  14
HETATM   14  C1  UNL     1       5.688  -3.397  49.442  1.00  0.00     0.105 C
HETATM   15  N1  UNL     1       5.200  -2.615  50.338  1.00  0.00    -0.387 N
ATOM     16  H12 UNL     1       5.834  -2.106  50.954  1.00  0.00     0.157 HD
ATOM     17  H11 UNL     1       4.185  -2.529  50.385  1.00  0.00     0.157 HD
BRANCH  14  18
HETATM   18  C2  UNL     1       7.164  -3.521  49.372  1.00  0.00     0.277 C
BRANCH  18  19
HETATM   19  N2  UNL     1       7.713  -2.598  48.400  1.00  0.00    -0.148 N
HETATM   20  O1  UNL     1       8.935  -2.404  48.258  1.00  0.00    -0.536 OA
HETATM   21  O2  UNL     1       6.856  -1.900  47.587  1.00  0.00    -0.536 OA
ENDBRANCH  18  19
ENDBRANCH  14  18
ENDBRANCH  12  14
ENDBRANCH  11  12
ENDBRANCH   5  11
ENDBRANCH   1   4
BRANCH   3  22
HETATM   22  N6  UNL     1       5.356  -5.755  52.457  1.00  0.00    -0.242 N
HETATM   23  C7  UNL     1       6.034  -5.951  53.524  1.00  0.00     0.135 C
ATOM     24  H6  UNL     1       5.801  -6.222  51.667  1.00  0.00     0.201 HD
BRANCH  23  25
HETATM   25  C8  UNL     1       7.241  -6.745  53.482  1.00  0.00     0.018 A
HETATM   26  C9  UNL     1       7.492  -7.453  52.318  1.00  0.00     0.018 A
HETATM   27  C10 UNL     1       8.643  -8.180  52.167  1.00  0.00     0.040 A
HETATM   28  C11 UNL     1       9.542  -8.191  53.209  1.00  0.00     0.101 A
HETATM   29  C12 UNL     1       9.317  -7.504  54.369  1.00  0.00     0.133 A
HETATM   30  C13 UNL     1       8.120  -6.759  54.505  1.00  0.00     0.150 A
BRANCH  28  31
HETATM   31  O6  UNL     1      10.742  -8.922  53.097  1.00  0.00    -0.358 OA
ATOM     32  H6  UNL     1      10.857  -9.541  52.386  1.00  0.00     0.217 HD
ENDBRANCH  28  31
BRANCH  29  33
HETATM   33  O7  UNL     1      10.224  -7.530  55.378  1.00  0.00    -0.356 OA
ATOM     34  H7  UNL     1      11.156  -7.531  55.192  1.00  0.00     0.218 HD
ENDBRANCH  29  33
BRANCH  30  35
HETATM   35  N7  UNL     1       7.949  -6.112  55.752  1.00  0.00    -0.112 N
HETATM   36  O8  UNL     1       8.747  -5.216  56.085  1.00  0.00    -0.532 OA
HETATM   37  O9  UNL     1       6.924  -6.435  56.576  1.00  0.00    -0.532 OA
ENDBRANCH  30  35
ENDBRANCH  23  25
ENDBRANCH   3  22
TORSDOF 11
ENDMDL