MODEL 5
REMARK VINA RESULT: -8.536836852      1.341      1.496
REMARK  11 active torsions:
REMARK  status: ('A' for Active; 'I' for Inactive)
REMARK    1  A    between atoms: N1_2  and  C1_4
REMARK    2  A    between atoms: C4_7  and  O3_8
REMARK    3  A    between atoms: C5_10  and  C6_11
REMARK    4  A    between atoms: C6_11  and  N2_12
REMARK    5  A    between atoms: C6_11  and  C15_33
REMARK    6  A    between atoms: N2_12  and  C7_14
REMARK    7  A    between atoms: C7_14  and  C8_15
REMARK    8  A    between atoms: C8_15  and  O4_16
REMARK    9  A    between atoms: C8_15  and  C9_18
REMARK   10  A    between atoms: C10_23  and  C11_24
REMARK   11  A    between atoms: C14_27  and  O5_28
ROOT
HETATM    1  C6  UNL     1       6.709  -5.965  54.806  1.00  0.00     0.092 C
ENDROOT
BRANCH   1   2
HETATM    2  C5  UNL     1       7.841  -6.948  54.639  1.00  0.00     0.030 A
HETATM    3  C4  UNL     1       9.146  -6.647  54.970  1.00  0.00     0.078 A
HETATM    4  C3  UNL     1      10.170  -7.573  54.820  1.00  0.00     0.040 A
HETATM    5  C2  UNL     1       9.911  -8.822  54.335  1.00  0.00     0.039 A
HETATM    6  C1  UNL     1       8.626  -9.139  54.001  1.00  0.00     0.103 A
HETATM    7  C16 UNL     1       7.615  -8.220  54.151  1.00  0.00     0.052 A
BRANCH   3   8
HETATM    8  O3  UNL     1       9.529  -5.414  55.468  1.00  0.00    -0.360 OA
ATOM      9  H3  UNL     1      10.162  -4.941  54.941  1.00  0.00     0.217 HD
ENDBRANCH   3   8
BRANCH   6  10
HETATM   10  N1  UNL     1       8.353 -10.433  53.497  1.00  0.00    -0.116 N
HETATM   11  O1  UNL     1       8.049 -10.613  52.289  1.00  0.00    -0.532 OA
HETATM   12  O2  UNL     1       8.428 -11.502  54.355  1.00  0.00    -0.532 OA
ENDBRANCH   6  10
ENDBRANCH   1   2
BRANCH   1  13
HETATM   13  N2  UNL     1       5.774  -5.967  53.789  1.00  0.00    -0.363 N
ATOM     14  H2  UNL     1       4.891  -6.439  53.982  1.00  0.00     0.165 HD
BRANCH  13  15
HETATM   15  C7  UNL     1       5.910  -5.400  52.543  1.00  0.00     0.101 C
BRANCH  15  16
HETATM   16  C8  UNL     1       5.168  -4.128  52.249  1.00  0.00     0.232 C
BRANCH  16  17
HETATM   17  O4  UNL     1       5.986  -3.003  52.479  1.00  0.00    -0.382 OA
ATOM     18  H4  UNL     1       5.461  -2.235  52.668  1.00  0.00     0.211 HD
ENDBRANCH  16  17
BRANCH  16  19
HETATM   19  C9  UNL     1       4.872  -4.033  50.762  1.00  0.00     0.174 A
HETATM   20  N3  UNL     1       5.752  -3.692  49.798  1.00  0.00    -0.279 N
HETATM   21  N4  UNL     1       5.060  -3.739  48.665  1.00  0.00    -0.276 N
ATOM     22  H3  UNL     1       6.736  -3.449  49.914  1.00  0.00     0.189 HD
HETATM   23  C10 UNL     1       3.791  -4.098  48.910  1.00  0.00     0.191 A
ATOM     24  H4  UNL     1       5.440  -3.533  47.741  1.00  0.00     0.189 HD
HETATM   25  O6  UNL     1       3.710  -4.270  50.203  1.00  0.00    -0.273 OA
BRANCH  23  26
HETATM   26  C11 UNL     1       2.744  -4.251  47.900  1.00  0.00     0.087 A
HETATM   27  C12 UNL     1       2.839  -5.055  46.786  1.00  0.00     0.038 A
HETATM   28  C13 UNL     1       1.668  -4.965  46.043  1.00  0.00     0.058 A
HETATM   29  C14 UNL     1       0.875  -4.086  46.745  1.00  0.00     0.140 A
HETATM   30  N5  UNL     1       1.539  -3.666  47.861  1.00  0.00    -0.334 N
ATOM     31  H5  UNL     1       1.176  -3.012  48.554  1.00  0.00     0.168 HD
BRANCH  29  32
HETATM   32  O5  UNL     1      -0.411  -3.654  46.420  1.00  0.00    -0.346 OA
ATOM     33  H5  UNL     1      -1.156  -4.189  46.169  1.00  0.00     0.219 HD
ENDBRANCH  29  32
ENDBRANCH  23  26
ENDBRANCH  16  19
ENDBRANCH  15  16
ENDBRANCH  13  15
ENDBRANCH   1  13
BRANCH   1  34
HETATM   34  C15 UNL     1       6.317  -5.771  56.213  1.00  0.00     0.165 A
HETATM   35  N6  UNL     1       6.976  -6.041  57.338  1.00  0.00    -0.267 N
HETATM   36  N7  UNL     1       6.264  -5.700  58.379  1.00  0.00    -0.227 N
ATOM     37  H6  UNL     1       7.906  -6.457  57.381  1.00  0.00     0.190 HD
HETATM   38  N8  UNL     1       5.126  -5.199  57.952  1.00  0.00    -0.227 N
ATOM     39  H7  UNL     1       6.543  -5.804  59.354  1.00  0.00     0.210 HD
HETATM   40  N9  UNL     1       5.131  -5.229  56.642  1.00  0.00    -0.267 N
ATOM     41  H8  UNL     1       4.370  -4.846  58.539  1.00  0.00     0.210 HD
ATOM     42  H9  UNL     1       4.376  -4.904  56.038  1.00  0.00     0.190 HD
ENDBRANCH   1  34
TORSDOF 11
ENDMDL