MODEL 1
REMARK VINA RESULT: -8.717555791      0.000      0.000
REMARK  12 active torsions:
REMARK  status: ('A' for Active; 'I' for Inactive)
REMARK    1  A    between atoms: N1_1  and  C1_4
REMARK    2  A    between atoms: N3_8  and  C3_10
REMARK    3  A    between atoms: C3_10  and  O6_34
REMARK    4  A    between atoms: N4_11  and  C4_13
REMARK    5  A    between atoms: C6_15  and  C7_16
REMARK       I    between atoms: C7_16  and  N5_18
REMARK    6  A    between atoms: N5_18  and  N6_20
REMARK    7  A    between atoms: N6_20  and  C8_22
REMARK    8  A    between atoms: C8_22  and  C9_23
REMARK    9  A    between atoms: C12_26  and  N7_27
REMARK   10  A    between atoms: O6_34  and  N9_35
REMARK   11  A    between atoms: C15_40  and  C16_41
REMARK   12  A    between atoms: C16_41  and  N10_42
ROOT
HETATM    1  C3  UNL     1       9.952  -8.293  52.268  1.00  0.00     0.249 C
HETATM    2  N4  UNL     1       9.978  -7.026  52.365  1.00  0.00    -0.302 N
ATOM      3  H4  UNL     1       9.927  -6.308  51.643  1.00  0.00     0.171 HD
ENDROOT
BRANCH   2   4
HETATM    4  C4  UNL     1      10.111  -6.893  53.915  1.00  0.00     0.155 A
HETATM    5  C5  UNL     1       8.843  -6.618  54.370  1.00  0.00     0.152 A
HETATM    6  C6  UNL     1       8.917  -6.499  55.916  1.00  0.00     0.109 A
HETATM    7  N8  UNL     1      10.098  -6.729  55.991  1.00  0.00    -0.258 N
HETATM    8  O5  UNL     1      10.818  -6.975  54.851  1.00  0.00    -0.224 OA
ATOM      9  H8  UNL     1      10.560  -6.739  56.901  1.00  0.00     0.194 HD
BRANCH   6  10
HETATM   10  C7  UNL     1       7.346  -6.203  56.006  1.00  0.00     0.285 C
HETATM   11  O1  UNL     1       7.088  -5.994  57.085  1.00  0.00    -0.265 OA
HETATM   12  N5  UNL     1       6.949  -6.375  54.689  1.00  0.00    -0.258 N
ATOM     13  H5  UNL     1       7.677  -6.499  53.986  1.00  0.00     0.191 HD
BRANCH  12  14
HETATM   14  N6  UNL     1       5.664  -6.389  54.273  1.00  0.00    -0.260 N
ATOM     15  H6  UNL     1       5.056  -7.063  54.740  1.00  0.00     0.197 HD
BRANCH  14  16
HETATM   16  C8  UNL     1       5.174  -5.760  53.481  1.00  0.00     0.012 C
BRANCH  16  17
HETATM   17  C9  UNL     1       4.496  -5.043  52.491  1.00  0.00     0.141 A
HETATM   18  C10 UNL     1       4.438  -3.791  51.955  1.00  0.00     0.052 A
HETATM   19  C11 UNL     1       3.428  -3.699  51.012  1.00  0.00     0.066 A
HETATM   20  C12 UNL     1       2.849  -4.958  50.982  1.00  0.00     0.215 A
HETATM   21  O4  UNL     1       3.475  -5.710  51.794  1.00  0.00    -0.279 OA
BRANCH  20  22
HETATM   22  N7  UNL     1       1.735  -5.432  50.198  1.00  0.00    -0.090 N
HETATM   23  O2  UNL     1       1.064  -6.468  50.546  1.00  0.00    -0.530 OA
HETATM   24  O3  UNL     1       1.425  -4.776  49.084  1.00  0.00    -0.530 OA
ENDBRANCH  20  22
ENDBRANCH  16  17
ENDBRANCH  14  16
ENDBRANCH  12  14
ENDBRANCH   6  10
ENDBRANCH   2   4
BRANCH   1  25
HETATM   25  N3  UNL     1      10.096  -9.403  53.016  1.00  0.00    -0.306 N
HETATM   26  C2  UNL     1       9.597 -10.477  53.606  1.00  0.00     0.109 A
HETATM   27  N2  UNL     1      10.463 -11.077  54.539  1.00  0.00    -0.328 N
HETATM   28  C13 UNL     1       8.326 -10.908  53.657  1.00  0.00     0.049 A
HETATM   29  C1  UNL     1      10.044 -11.949  55.392  1.00  0.00     0.108 A
ATOM     30  H2  UNL     1      11.449 -10.816  54.540  1.00  0.00     0.169 HD
HETATM   31  C15 UNL     1       8.703 -12.416  55.478  1.00  0.00     0.011 A
HETATM   32  C14 UNL     1       7.820 -11.865  54.566  1.00  0.00     0.016 A
ATOM     33  H3  UNL     1      11.090  -9.428  53.244  1.00  0.00     0.171 HD
BRANCH  29  34
HETATM   34  N1  UNL     1      10.707 -12.477  56.278  1.00  0.00    -0.385 N
ATOM     35  H12 UNL     1      11.603 -12.774  55.890  1.00  0.00     0.157 HD
ATOM     36  H11 UNL     1      10.414 -12.633  57.242  1.00  0.00     0.157 HD
ENDBRANCH  29  34
BRANCH  31  37
HETATM   37  C16 UNL     1       8.469 -13.510  56.450  1.00  0.00     0.271 C
BRANCH  37  38
HETATM   38  N10 UNL     1       7.212 -14.232  56.344  1.00  0.00    -0.075 N
ATOM     39 3H10 UNL     1       6.555 -13.874  57.037  1.00  0.00     0.274 HD
ATOM     40 2H10 UNL     1       6.740 -13.967  55.480  1.00  0.00     0.274 HD
ATOM     41 1H10 UNL     1       7.254 -15.249  56.410  1.00  0.00     0.274 HD
ENDBRANCH  37  38
ENDBRANCH  31  37
ENDBRANCH   1  25
BRANCH   1  42
HETATM   42  O6  UNL     1       9.625  -8.582  50.793  1.00  0.00    -0.207 OA
BRANCH  42  43
HETATM   43  N9  UNL     1      10.382  -9.462  50.127  1.00  0.00    -0.302 N
ATOM     44  H92 UNL     1      10.574 -10.376  50.537  1.00  0.00     0.184 HD
ATOM     45  H91 UNL     1      10.754  -9.196  49.216  1.00  0.00     0.184 HD
ENDBRANCH  42  43
ENDBRANCH   1  42
TORSDOF 12
ENDMDL