MODEL 4
REMARK VINA RESULT: -7.354617590      3.585      9.897
REMARK  12 active torsions:
REMARK  status: ('A' for Active; 'I' for Inactive)
REMARK    1  A    between atoms: N2_3  and  C2_5
REMARK    2  A    between atoms: C2_5  and  N3_6
REMARK    3  A    between atoms: C2_5  and  C3_10
REMARK    4  A    between atoms: C3_10  and  N8_30
REMARK    5  A    between atoms: N4_11  and  N5_13
REMARK    6  A    between atoms: N5_13  and  C4_15
REMARK    7  A    between atoms: C7_18  and  C8_19
REMARK    8  A    between atoms: C8_19  and  N6_20
REMARK    9  A    between atoms: C8_19  and  N7_24
REMARK   10  A    between atoms: N8_30  and  N9_32
REMARK   11  A    between atoms: C11_34  and  C12_35
REMARK   12  A    between atoms: C14_39  and  N11_40
ROOT
HETATM    1  N1  UNL     1       0.719  -6.699  50.480  1.00  0.00    -0.172 NA
HETATM    2  C1  UNL     1       1.618  -6.109  50.961  1.00  0.00     0.179 C
HETATM    3  N2  UNL     1       2.690  -5.439  51.524  1.00  0.00    -0.293 N
ATOM      4  H2  UNL     1       3.324  -5.952  52.137  1.00  0.00     0.174 HD
ENDROOT
BRANCH   3   5
HETATM    5  C2  UNL     1       2.940  -4.058  51.275  1.00  0.00     0.361 C
BRANCH   5   6
HETATM    6  N3  UNL     1       2.907  -3.355  52.559  1.00  0.00    -0.051 N
ATOM      7  H33 UNL     1       2.030  -2.857  52.715  1.00  0.00     0.277 HD
ATOM      8  H32 UNL     1       2.846  -3.990  53.355  1.00  0.00     0.277 HD
ATOM      9  H31 UNL     1       3.722  -2.743  52.604  1.00  0.00     0.277 HD
ENDBRANCH   5   6
BRANCH   5  10
HETATM   10  C3  UNL     1       4.172  -3.748  50.551  1.00  0.00     0.162 C
HETATM   11  N4  UNL     1       4.168  -3.774  49.262  1.00  0.00    -0.284 N
ATOM     12  H4  UNL     1       5.021  -3.562  48.744  1.00  0.00     0.188 HD
BRANCH  11  13
HETATM   13  N5  UNL     1       3.014  -4.090  48.585  1.00  0.00    -0.299 N
ATOM     14  H5  UNL     1       2.126  -3.981  49.077  1.00  0.00     0.187 HD
BRANCH  13  15
HETATM   15  C4  UNL     1       2.976  -4.557  47.243  1.00  0.00     0.048 A
HETATM   16  C5  UNL     1       4.120  -4.796  46.535  1.00  0.00     0.031 A
HETATM   17  C6  UNL     1       4.040  -5.252  45.225  1.00  0.00     0.013 A
HETATM   18  C7  UNL     1       2.819  -5.475  44.603  1.00  0.00    -0.001 A
HETATM   19  C9  UNL     1       1.671  -5.233  45.326  1.00  0.00     0.013 A
HETATM   20  C10 UNL     1       1.780  -4.781  46.621  1.00  0.00     0.031 A
BRANCH  18  21
HETATM   21  C8  UNL     1       2.718  -5.960  43.211  1.00  0.00     0.411 C
BRANCH  21  22
HETATM   22  N6  UNL     1       3.570  -5.196  42.302  1.00  0.00    -0.046 N
ATOM     23  H63 UNL     1       3.765  -4.266  42.672  1.00  0.00     0.277 HD
ATOM     24  H62 UNL     1       4.521  -5.566  42.289  1.00  0.00     0.277 HD
ATOM     25  H61 UNL     1       3.179  -5.147  41.362  1.00  0.00     0.277 HD
ENDBRANCH  21  22
BRANCH  21  26
HETATM   26  N7  UNL     1       1.376  -5.941  42.688  1.00  0.00    -0.046 N
ATOM     27  H73 UNL     1       0.851  -6.751  43.017  1.00  0.00     0.277 HD
ATOM     28  H72 UNL     1       0.831  -5.197  43.124  1.00  0.00     0.277 HD
ATOM     29  H71 UNL     1       1.334  -5.871  41.672  1.00  0.00     0.277 HD
ENDBRANCH  21  26
ENDBRANCH  18  21
ENDBRANCH  13  15
ENDBRANCH  11  13
BRANCH  10  30
HETATM   30  N8  UNL     1       5.414  -3.411  51.148  1.00  0.00    -0.285 N
ATOM     31  H8  UNL     1       5.678  -2.432  51.266  1.00  0.00     0.188 HD
BRANCH  30  32
HETATM   32  N9  UNL     1       6.267  -4.420  51.569  1.00  0.00    -0.306 N
HETATM   33  C11 UNL     1       6.087  -5.051  52.656  1.00  0.00     0.163 C
ATOM     34  H9  UNL     1       7.066  -4.664  50.985  1.00  0.00     0.186 HD
BRANCH  33  35
HETATM   35  C12 UNL     1       7.046  -6.111  53.027  1.00  0.00     0.165 A
HETATM   36  N10 UNL     1       7.462  -7.129  52.260  1.00  0.00    -0.331 N
HETATM   37  C13 UNL     1       8.329  -7.861  52.976  1.00  0.00     0.102 A
ATOM     38  H10 UNL     1       7.170  -7.315  51.301  1.00  0.00     0.168 HD
HETATM   39  C14 UNL     1       9.069  -9.003  52.725  1.00  0.00     0.132 A
HETATM   40  C18 UNL     1       8.449  -7.274  54.216  1.00  0.00     0.107 A
HETATM   41  C15 UNL     1       9.912  -9.563  53.670  1.00  0.00     0.038 A
HETATM   42  C16 UNL     1      10.026  -8.970  54.906  1.00  0.00     0.005 A
HETATM   43  C17 UNL     1       9.293  -7.828  55.173  1.00  0.00     0.040 A
HETATM   44  O3  UNL     1       7.658  -6.237  54.177  1.00  0.00    -0.290 OA
BRANCH  39  45
HETATM   45  N11 UNL     1       8.977  -9.640  51.466  1.00  0.00    -0.113 N
HETATM   46  O1  UNL     1       7.904  -9.625  50.835  1.00  0.00    -0.532 OA
HETATM   47  O2  UNL     1      10.070 -10.265  50.952  1.00  0.00    -0.532 OA
ENDBRANCH  39  45
ENDBRANCH  33  35
ENDBRANCH  30  32
ENDBRANCH  10  30
ENDBRANCH   5  10
ENDBRANCH   3   5
TORSDOF 12
ENDMDL