MODEL 2
REMARK VINA RESULT: -9.990566312      2.181      4.057
REMARK  12 active torsions:
REMARK  status: ('A' for Active; 'I' for Inactive)
REMARK    1  A    between atoms: C3_4  and  C4_5
REMARK    2  A    between atoms: C4_5  and  O2_6
REMARK    3  A    between atoms: C4_5  and  O3_8
REMARK    4  A    between atoms: C5_11  and  C6_12
REMARK    5  A    between atoms: C6_12  and  N1_13
REMARK    6  A    between atoms: N1_13  and  N2_14
REMARK    7  A    between atoms: N2_14  and  C7_16
REMARK    8  A    between atoms: C7_16  and  O5_17
REMARK    9  A    between atoms: C7_16  and  C8_19
REMARK   10  A    between atoms: C7_16  and  C14_25
REMARK   11  A    between atoms: C17_28  and  N3_29
REMARK   12  A    between atoms: C18_33  and  O9_34
ROOT
HETATM    1  N2  UNL     1       7.642  -7.544  53.325  1.00  0.00    -0.296 N
ATOM      2  H2  UNL     1       7.067  -8.024  54.016  1.00  0.00     0.179 HD
ENDROOT
BRANCH   1   3
HETATM    3  N1  UNL     1       7.056  -6.521  52.650  1.00  0.00    -0.136 NA
BRANCH   3   4
HETATM    4  C6  UNL     1       5.945  -5.972  53.336  1.00  0.00     0.202 C
BRANCH   4   5
HETATM    5  C5  UNL     1       4.802  -5.468  52.555  1.00  0.00     0.106 A
HETATM    6  O4  UNL     1       3.678  -5.942  52.227  1.00  0.00    -0.310 OA
HETATM    7  C3  UNL     1       2.773  -5.368  51.503  1.00  0.00     0.111 A
HETATM    8  C2  UNL     1       3.002  -4.092  51.011  1.00  0.00     0.095 A
HETATM    9  C1  UNL     1       4.191  -3.484  51.301  1.00  0.00     0.209 A
HETATM   10  O1  UNL     1       4.436  -2.302  50.860  1.00  0.00    -0.285 OA
HETATM   11  C18 UNL     1       5.094  -4.150  52.060  1.00  0.00     0.147 A
BRANCH   7  12
HETATM   12  C4  UNL     1       1.470  -6.034  51.139  1.00  0.00     0.312 C
BRANCH  12  13
HETATM   13  O2  UNL     1       1.167  -7.150  51.816  1.00  0.00    -0.365 OA
ATOM     14  H2  UNL     1       1.385  -7.152  52.741  1.00  0.00     0.213 HD
ENDBRANCH  12  13
BRANCH  12  15
HETATM   15  O3  UNL     1       1.656  -6.303  49.739  1.00  0.00    -0.365 OA
ATOM     16  H3  UNL     1       1.497  -7.239  49.696  1.00  0.00     0.213 HD
ENDBRANCH  12  15
ENDBRANCH   7  12
BRANCH  11  17
HETATM   17  O9  UNL     1       6.300  -3.573  52.366  1.00  0.00    -0.355 OA
ATOM     18  H9  UNL     1       6.456  -3.225  53.236  1.00  0.00     0.218 HD
ENDBRANCH  11  17
ENDBRANCH   4   5
ENDBRANCH   3   4
ENDBRANCH   1   3
BRANCH   1  19
HETATM   19  C7  UNL     1       8.937  -8.000  53.172  1.00  0.00     0.222 C
BRANCH  19  20
HETATM   20  O5  UNL     1       9.428  -8.075  51.902  1.00  0.00    -0.361 OA
ATOM     21  H5  UNL     1       9.515  -8.941  51.518  1.00  0.00     0.213 HD
ENDBRANCH  19  20
BRANCH  19  22
HETATM   22  C8  UNL     1       9.193  -9.319  53.829  1.00  0.00     0.004 A
HETATM   23  C9  UNL     1      10.459  -9.847  53.768  1.00  0.00     0.012 A
HETATM   24  C10 UNL     1      10.711 -11.104  54.327  1.00  0.00     0.001 A
HETATM   25  C11 UNL     1       9.692 -11.781  54.921  1.00  0.00     0.000 A
HETATM   26  C12 UNL     1       8.435 -11.268  54.991  1.00  0.00     0.001 A
HETATM   27  C13 UNL     1       8.181  -9.998  54.428  1.00  0.00     0.012 A
ENDBRANCH  19  22
BRANCH  19  28
HETATM   28  C14 UNL     1       9.916  -7.075  53.924  1.00  0.00     0.117 A
HETATM   29  C15 UNL     1       9.996  -6.833  55.246  1.00  0.00     0.043 A
HETATM   30  C16 UNL     1      11.025  -5.947  55.417  1.00  0.00     0.065 A
HETATM   31  C17 UNL     1      11.537  -5.692  54.174  1.00  0.00     0.215 A
HETATM   32  O8  UNL     1      10.822  -6.403  53.308  1.00  0.00    -0.288 OA
BRANCH  31  33
HETATM   33  N3  UNL     1      12.625  -4.841  53.862  1.00  0.00    -0.090 N
HETATM   34  O6  UNL     1      13.433  -5.157  52.961  1.00  0.00    -0.530 OA
HETATM   35  O7  UNL     1      12.821  -3.653  54.526  1.00  0.00    -0.530 OA
ENDBRANCH  31  33
ENDBRANCH  19  28
ENDBRANCH   1  19
TORSDOF 12
ENDMDL