MODEL 5
REMARK VINA RESULT: -8.910298940      1.993      8.381
REMARK  11 active torsions:
REMARK  status: ('A' for Active; 'I' for Inactive)
REMARK    1  A    between atoms: C4_5  and  N2_6
REMARK    2  A    between atoms: N2_6  and  C5_8
REMARK    3  A    between atoms: C5_8  and  C6_13
REMARK    4  A    between atoms: N3_9  and  O1_11
REMARK    5  A    between atoms: C6_13  and  O2_14
REMARK    6  A    between atoms: C6_13  and  N4_16
REMARK    7  A    between atoms: N4_16  and  N5_18
REMARK    8  A    between atoms: C7_20  and  C8_21
REMARK    9  A    between atoms: C10_23  and  N6_24
REMARK   10  A    between atoms: C12_28  and  N7_29
REMARK   11  A    between atoms: C15_34  and  N8_35
ROOT
HETATM    1  C6  UNL     1       5.606  -3.546  51.685  1.00  0.00     0.303 C
ENDROOT
BRANCH   1   2
HETATM    2  C5  UNL     1       4.789  -4.671  52.224  1.00  0.00     0.152 C
HETATM    3  N3  UNL     1       3.773  -5.133  51.564  1.00  0.00    -0.253 N
ATOM      4  H3  UNL     1       3.547  -4.704  50.667  1.00  0.00     0.195 HD
BRANCH   2   5
HETATM    5  N2  UNL     1       5.086  -5.279  53.470  1.00  0.00    -0.341 N
ATOM      6  H2  UNL     1       4.431  -5.147  54.241  1.00  0.00     0.167 HD
BRANCH   5   7
HETATM    7  C4  UNL     1       6.248  -6.061  53.701  1.00  0.00     0.035 A
HETATM    8  C3  UNL     1       6.850  -6.097  54.955  1.00  0.00     0.031 A
HETATM    9  C2  UNL     1       7.993  -6.877  55.146  1.00  0.00     0.031 A
HETATM   10  C1  UNL     1       8.554  -7.622  54.134  1.00  0.00     0.079 A
HETATM   11  N1  UNL     1       9.717  -8.426  54.299  1.00  0.00    -0.100 NA
HETATM   12  C15 UNL     1       7.934  -7.567  52.901  1.00  0.00     0.129 A
HETATM   13  C14 UNL     1       6.804  -6.805  52.681  1.00  0.00     0.067 A
BRANCH  12  14
HETATM   14  N8  UNL     1       8.470  -8.316  51.817  1.00  0.00    -0.114 N
HETATM   15  O7  UNL     1       7.898  -9.318  51.367  1.00  0.00    -0.532 OA
HETATM   16  O8  UNL     1       9.658  -7.944  51.225  1.00  0.00    -0.532 OA
ENDBRANCH  12  14
ENDBRANCH   5   7
ENDBRANCH   2   5
BRANCH   3  17
HETATM   17  O1  UNL     1       2.994  -6.151  51.999  1.00  0.00    -0.288 OA
ATOM     18  H1  UNL     1       2.095  -6.283  51.722  1.00  0.00     0.244 HD
ENDBRANCH   3  17
ENDBRANCH   1   2
BRANCH   1  19
HETATM   19  O2  UNL     1       6.375  -2.974  52.693  1.00  0.00    -0.368 OA
ATOM     20  H2  UNL     1       7.026  -2.387  52.325  1.00  0.00     0.212 HD
ENDBRANCH   1  19
BRANCH   1  21
HETATM   21  N4  UNL     1       6.472  -4.077  50.640  1.00  0.00    -0.301 N
ATOM     22  H4  UNL     1       6.840  -5.022  50.739  1.00  0.00     0.183 HD
BRANCH  21  23
HETATM   23  N5  UNL     1       6.800  -3.363  49.554  1.00  0.00    -0.313 N
HETATM   24  C7  UNL     1       6.380  -3.197  48.395  1.00  0.00     0.118 C
ATOM     25  H5  UNL     1       7.629  -2.795  49.726  1.00  0.00     0.185 HD
BRANCH  24  26
HETATM   26  C8  UNL     1       5.232  -3.824  47.779  1.00  0.00    -0.015 A
HETATM   27  C9  UNL     1       5.210  -4.267  46.494  1.00  0.00     0.049 A
HETATM   28  C10 UNL     1       4.096  -4.871  45.912  1.00  0.00     0.106 A
HETATM   29  C11 UNL     1       2.963  -5.026  46.674  1.00  0.00     0.072 A
HETATM   30  C12 UNL     1       2.943  -4.591  47.983  1.00  0.00     0.106 A
HETATM   31  C13 UNL     1       4.057  -3.998  48.534  1.00  0.00     0.049 A
BRANCH  28  32
HETATM   32  N6  UNL     1       4.145  -5.312  44.553  1.00  0.00    -0.116 N
HETATM   33  O3  UNL     1       3.127  -5.402  43.871  1.00  0.00    -0.532 OA
HETATM   34  O4  UNL     1       5.360  -5.642  44.001  1.00  0.00    -0.532 OA
ENDBRANCH  28  32
BRANCH  30  35
HETATM   35  N7  UNL     1       1.767  -4.756  48.765  1.00  0.00    -0.116 N
HETATM   36  O5  UNL     1       0.986  -3.805  48.952  1.00  0.00    -0.532 OA
HETATM   37  O6  UNL     1       1.462  -5.963  49.336  1.00  0.00    -0.532 OA
ENDBRANCH  30  35
ENDBRANCH  24  26
ENDBRANCH  21  23
ENDBRANCH   1  21
TORSDOF 11
ENDMDL