MODEL 1
REMARK VINA RESULT: -7.094393337      0.000      0.000
REMARK  10 active torsions:
REMARK  status: ('A' for Active; 'I' for Inactive)
REMARK       I    between atoms: N1_2  and  C2_4
REMARK    1  A    between atoms: C2_4  and  C3_6
REMARK    2  A    between atoms: C5_8  and  C6_9
REMARK    3  A    between atoms: C6_9  and  N2_10
REMARK    4  A    between atoms: C7_13  and  N3_14
REMARK    5  A    between atoms: C8_19  and  N5_20
REMARK    6  A    between atoms: N5_20  and  N6_22
REMARK    7  A    between atoms: N6_22  and  C9_24
REMARK    8  A    between atoms: C10_25  and  N7_26
REMARK    9  A    between atoms: C12_30  and  N8_31
REMARK   10  A    between atoms: C14_35  and  N9_36
ROOT
HETATM    1  N2  UNL     1      13.879  -3.373  54.336  1.00  0.00    -0.296 NA
HETATM    2  O2  UNL     1      15.142  -3.359  54.317  1.00  0.00    -0.219 OA
ATOM      3  H2  UNL     1      16.079  -3.201  54.345  1.00  0.00     0.261 HD
ENDROOT
BRANCH   1   4
HETATM    4  C6  UNL     1      12.720  -3.568  54.301  1.00  0.00     0.233 C
BRANCH   4   5
HETATM    5  C5  UNL     1      12.065  -4.879  54.098  1.00  0.00     0.040 A
HETATM    6  C4  UNL     1      10.940  -5.216  54.856  1.00  0.00     0.038 A
HETATM    7  C3  UNL     1      10.297  -6.449  54.685  1.00  0.00     0.078 A
HETATM    8  C8  UNL     1      10.779  -7.334  53.763  1.00  0.00     0.137 A
HETATM    9  N4  UNL     1      11.856  -6.993  53.047  1.00  0.00    -0.326 N
HETATM   10  C7  UNL     1      12.506  -5.799  53.189  1.00  0.00     0.113 A
ATOM     11  H4  UNL     1      12.211  -7.657  52.360  1.00  0.00     0.169 HD
BRANCH   7  12
HETATM   12  C2  UNL     1       9.116  -6.710  55.498  1.00  0.00     0.255 C
HETATM   13  N1  UNL     1       8.322  -5.694  56.081  1.00  0.00    -0.361 N
HETATM   14  C1  UNL     1       7.160  -6.082  56.878  1.00  0.00     0.149 C
ATOM     15  H1  UNL     1       8.555  -4.710  55.948  1.00  0.00     0.162 HD
HETATM   16  O1  UNL     1       8.804  -7.922  55.679  1.00  0.00    -0.268 OA
ENDBRANCH   7  12
BRANCH   8  17
HETATM   17  N5  UNL     1      10.183  -8.580  53.538  1.00  0.00    -0.284 N
ATOM     18  H5  UNL     1       9.230  -8.546  53.174  1.00  0.00     0.188 HD
BRANCH  17  19
HETATM   19  N6  UNL     1      10.695  -9.853  53.736  1.00  0.00    -0.294 N
ATOM     20  H6  UNL     1      11.680 -10.064  53.579  1.00  0.00     0.187 HD
BRANCH  19  21
HETATM   21  C9  UNL     1       9.766 -10.863  54.174  1.00  0.00     0.114 A
HETATM   22  C10 UNL     1      10.161 -11.821  55.099  1.00  0.00     0.135 A
HETATM   23  C11 UNL     1       9.213 -12.745  55.566  1.00  0.00     0.074 A
HETATM   24  C12 UNL     1       7.922 -12.713  55.120  1.00  0.00     0.107 A
HETATM   25  C13 UNL     1       7.551 -11.763  54.203  1.00  0.00     0.074 A
HETATM   26  C14 UNL     1       8.476 -10.819  53.712  1.00  0.00     0.135 A
BRANCH  22  27
HETATM   27  N7  UNL     1      11.495 -11.913  55.558  1.00  0.00    -0.113 N
HETATM   28  O3  UNL     1      11.776 -11.739  56.742  1.00  0.00    -0.532 OA
HETATM   29  O4  UNL     1      12.503 -12.147  54.664  1.00  0.00    -0.532 OA
ENDBRANCH  22  27
BRANCH  24  30
HETATM   30  N8  UNL     1       6.951 -13.654  55.599  1.00  0.00    -0.116 N
HETATM   31  O5  UNL     1       7.143 -14.188  56.710  1.00  0.00    -0.532 OA
HETATM   32  O6  UNL     1       5.843 -13.958  54.856  1.00  0.00    -0.532 OA
ENDBRANCH  24  30
BRANCH  26  33
HETATM   33  N9  UNL     1       8.060  -9.915  52.723  1.00  0.00    -0.113 N
HETATM   34  O7  UNL     1       8.172 -10.359  51.516  1.00  0.00    -0.532 OA
HETATM   35  O8  UNL     1       7.573  -8.670  52.835  1.00  0.00    -0.532 OA
ENDBRANCH  26  33
ENDBRANCH  19  21
ENDBRANCH  17  19
ENDBRANCH   8  17
BRANCH  10  36
HETATM   36  N3  UNL     1      13.539  -5.543  52.464  1.00  0.00    -0.385 N
ATOM     37  H32 UNL     1      14.098  -4.710  52.654  1.00  0.00     0.157 HD
ATOM     38  H31 UNL     1      13.794  -6.170  51.702  1.00  0.00     0.157 HD
ENDBRANCH  10  36
ENDBRANCH   4   5
ENDBRANCH   1   4
TORSDOF 10
ENDMDL