MODEL 4
REMARK VINA RESULT: -8.323537331      1.143      1.966
REMARK  11 active torsions:
REMARK  status: ('A' for Active; 'I' for Inactive)
REMARK    1  A    between atoms: O1_1  and  C1_3
REMARK    2  A    between atoms: N1_5  and  C3_6
REMARK    3  A    between atoms: C3_6  and  C4_7
REMARK    4  A    between atoms: C4_7  and  C5_8
REMARK    5  A    between atoms: C5_8  and  O2_9
REMARK    6  A    between atoms: O2_9  and  C6_10
REMARK    7  A    between atoms: C6_10  and  C7_11
REMARK    8  A    between atoms: C8_12  and  C9_13
REMARK    9  A    between atoms: C9_13  and  C10_14
REMARK   10  A    between atoms: C12_16  and  O3_17
REMARK   11  A    between atoms: C13_19  and  O4_20
ROOT
HETATM    1  O2  UNL     1      -6.759  -6.763  -9.425  1.00  0.00    -0.387 OA
ENDROOT
BRANCH   1   2
HETATM    2  C5  UNL     1      -6.950  -7.755 -10.320  1.00  0.00     0.169 C
BRANCH   2   3
HETATM    3  C4  UNL     1      -7.805  -8.869  -9.786  1.00  0.00     0.056 C
BRANCH   3   4
HETATM    4  C3  UNL     1      -9.192  -8.658 -10.351  1.00  0.00     0.274 C
BRANCH   4   5
HETATM    5  N1  UNL     1     -10.042  -8.079  -9.359  1.00  0.00     0.094 N
HETATM    6  C2  UNL     1      -9.623  -8.503  -8.010  1.00  0.00     0.333 C
HETATM    7  C1  UNL     1     -10.486  -9.621  -7.497  1.00  0.00     0.347 C
HETATM    8  N2  UNL     1     -10.890 -10.547  -8.509  1.00  0.00    -0.046 N
HETATM    9  C16 UNL     1     -11.579  -9.927  -9.626  1.00  0.00     0.265 C
ATOM     10  H22 UNL     1     -10.094 -11.093  -8.836  1.00  0.00     0.280 HD
ATOM     11  H21 UNL     1     -11.456 -11.294  -8.106  1.00  0.00     0.280 HD
HETATM   12  C15 UNL     1     -11.411  -8.412  -9.579  1.00  0.00     0.300 C
BRANCH   7  13
HETATM   13  O1  UNL     1      -9.785 -10.300  -6.523  1.00  0.00    -0.368 OA
ATOM     14  H1  UNL     1     -10.060  -9.975  -5.674  1.00  0.00     0.212 HD
ENDBRANCH   7  13
ENDBRANCH   4   5
ENDBRANCH   3   4
ENDBRANCH   2   3
ENDBRANCH   1   2
BRANCH   1  15
HETATM   15  C6  UNL     1      -5.492  -6.209  -9.521  1.00  0.00     0.194 C
BRANCH  15  16
HETATM   16  C7  UNL     1      -4.514  -7.085  -8.831  1.00  0.00    -0.005 C
HETATM   17  C8  UNL     1      -4.178  -7.059  -7.572  1.00  0.00    -0.026 C
BRANCH  17  18
HETATM   18  C9  UNL     1      -4.735  -6.125  -6.595  1.00  0.00     0.059 C
BRANCH  18  19
HETATM   19  C10 UNL     1      -3.916  -6.042  -5.322  1.00  0.00     0.127 C
HETATM   20  C11 UNL     1      -2.886  -7.150  -5.371  1.00  0.00     0.066 C
HETATM   21  C12 UNL     1      -1.584  -6.565  -4.854  1.00  0.00     0.151 C
HETATM   22  C13 UNL     1      -1.150  -5.506  -5.869  1.00  0.00     0.170 C
HETATM   23  C14 UNL     1      -2.299  -4.529  -6.001  1.00  0.00     0.202 C
HETATM   24  O5  UNL     1      -3.330  -4.814  -5.130  1.00  0.00    -0.383 OA
BRANCH  21  25
HETATM   25  O3  UNL     1      -0.611  -7.550  -4.719  1.00  0.00    -0.393 OA
ATOM     26  H3  UNL     1      -0.319  -7.860  -5.568  1.00  0.00     0.210 HD
ENDBRANCH  21  25
BRANCH  22  27
HETATM   27  O4  UNL     1      -0.005  -4.879  -5.404  1.00  0.00    -0.391 OA
ATOM     28  H4  UNL     1      -0.244  -4.262  -4.723  1.00  0.00     0.210 HD
ENDBRANCH  22  27
ENDBRANCH  18  19
ENDBRANCH  17  18
ENDBRANCH  15  16
ENDBRANCH   1  15
TORSDOF 11
ENDMDL