MODEL 3
REMARK VINA RESULT: -8.034598049      1.970      3.277
REMARK  10 active torsions:
REMARK  status: ('A' for Active; 'I' for Inactive)
REMARK    1  A    between atoms: N1_1  and  C1_5
REMARK    2  A    between atoms: C1_5  and  C2_6
REMARK    3  A    between atoms: C2_6  and  C3_7
REMARK    4  A    between atoms: C4_8  and  C5_9
REMARK    5  A    between atoms: N2_10  and  C6_12
REMARK    6  A    between atoms: C6_12  and  C7_13
REMARK    7  A    between atoms: C7_13  and  C8_14
REMARK    8  A    between atoms: C8_14  and  N3_15
REMARK    9  A    between atoms: N3_15  and  C9_18
REMARK   10  A    between atoms: C16_30  and  O1_31
ROOT
HETATM    1  N3  UNL     1      -2.819  -5.219  -7.954  1.00  0.00    -0.043 N
ATOM      2  H31 UNL     1      -2.589  -4.225  -7.930  1.00  0.00     0.279 HD
ATOM      3  H32 UNL     1      -2.000  -5.556  -8.459  1.00  0.00     0.279 HD
ENDROOT
BRANCH   1   4
HETATM    4  C8  UNL     1      -4.009  -5.459  -8.676  1.00  0.00     0.236 C
BRANCH   4   5
HETATM    5  C7  UNL     1      -4.652  -6.794  -8.492  1.00  0.00     0.047 C
BRANCH   5   6
HETATM    6  C6  UNL     1      -6.123  -6.755  -8.890  1.00  0.00     0.120 C
BRANCH   6   7
HETATM    7  N2  UNL     1      -6.304  -7.317 -10.209  1.00  0.00    -0.399 N
HETATM    8  C5  UNL     1      -7.232  -8.098 -10.582  1.00  0.00     0.082 C
ATOM      9  H2  UNL     1      -5.613  -7.060 -10.914  1.00  0.00     0.158 HD
BRANCH   8  10
HETATM   10  C4  UNL     1      -8.320  -8.592  -9.747  1.00  0.00     0.013 C
HETATM   11  C3  UNL     1      -9.499  -8.009  -9.780  1.00  0.00    -0.024 C
BRANCH  11  12
HETATM   12  C2  UNL     1     -10.590  -8.527  -8.923  1.00  0.00     0.054 C
BRANCH  12  13
HETATM   13  C1  UNL     1     -10.096  -8.732  -7.500  1.00  0.00     0.233 C
BRANCH  13  14
HETATM   14  N1  UNL     1      -9.963  -7.419  -6.899  1.00  0.00    -0.079 N
ATOM     15  H13 UNL     1      -8.999  -7.184  -6.659  1.00  0.00     0.274 HD
ATOM     16  H12 UNL     1     -10.123  -6.659  -7.560  1.00  0.00     0.274 HD
ATOM     17  H11 UNL     1     -10.592  -7.390  -6.096  1.00  0.00     0.274 HD
ENDBRANCH  13  14
ENDBRANCH  12  13
ENDBRANCH  11  12
ENDBRANCH   8  10
ENDBRANCH   6   7
ENDBRANCH   5   6
ENDBRANCH   4   5
ENDBRANCH   1   4
BRANCH   1  18
HETATM   18  C9  UNL     1      -2.893  -5.784  -6.617  1.00  0.00     0.411 C
HETATM   19  N4  UNL     1      -3.401  -4.817  -5.673  1.00  0.00    -0.037 N
HETATM   20  C10 UNL     1      -2.989  -5.340  -4.395  1.00  0.00     0.225 C
ATOM     21  H42 UNL     1      -3.105  -3.858  -5.851  1.00  0.00     0.280 HD
ATOM     22  H41 UNL     1      -4.402  -4.637  -5.751  1.00  0.00     0.280 HD
HETATM   23  C11 UNL     1      -2.864  -4.179  -3.431  1.00  0.00     0.308 C
HETATM   24  C15 UNL     1      -1.731  -6.107  -4.598  1.00  0.00     0.079 C
HETATM   25  N5  UNL     1      -2.668  -4.589  -2.077  1.00  0.00     0.120 N
HETATM   26  C12 UNL     1      -1.765  -3.620  -1.432  1.00  0.00     0.304 C
HETATM   27  C17 UNL     1      -1.869  -5.799  -1.942  1.00  0.00     0.542 C
HETATM   28  C13 UNL     1      -0.461  -4.002  -2.073  1.00  0.00     0.304 C
HETATM   29  N6  UNL     1      -0.623  -5.392  -2.511  1.00  0.00     0.118 N
HETATM   30  C14 UNL     1      -0.516  -5.508  -3.925  1.00  0.00     0.284 C
HETATM   31  C16 UNL     1      -1.507  -6.060  -6.084  1.00  0.00     0.184 C
BRANCH  31  32
HETATM   32  O1  UNL     1      -0.669  -5.023  -6.479  1.00  0.00    -0.391 OA
ATOM     33  H1  UNL     1       0.168  -5.392  -6.735  1.00  0.00     0.210 HD
ENDBRANCH  31  32
ENDBRANCH   1  18
TORSDOF 10
ENDMDL