MODEL 3
REMARK VINA RESULT: -8.420640051      1.170      1.741
REMARK  8 active torsions:
REMARK  status: ('A' for Active; 'I' for Inactive)
REMARK    1  A    between atoms: C2_2  and  C3_3
REMARK    2  A    between atoms: C4_8  and  S1_9
REMARK    3  A    between atoms: S1_9  and  C5_10
REMARK    4  A    between atoms: C5_10  and  C6_11
REMARK    5  A    between atoms: C6_11  and  N3_12
REMARK    6  A    between atoms: N3_12  and  C9_15
REMARK    7  A    between atoms: C9_15  and  C10_16
REMARK    8  A    between atoms: N5_18  and  N6_20
ROOT
HETATM    1  C5  UNL     1      -5.024  -6.556  -6.681  1.00  0.00     0.110 C
ENDROOT
BRANCH   1   2
HETATM    2  S1  UNL     1      -5.693  -6.645  -8.347  1.00  0.00    -0.091 SA
BRANCH   2   3
HETATM    3  C4  UNL     1      -7.380  -7.218  -8.369  1.00  0.00     0.161 A
HETATM    4  N2  UNL     1      -8.207  -7.198  -7.313  1.00  0.00    -0.279 N
HETATM    5  N1  UNL     1      -9.468  -7.645  -7.349  1.00  0.00    -0.297 N
ATOM      6  H2  UNL     1      -7.854  -6.822  -6.433  1.00  0.00     0.189 HD
HETATM    7  C3  UNL     1      -9.989  -8.153  -8.479  1.00  0.00     0.093 A
ATOM      8  H1  UNL     1     -10.041  -7.600  -6.507  1.00  0.00     0.187 HD
HETATM    9  C12 UNL     1      -9.158  -8.183  -9.577  1.00  0.00     0.271 A
HETATM   10  N9  UNL     1      -7.897  -7.730  -9.519  1.00  0.00    -0.301 N
HETATM   11  O1  UNL     1      -9.653  -8.664 -10.645  1.00  0.00    -0.266 OA
ATOM     12  H9  UNL     1      -7.313  -7.769 -10.355  1.00  0.00     0.171 HD
BRANCH   7  13
HETATM   13  C2  UNL     1     -11.392  -8.655  -8.533  1.00  0.00     0.060 C
HETATM   14  C1  UNL     1     -11.545 -10.048  -8.024  1.00  0.00     0.011 C
ENDBRANCH   7  13
ENDBRANCH   2   3
ENDBRANCH   1   2
BRANCH   1  15
HETATM   15  C6  UNL     1      -4.062  -5.457  -6.443  1.00  0.00     0.247 C
BRANCH  15  16
HETATM   16  N3  UNL     1      -2.760  -5.828  -5.943  1.00  0.00    -0.068 N
HETATM   17  C7  UNL     1      -2.844  -7.288  -5.752  1.00  0.00     0.272 C
HETATM   18  C8  UNL     1      -1.681  -5.621  -6.874  1.00  0.00     0.272 C
BRANCH  16  19
HETATM   19  C9  UNL     1      -2.544  -5.158  -4.692  1.00  0.00     0.310 C
BRANCH  19  20
HETATM   20  C10 UNL     1      -1.136  -4.932  -4.368  1.00  0.00     0.133 C
HETATM   21  N4  UNL     1      -0.207  -5.943  -4.033  1.00  0.00    -0.084 NA
HETATM   22  N5  UNL     1      -0.690  -3.709  -4.390  1.00  0.00    -0.288 N
ATOM     23  H5  UNL     1       0.290  -3.537  -4.165  1.00  0.00     0.188 HD
BRANCH  22  24
HETATM   24  N6  UNL     1      -1.506  -2.631  -4.710  1.00  0.00    -0.275 N
HETATM   25  C11 UNL     1      -1.496  -1.594  -3.951  1.00  0.00     0.215 C
HETATM   26  N7  UNL     1      -2.341  -0.487  -4.289  1.00  0.00    -0.065 NA
HETATM   27  N8  UNL     1      -0.690  -1.491  -2.791  1.00  0.00    -0.065 NA
ATOM     28  H6  UNL     1      -2.105  -2.662  -5.535  1.00  0.00     0.189 HD
ENDBRANCH  22  24
ENDBRANCH  19  20
ENDBRANCH  16  19
ENDBRANCH  15  16
ENDBRANCH   1  15
TORSDOF 8
ENDMDL