MODEL 3
REMARK VINA RESULT: -7.548715587      3.089      7.254
REMARK  10 active torsions:
REMARK  status: ('A' for Active; 'I' for Inactive)
REMARK    1  A    between atoms: N1_1  and  N2_4
REMARK    2  A    between atoms: N2_4  and  C1_6
REMARK    3  A    between atoms: C1_6  and  C2_7
REMARK    4  A    between atoms: C2_7  and  C3_8
REMARK    5  A    between atoms: C3_8  and  N3_9
REMARK    6  A    between atoms: N3_9  and  C4_11
REMARK    7  A    between atoms: C4_11  and  C5_12
REMARK    8  A    between atoms: C6_13  and  N4_14
REMARK       I    between atoms: N4_14  and  C7_16
REMARK       I    between atoms: C7_16  and  N5_17
REMARK       I    between atoms: C7_16  and  N6_20
REMARK    9  A    between atoms: N6_20  and  N7_22
REMARK   10  A    between atoms: C11_32  and  C12_33
ROOT
HETATM    1  C5  UNL     1      -2.376  -5.416  -4.700  1.00  0.00     0.060 C
HETATM    2  C6  UNL     1      -3.312  -5.836  -5.810  1.00  0.00     0.109 C
HETATM    3  C9  UNL     1      -3.134  -7.303  -6.031  1.00  0.00     0.027 C
HETATM    4  C10 UNL     1      -2.486  -7.748  -4.734  1.00  0.00     0.016 C
HETATM    5  C11 UNL     1      -1.465  -6.615  -4.567  1.00  0.00     0.086 C
ENDROOT
BRANCH   2   6
HETATM    6  N4  UNL     1      -2.998  -5.133  -7.043  1.00  0.00    -0.220 N
HETATM    7  C7  UNL     1      -3.644  -5.468  -8.263  1.00  0.00     0.688 C
HETATM    8  N5  UNL     1      -3.578  -4.628  -9.236  1.00  0.00    -0.234 N
HETATM    9  N6  UNL     1      -4.352  -6.699  -8.422  1.00  0.00    -0.109 N
ATOM     10  H52 UNL     1      -3.072  -3.750  -9.122  1.00  0.00     0.174 HD
ATOM     11  H51 UNL     1      -4.041  -4.869 -10.112  1.00  0.00     0.174 HD
ATOM     12  H6  UNL     1      -3.848  -7.554  -8.654  1.00  0.00     0.208 HD
ATOM     13  H4  UNL     1      -2.302  -4.388  -7.032  1.00  0.00     0.178 HD
BRANCH   9  14
HETATM   14  N7  UNL     1      -5.736  -6.725  -8.259  1.00  0.00    -0.161 N
HETATM   15  C8  UNL     1      -6.684  -6.581  -9.201  1.00  0.00     0.246 A
HETATM   16  N8  UNL     1      -7.879  -6.676  -8.592  1.00  0.00    -0.277 N
HETATM   17  N9  UNL     1      -7.683  -6.875  -7.296  1.00  0.00    -0.226 N
ATOM     18  H8  UNL     1      -8.787  -6.607  -9.052  1.00  0.00     0.189 HD
HETATM   19  N10 UNL     1      -6.386  -6.901  -7.124  1.00  0.00    -0.205 N
ATOM     20  H9  UNL     1      -8.399  -6.986  -6.577  1.00  0.00     0.210 HD
ATOM     21  H10 UNL     1      -5.932  -7.040  -6.222  1.00  0.00     0.212 HD
ENDBRANCH   9  14
ENDBRANCH   2   6
BRANCH   1  22
HETATM   22  C4  UNL     1      -3.119  -5.108  -3.469  1.00  0.00     0.067 C
BRANCH  22  23
HETATM   23  N3  UNL     1      -3.146  -4.000  -2.864  1.00  0.00    -0.382 N
ATOM     24  H3  UNL     1      -3.872  -3.345  -3.153  1.00  0.00     0.164 HD
BRANCH  23  25
HETATM   25  C3  UNL     1      -2.288  -3.565  -1.835  1.00  0.00     0.061 C
BRANCH  25  26
HETATM   26  C2  UNL     1      -1.104  -2.771  -2.336  1.00  0.00     0.065 C
BRANCH  26  27
HETATM   27  C1  UNL     1      -1.585  -1.595  -3.186  1.00  0.00     0.144 C
BRANCH  27  28
HETATM   28  N2  UNL     1      -1.084  -1.695  -4.527  1.00  0.00    -0.343 N
ATOM     29  H2  UNL     1      -0.082  -1.579  -4.677  1.00  0.00     0.179 HD
BRANCH  28  30
HETATM   30  N1  UNL     1      -1.804  -1.914  -5.514  1.00  0.00    -0.349 N
ATOM     31  H12 UNL     1      -2.363  -1.137  -5.865  1.00  0.00     0.176 HD
ATOM     32  H11 UNL     1      -1.861  -2.820  -5.981  1.00  0.00     0.176 HD
ENDBRANCH  28  30
ENDBRANCH  27  28
ENDBRANCH  26  27
ENDBRANCH  25  26
ENDBRANCH  23  25
ENDBRANCH  22  23
ENDBRANCH   1  22
BRANCH   5  33
HETATM   33  C12 UNL     1      -0.740  -6.682  -3.313  1.00  0.00     0.236 C
HETATM   34  N11 UNL     1      -1.004  -7.713  -2.387  1.00  0.00    -0.062 NA
HETATM   35  O1  UNL     1       0.132  -5.829  -3.030  1.00  0.00    -0.276 OA
ENDBRANCH   5  33
TORSDOF 10
ENDMDL