MODEL 5
REMARK VINA RESULT: -8.197260177      1.654      2.458
REMARK  10 active torsions:
REMARK  status: ('A' for Active; 'I' for Inactive)
REMARK    1  A    between atoms: O1_1  and  C1_3
REMARK    2  A    between atoms: C2_4  and  N1_5
REMARK    3  A    between atoms: N1_5  and  C3_8
REMARK    4  A    between atoms: C3_8  and  C4_9
REMARK    5  A    between atoms: C4_9  and  C5_10
REMARK    6  A    between atoms: C5_10  and  N2_11
REMARK    7  A    between atoms: N2_11  and  C6_13
REMARK    8  A    between atoms: C6_13  and  C7_14
REMARK    9  A    between atoms: C7_14  and  N3_15
REMARK   10  A    between atoms: C16_26  and  O4_27
ROOT
HETATM    1  N1  UNL     1      -4.691  -5.904  -7.232  1.00  0.00    -0.046 N
ATOM      2  H11 UNL     1      -4.646  -5.601  -8.205  1.00  0.00     0.280 HD
ATOM      3  H12 UNL     1      -4.712  -4.992  -6.776  1.00  0.00     0.280 HD
ENDROOT
BRANCH   1   4
HETATM    4  C2  UNL     1      -3.500  -6.640  -6.864  1.00  0.00     0.353 C
HETATM    5  C1  UNL     1      -2.211  -5.915  -6.929  1.00  0.00     0.205 C
HETATM    6  C16 UNL     1      -1.706  -5.306  -5.672  1.00  0.00     0.182 C
HETATM    7  C15 UNL     1      -2.039  -6.118  -4.474  1.00  0.00     0.183 C
HETATM    8  C13 UNL     1      -2.990  -7.232  -4.638  1.00  0.00     0.179 C
HETATM    9  O3  UNL     1      -1.023  -7.025  -4.123  1.00  0.00    -0.378 OA
HETATM   10  O2  UNL     1      -3.767  -7.320  -5.717  1.00  0.00    -0.347 OA
HETATM   11  C14 UNL     1      -1.772  -8.122  -4.551  1.00  0.00     0.203 C
BRANCH   5  12
HETATM   12  O1  UNL     1      -2.213  -4.948  -7.926  1.00  0.00    -0.388 OA
ATOM     13  H1  UNL     1      -2.064  -5.327  -8.785  1.00  0.00     0.210 HD
ENDBRANCH   5  12
BRANCH   6  14
HETATM   14  O4  UNL     1      -0.281  -5.273  -5.788  1.00  0.00    -0.390 OA
ATOM     15  H4  UNL     1      -0.091  -4.823  -6.602  1.00  0.00     0.210 HD
ENDBRANCH   6  14
ENDBRANCH   1   4
BRANCH   1  16
HETATM   16  C3  UNL     1      -5.888  -6.628  -6.978  1.00  0.00     0.240 C
BRANCH  16  17
HETATM   17  C4  UNL     1      -6.687  -6.977  -8.170  1.00  0.00     0.072 C
BRANCH  17  18
HETATM   18  C5  UNL     1      -6.105  -6.981  -9.511  1.00  0.00     0.057 C
BRANCH  18  19
HETATM   19  N2  UNL     1      -6.632  -7.701 -10.568  1.00  0.00    -0.401 N
ATOM     20  H2  UNL     1      -6.262  -7.514 -11.500  1.00  0.00     0.158 HD
BRANCH  19  21
HETATM   21  C6  UNL     1      -7.631  -8.663 -10.452  1.00  0.00     0.138 C
BRANCH  21  22
HETATM   22  C7  UNL     1      -8.950  -8.067 -10.994  1.00  0.00     0.141 C
BRANCH  22  23
HETATM   23  N3  UNL     1     -10.053  -8.464 -10.245  1.00  0.00    -0.392 N
HETATM   24  C8  UNL     1     -11.210  -8.901 -10.928  1.00  0.00     0.122 C
HETATM   25  C9  UNL     1     -12.438  -8.424 -10.190  1.00  0.00     0.020 C
HETATM   26  C10 UNL     1     -12.418  -8.699  -8.736  1.00  0.00     0.007 C
HETATM   27  C11 UNL     1     -11.111  -8.879  -8.080  1.00  0.00     0.044 C
HETATM   28  C12 UNL     1      -9.932  -9.083  -9.000  1.00  0.00     0.058 C
ENDBRANCH  22  23
ENDBRANCH  21  22
ENDBRANCH  19  21
ENDBRANCH  18  19
ENDBRANCH  17  18
ENDBRANCH  16  17
ENDBRANCH   1  16
TORSDOF 10
ENDMDL