MODEL 1
REMARK VINA RESULT: -8.266743254      0.000      0.000
REMARK  11 active torsions:
REMARK  status: ('A' for Active; 'I' for Inactive)
REMARK    1  A    between atoms: N2_5  and  C4_6
REMARK    2  A    between atoms: C4_6  and  C5_7
REMARK    3  A    between atoms: C5_7  and  C6_8
REMARK    4  A    between atoms: C6_8  and  C7_9
REMARK    5  A    between atoms: C7_9  and  C8_10
REMARK    6  A    between atoms: C8_10  and  N3_11
REMARK    7  A    between atoms: N3_11  and  C9_14
REMARK    8  A    between atoms: C9_14  and  C10_15
REMARK    9  A    between atoms: C12_18  and  O2_19
REMARK   10  A    between atoms: C13_21  and  O3_22
REMARK   11  A    between atoms: C14_24  and  O4_25
ROOT
HETATM    1  N3  UNL     1      -5.963  -6.657  -6.695  1.00  0.00    -0.073 N
ATOM      2  H31 UNL     1      -5.709  -7.446  -6.100  1.00  0.00     0.277 HD
ATOM      3  H32 UNL     1      -6.474  -6.104  -6.005  1.00  0.00     0.277 HD
ENDROOT
BRANCH   1   4
HETATM    4  C8  UNL     1      -6.800  -7.056  -7.778  1.00  0.00     0.232 C
BRANCH   4   5
HETATM    5  C7  UNL     1      -6.243  -6.665  -9.101  1.00  0.00     0.028 C
BRANCH   5   6
HETATM    6  C6  UNL     1      -6.614  -7.638 -10.180  1.00  0.00     0.007 C
BRANCH   6   7
HETATM    7  C5  UNL     1      -7.719  -8.557  -9.734  1.00  0.00     0.045 C
BRANCH   7   8
HETATM    8  C4  UNL     1      -9.000  -8.249 -10.405  1.00  0.00     0.068 C
BRANCH   8   9
HETATM    9  N2  UNL     1     -10.157  -8.380  -9.620  1.00  0.00    -0.351 N
HETATM   10  C3  UNL     1     -11.361  -8.758 -10.233  1.00  0.00     0.098 C
HETATM   11  C2  UNL     1     -12.478  -8.553  -9.222  1.00  0.00     0.317 C
HETATM   12  N1  UNL     1     -12.249  -9.356  -8.036  1.00  0.00     0.093 N
HETATM   13  C1  UNL     1     -12.678 -10.711  -8.348  1.00  0.00     0.310 C
HETATM   14  C16 UNL     1     -10.895  -9.303  -7.559  1.00  0.00     0.317 C
HETATM   15  C15 UNL     1     -10.147  -8.164  -8.244  1.00  0.00     0.098 C
ENDBRANCH   8   9
ENDBRANCH   7   8
ENDBRANCH   6   7
ENDBRANCH   5   6
ENDBRANCH   4   5
ENDBRANCH   1   4
BRANCH   1  16
HETATM   16  C9  UNL     1      -4.804  -5.962  -7.181  1.00  0.00     0.266 C
BRANCH  16  17
HETATM   17  C10 UNL     1      -3.605  -6.614  -6.509  1.00  0.00     0.178 C
HETATM   18  O1  UNL     1      -3.747  -6.781  -5.151  1.00  0.00    -0.379 OA
HETATM   19  C11 UNL     1      -2.715  -7.585  -4.687  1.00  0.00     0.202 C
HETATM   20  C12 UNL     1      -1.353  -7.100  -5.065  1.00  0.00     0.173 C
HETATM   21  C13 UNL     1      -1.502  -5.710  -5.646  1.00  0.00     0.180 C
HETATM   22  C14 UNL     1      -2.400  -5.815  -6.870  1.00  0.00     0.180 C
BRANCH  20  23
HETATM   23  O2  UNL     1      -0.448  -7.062  -4.032  1.00  0.00    -0.391 OA
ATOM     24  H2  UNL     1       0.370  -7.516  -4.201  1.00  0.00     0.210 HD
ENDBRANCH  20  23
BRANCH  21  25
HETATM   25  O3  UNL     1      -0.289  -5.190  -6.094  1.00  0.00    -0.390 OA
ATOM     26  H3  UNL     1      -0.306  -4.242  -6.165  1.00  0.00     0.210 HD
ENDBRANCH  21  25
BRANCH  22  27
HETATM   27  O4  UNL     1      -2.656  -4.537  -7.322  1.00  0.00    -0.390 OA
ATOM     28  H4  UNL     1      -2.160  -4.272  -8.088  1.00  0.00     0.210 HD
ENDBRANCH  22  27
ENDBRANCH  16  17
ENDBRANCH   1  16
TORSDOF 11
ENDMDL