MODEL 4
REMARK VINA RESULT: -8.110619614      1.582      8.647
REMARK  12 active torsions:
REMARK  status: ('A' for Active; 'I' for Inactive)
REMARK    1  A    between atoms: O1_1  and  C1_3
REMARK    2  A    between atoms: C1_3  and  C2_4
REMARK    3  A    between atoms: C2_4  and  C3_5
REMARK    4  A    between atoms: C3_5  and  N1_6
REMARK    5  A    between atoms: C6_9  and  C7_10
REMARK    6  A    between atoms: C7_10  and  O2_11
REMARK    7  A    between atoms: O2_11  and  C8_12
REMARK    8  A    between atoms: C8_12  and  C9_13
REMARK    9  A    between atoms: C9_13  and  N2_14
REMARK   10  A    between atoms: C11_16  and  O3_17
REMARK   11  A    between atoms: C12_19  and  O4_20
REMARK   12  A    between atoms: C13_22  and  O5_23
ROOT
HETATM    1  C8  UNL     1      -5.452  -6.616  -6.476  1.00  0.00     0.198 C
ENDROOT
BRANCH   1   2
HETATM    2  O2  UNL     1      -6.315  -6.303  -7.506  1.00  0.00    -0.389 OA
BRANCH   2   3
HETATM    3  C7  UNL     1      -6.079  -6.911  -8.700  1.00  0.00     0.172 C
BRANCH   3   4
HETATM    4  C6  UNL     1      -6.984  -8.094  -9.006  1.00  0.00     0.012 C
HETATM    5  C5  UNL     1      -8.299  -7.995  -8.326  1.00  0.00     0.026 C
HETATM    6  C4  UNL     1      -9.248  -9.058  -8.902  1.00  0.00     0.122 C
HETATM    7  N1  UNL     1      -9.463  -8.909 -10.266  1.00  0.00    -0.393 N
HETATM    8  C16 UNL     1      -8.585  -8.018 -10.955  1.00  0.00     0.122 C
HETATM    9  C15 UNL     1      -7.147  -8.182 -10.487  1.00  0.00     0.026 C
BRANCH   7  10
HETATM   10  C3  UNL     1     -10.778  -8.821 -10.745  1.00  0.00     0.060 C
BRANCH  10  11
HETATM   11  C2  UNL     1     -11.892  -9.413  -9.971  1.00  0.00     0.070 C
BRANCH  11  12
HETATM   12  C1  UNL     1     -12.678  -8.570  -9.053  1.00  0.00     0.169 C
BRANCH  12  13
HETATM   13  O1  UNL     1     -12.524  -8.917  -7.704  1.00  0.00    -0.401 OA
ATOM     14  H1  UNL     1     -11.949  -9.662  -7.568  1.00  0.00     0.209 HD
ENDBRANCH  12  13
ENDBRANCH  11  12
ENDBRANCH  10  11
ENDBRANCH   7  10
ENDBRANCH   3   4
ENDBRANCH   2   3
ENDBRANCH   1   2
BRANCH   1  15
HETATM   15  C9  UNL     1      -4.059  -6.938  -6.965  1.00  0.00     0.298 C
BRANCH  15  16
HETATM   16  N2  UNL     1      -3.056  -5.993  -6.536  1.00  0.00     0.095 N
HETATM   17  C10 UNL     1      -2.075  -6.702  -5.716  1.00  0.00     0.306 C
HETATM   18  C11 UNL     1      -0.997  -5.742  -5.243  1.00  0.00     0.177 C
HETATM   19  C12 UNL     1      -1.662  -4.696  -4.366  1.00  0.00     0.179 C
HETATM   20  C13 UNL     1      -2.739  -3.991  -5.115  1.00  0.00     0.177 C
HETATM   21  C14 UNL     1      -3.693  -4.970  -5.726  1.00  0.00     0.306 C
BRANCH  18  22
HETATM   22  O3  UNL     1      -0.314  -5.173  -6.292  1.00  0.00    -0.391 OA
ATOM     23  H3  UNL     1       0.626  -5.179  -6.153  1.00  0.00     0.210 HD
ENDBRANCH  18  22
BRANCH  19  24
HETATM   24  O4  UNL     1      -0.657  -3.803  -3.967  1.00  0.00    -0.390 OA
ATOM     25  H4  UNL     1       0.066  -3.911  -4.574  1.00  0.00     0.210 HD
ENDBRANCH  19  24
BRANCH  20  26
HETATM   26  O5  UNL     1      -3.482  -3.248  -4.174  1.00  0.00    -0.391 OA
ATOM     27  H5  UNL     1      -3.311  -2.329  -4.343  1.00  0.00     0.210 HD
ENDBRANCH  20  26
ENDBRANCH  15  16
ENDBRANCH   1  15
TORSDOF 12
ENDMDL