MODEL 4
REMARK VINA RESULT: -7.853197628      1.462      2.121
REMARK  11 active torsions:
REMARK  status: ('A' for Active; 'I' for Inactive)
REMARK    1  A    between atoms: N1_1  and  C1_5
REMARK    2  A    between atoms: C1_5  and  C2_6
REMARK    3  A    between atoms: C3_8  and  O2_9
REMARK    4  A    between atoms: O2_9  and  C4_10
REMARK    5  A    between atoms: C4_10  and  C5_11
REMARK    6  A    between atoms: C5_11  and  C6_12
REMARK    7  A    between atoms: C6_12  and  C7_13
REMARK    8  A    between atoms: C7_13  and  C8_14
REMARK    9  A    between atoms: C8_14  and  N2_15
REMARK   10  A    between atoms: C14_25  and  O4_26
REMARK   11  A    between atoms: C15_28  and  O5_29
ROOT
HETATM    1  C2  UNL     1      -2.343  -6.405  -7.071  1.00  0.00     0.182 C
HETATM    2  O1  UNL     1      -3.254  -6.010  -8.042  1.00  0.00    -0.344 OA
HETATM    3  C3  UNL     1      -4.496  -6.637  -7.941  1.00  0.00     0.333 C
HETATM    4  C13 UNL     1      -5.127  -6.420  -6.634  1.00  0.00     0.212 C
HETATM    5  O3  UNL     1      -6.322  -6.368  -6.522  1.00  0.00    -0.290 OA
HETATM    6  C14 UNL     1      -4.262  -6.265  -5.441  1.00  0.00     0.224 C
HETATM    7  C15 UNL     1      -2.936  -6.908  -5.806  1.00  0.00     0.185 C
ENDROOT
BRANCH   3   8
HETATM    8  O2  UNL     1      -5.287  -6.115  -8.954  1.00  0.00    -0.354 OA
BRANCH   8   9
HETATM    9  C4  UNL     1      -5.789  -7.066  -9.830  1.00  0.00     0.171 C
BRANCH   9  10
HETATM   10  C5  UNL     1      -7.279  -7.256  -9.736  1.00  0.00     0.027 C
BRANCH  10  11
HETATM   11  C6  UNL     1      -7.653  -8.331 -10.741  1.00  0.00     0.007 C
BRANCH  11  12
HETATM   12  C7  UNL     1      -9.039  -8.203 -11.255  1.00  0.00     0.044 C
BRANCH  12  13
HETATM   13  C8  UNL     1     -10.044  -9.199 -10.842  1.00  0.00     0.058 C
BRANCH  13  14
HETATM   14  N2  UNL     1     -10.647  -9.155  -9.604  1.00  0.00    -0.390 N
HETATM   15  C9  UNL     1     -10.076  -9.552  -8.408  1.00  0.00     0.149 C
HETATM   16  C10 UNL     1     -10.575  -8.587  -7.312  1.00  0.00     0.252 C
HETATM   17  N3  UNL     1     -11.975  -8.896  -7.097  1.00  0.00    -0.072 N
HETATM   18  C11 UNL     1     -12.672  -9.124  -8.350  1.00  0.00     0.252 C
ATOM     19  H32 UNL     1     -12.088  -9.684  -6.460  1.00  0.00     0.277 HD
ATOM     20  H31 UNL     1     -12.434  -8.175  -6.542  1.00  0.00     0.277 HD
HETATM   21  C12 UNL     1     -11.928  -8.506  -9.518  1.00  0.00     0.149 C
ENDBRANCH  13  14
ENDBRANCH  12  13
ENDBRANCH  11  12
ENDBRANCH  10  11
ENDBRANCH   9  10
ENDBRANCH   8   9
ENDBRANCH   3   8
BRANCH   1  22
HETATM   22  C1  UNL     1      -1.351  -5.281  -6.911  1.00  0.00     0.264 C
BRANCH  22  23
HETATM   23  N1  UNL     1      -1.939  -4.023  -6.531  1.00  0.00    -0.077 N
ATOM     24  H13 UNL     1      -2.741  -4.175  -5.918  1.00  0.00     0.274 HD
ATOM     25  H12 UNL     1      -1.324  -3.521  -5.892  1.00  0.00     0.274 HD
ATOM     26  H11 UNL     1      -2.200  -3.428  -7.317  1.00  0.00     0.274 HD
ENDBRANCH  22  23
ENDBRANCH   1  22
BRANCH   6  27
HETATM   27  O4  UNL     1      -4.109  -4.941  -5.055  1.00  0.00    -0.385 OA
ATOM     28  H4  UNL     1      -3.832  -4.378  -5.769  1.00  0.00     0.210 HD
ENDBRANCH   6  27
BRANCH   7  29
HETATM   29  O5  UNL     1      -2.030  -6.874  -4.776  1.00  0.00    -0.390 OA
ATOM     30  H5  UNL     1      -2.451  -6.681  -3.947  1.00  0.00     0.210 HD
ENDBRANCH   7  29
TORSDOF 11
ENDMDL