MODEL 5
REMARK VINA RESULT: -7.379837882      3.418      7.296
REMARK  12 active torsions:
REMARK  status: ('A' for Active; 'I' for Inactive)
REMARK    1  A    between atoms: C2_2  and  C3_3
REMARK    2  A    between atoms: C3_3  and  N1_4
REMARK    3  A    between atoms: N1_4  and  C4_6
REMARK    4  A    between atoms: C5_9  and  N3_10
REMARK    5  A    between atoms: N3_10  and  C6_12
REMARK    6  A    between atoms: C6_12  and  C7_13
REMARK    7  A    between atoms: C7_13  and  C8_14
REMARK    8  A    between atoms: C8_14  and  C9_15
REMARK    9  A    between atoms: C9_15  and  N4_16
REMARK   10  A    between atoms: C10_22  and  N6_23
REMARK   11  A    between atoms: N6_23  and  C11_25
REMARK   12  A    between atoms: C11_25  and  C12_26
ROOT
HETATM    1  C4  UNL     1      -1.714  -6.297  -5.201  1.00  0.00     0.707 A
HETATM    2  N2  UNL     1      -1.411  -4.998  -5.022  1.00  0.00    -0.022 N
ATOM      3  H2  UNL     1      -0.629  -4.760  -4.412  1.00  0.00     0.203 HD
HETATM    4  C5  UNL     1      -2.090  -4.003  -5.610  1.00  0.00     0.707 A
HETATM    5  N5  UNL     1      -3.113  -4.356  -6.408  1.00  0.00    -0.022 N
ATOM      6  H5  UNL     1      -3.659  -3.633  -6.877  1.00  0.00     0.203 HD
HETATM    7  C10 UNL     1      -3.426  -5.656  -6.594  1.00  0.00     0.707 A
HETATM    8  N10 UNL     1      -2.737  -6.650  -5.998  1.00  0.00    -0.022 N
ATOM      9  H10 UNL     1      -2.981  -7.630  -6.146  1.00  0.00     0.203 HD
ENDROOT
BRANCH   7  10
HETATM   10  N6  UNL     1      -4.414  -6.006  -7.363  1.00  0.00    -0.218 N
ATOM     11  H6  UNL     1      -4.350  -5.907  -8.377  1.00  0.00     0.178 HD
BRANCH  10  12
HETATM   12  C11 UNL     1      -5.607  -6.539  -6.741  1.00  0.00     0.216 C
BRANCH  12  13
HETATM   13  C12 UNL     1      -6.579  -6.848  -7.812  1.00  0.00     0.115 A
HETATM   14  N7  UNL     1      -6.363  -6.734  -9.123  1.00  0.00    -0.338 N
HETATM   15  C13 UNL     1      -7.493  -7.110  -9.752  1.00  0.00     0.201 A
ATOM     16  H7  UNL     1      -5.501  -6.418  -9.568  1.00  0.00     0.168 HD
HETATM   17  N8  UNL     1      -8.393  -7.453  -8.803  1.00  0.00    -0.291 N
HETATM   18  C14 UNL     1      -9.751  -7.923  -8.976  1.00  0.00     0.178 C
HETATM   19  N9  UNL     1      -7.830  -7.292  -7.600  1.00  0.00    -0.285 N
ATOM     20  H9  UNL     1      -8.267  -7.472  -6.696  1.00  0.00     0.188 HD
ENDBRANCH  12  13
ENDBRANCH  10  12
ENDBRANCH   7  10
BRANCH   4  21
HETATM   21  N3  UNL     1      -1.781  -2.754  -5.424  1.00  0.00    -0.225 N
ATOM     22  H3  UNL     1      -1.552  -2.155  -6.217  1.00  0.00     0.177 HD
BRANCH  21  23
HETATM   23  C6  UNL     1      -1.767  -2.213  -4.050  1.00  0.00     0.138 C
BRANCH  23  24
HETATM   24  C7  UNL     1      -0.968  -0.955  -3.980  1.00  0.00     0.022 C
BRANCH  24  25
HETATM   25  C8  UNL     1      -1.865   0.242  -3.841  1.00  0.00     0.029 C
BRANCH  25  26
HETATM   26  C9  UNL     1      -1.174   1.465  -4.367  1.00  0.00     0.229 C
BRANCH  26  27
HETATM   27  N4  UNL     1      -2.081   2.600  -4.381  1.00  0.00    -0.079 N
ATOM     28  H43 UNL     1      -3.020   2.331  -4.676  1.00  0.00     0.274 HD
ATOM     29  H42 UNL     1      -2.303   2.918  -3.438  1.00  0.00     0.274 HD
ATOM     30  H41 UNL     1      -1.705   3.354  -4.956  1.00  0.00     0.274 HD
ENDBRANCH  26  27
ENDBRANCH  25  26
ENDBRANCH  24  25
ENDBRANCH  23  24
ENDBRANCH  21  23
ENDBRANCH   4  21
BRANCH   1  31
HETATM   31  N1  UNL     1      -1.064  -7.257  -4.637  1.00  0.00    -0.225 N
ATOM     32  H1  UNL     1      -0.296  -7.685  -5.154  1.00  0.00     0.177 HD
BRANCH  31  33
HETATM   33  C3  UNL     1      -1.358  -7.760  -3.322  1.00  0.00     0.137 C
BRANCH  33  34
HETATM   34  C2  UNL     1      -2.265  -8.967  -3.358  1.00  0.00     0.016 C
HETATM   35  C1  UNL     1      -1.805  -9.993  -4.359  1.00  0.00     0.006 C
ENDBRANCH  33  34
ENDBRANCH  31  33
ENDBRANCH   1  31
TORSDOF 12
ENDMDL