MODEL 2
REMARK VINA RESULT: -7.424894524      2.956      8.170
REMARK  10 active torsions:
REMARK  status: ('A' for Active; 'I' for Inactive)
REMARK    1  A    between atoms: N1_1  and  C1_5
REMARK    2  A    between atoms: C1_5  and  C2_6
REMARK    3  A    between atoms: C2_6  and  C3_7
REMARK    4  A    between atoms: C3_7  and  N5_19
REMARK    5  A    between atoms: N2_8  and  S1_10
REMARK    6  A    between atoms: S1_10  and  C4_11
REMARK    7  A    between atoms: C4_11  and  C5_12
REMARK    8  A    between atoms: N5_19  and  C8_21
REMARK    9  A    between atoms: C8_21  and  C9_22
REMARK   10  A    between atoms: C9_22  and  N6_23
ROOT
HETATM    1  C3  UNL     1      -8.851  -7.457  -8.338  1.00  0.00     0.084 C
HETATM    2  N2  UNL     1      -9.314  -7.654  -7.172  1.00  0.00    -0.320 N
ATOM      3  H2  UNL     1      -8.834  -7.262  -6.363  1.00  0.00     0.175 HD
ENDROOT
BRANCH   1   4
HETATM    4  C2  UNL     1      -9.548  -8.027  -9.509  1.00  0.00     0.104 C
BRANCH   4   5
HETATM    5  C1  UNL     1      -8.614  -8.239 -10.683  1.00  0.00     0.237 C
BRANCH   5   6
HETATM    6  N1  UNL     1      -7.930  -9.528 -10.575  1.00  0.00    -0.079 N
ATOM      7  H13 UNL     1      -7.658  -9.732  -9.613  1.00  0.00     0.274 HD
ATOM      8  H12 UNL     1      -8.570 -10.309 -10.721  1.00  0.00     0.274 HD
ATOM      9  H11 UNL     1      -7.133  -9.568 -11.210  1.00  0.00     0.274 HD
ENDBRANCH   5   6
ENDBRANCH   4   5
ENDBRANCH   1   4
BRANCH   1  10
HETATM   10  N5  UNL     1      -7.683  -6.698  -8.523  1.00  0.00    -0.378 N
ATOM     11  H5  UNL     1      -7.725  -5.923  -9.186  1.00  0.00     0.160 HD
BRANCH  10  12
HETATM   12  C8  UNL     1      -6.439  -6.928  -7.852  1.00  0.00     0.151 C
BRANCH  12  13
HETATM   13  C9  UNL     1      -5.232  -6.391  -8.542  1.00  0.00     0.292 C
BRANCH  13  14
HETATM   14  N6  UNL     1      -4.233  -5.897  -7.611  1.00  0.00     0.091 N
HETATM   15  C10 UNL     1      -2.908  -6.415  -7.889  1.00  0.00     0.274 C
HETATM   16  C11 UNL     1      -1.840  -5.385  -7.555  1.00  0.00     0.057 C
HETATM   17  C12 UNL     1      -1.384  -5.481  -6.121  1.00  0.00     0.234 C
HETATM   18  N7  UNL     1      -2.430  -6.130  -5.357  1.00  0.00    -0.073 N
HETATM   19  C13 UNL     1      -3.647  -5.360  -5.333  1.00  0.00     0.262 C
ATOM     20  H72 UNL     1      -2.600  -7.078  -5.695  1.00  0.00     0.277 HD
ATOM     21  H71 UNL     1      -2.114  -6.350  -4.411  1.00  0.00     0.277 HD
HETATM   22  C14 UNL     1      -4.637  -6.082  -6.246  1.00  0.00     0.300 C
ENDBRANCH  13  14
ENDBRANCH  12  13
ENDBRANCH  10  12
ENDBRANCH   1  10
BRANCH   2  23
HETATM   23  S1  UNL     1     -10.773  -8.597  -6.947  1.00  0.00    -0.047 SA
BRANCH  23  24
HETATM   24  C4  UNL     1     -10.339 -10.350  -7.068  1.00  0.00     0.173 C
BRANCH  24  25
HETATM   25  C5  UNL     1     -10.664 -11.013  -5.775  1.00  0.00     0.084 C
HETATM   26  N3  UNL     1      -9.877 -11.206  -4.800  1.00  0.00    -0.378 N
HETATM   27  C6  UNL     1     -10.497 -11.882  -3.681  1.00  0.00     0.140 C
ATOM     28  H3  UNL     1      -8.900 -10.912  -4.804  1.00  0.00     0.160 HD
HETATM   29  C7  UNL     1     -11.800 -12.381  -4.280  1.00  0.00     0.140 C
HETATM   30  N4  UNL     1     -11.930 -11.538  -5.453  1.00  0.00    -0.378 N
ATOM     31  H4  UNL     1     -12.795 -11.355  -5.960  1.00  0.00     0.160 HD
ENDBRANCH  24  25
ENDBRANCH  23  24
ENDBRANCH   2  23
TORSDOF 10
ENDMDL