MODEL 4
REMARK VINA RESULT: -7.094745889      4.431      8.355
REMARK  9 active torsions:
REMARK  status: ('A' for Active; 'I' for Inactive)
REMARK    1  A    between atoms: C2_2  and  C3_3
REMARK    2  A    between atoms: C3_3  and  C4_4
REMARK    3  A    between atoms: C4_4  and  C5_5
REMARK    4  A    between atoms: C5_5  and  C6_6
REMARK    5  A    between atoms: C6_6  and  N1_7
REMARK    6  A    between atoms: N1_7  and  C8_9
REMARK    7  A    between atoms: C12_16  and  O2_17
REMARK    8  A    between atoms: C13_19  and  O3_20
REMARK    9  A    between atoms: C14_22  and  O4_23
ROOT
HETATM    1  C8  UNL     1      -7.563  -7.175  -8.314  1.00  0.00     0.105 A
HETATM    2  N2  UNL     1      -8.252  -7.438  -7.299  1.00  0.00    -0.377 N
ATOM      3  H2  UNL     1      -7.889  -7.408  -6.346  1.00  0.00     0.160 HD
HETATM    4  C9  UNL     1      -9.587  -7.779  -7.621  1.00  0.00     0.131 A
HETATM    5  C10 UNL     1      -9.675  -7.731  -9.100  1.00  0.00     0.071 A
HETATM    6  C11 UNL     1      -8.350  -7.299  -9.556  1.00  0.00     0.200 A
HETATM    7  O1  UNL     1      -7.659  -8.115 -10.396  1.00  0.00    -0.345 OA
HETATM    8  C12 UNL     1      -8.301  -8.922 -11.254  1.00  0.00     0.288 C
HETATM    9  C13 UNL     1      -9.779  -9.033 -11.122  1.00  0.00     0.202 C
HETATM   10  C14 UNL     1     -10.076  -9.108  -9.617  1.00  0.00     0.160 C
ENDROOT
BRANCH   1  11
HETATM   11  N1  UNL     1      -6.166  -6.794  -8.306  1.00  0.00    -0.373 N
HETATM   12  C7  UNL     1      -5.564  -6.515  -9.587  1.00  0.00     0.150 C
BRANCH  11  13
HETATM   13  C6  UNL     1      -5.421  -6.703  -7.073  1.00  0.00     0.123 C
BRANCH  13  14
HETATM   14  C5  UNL     1      -4.215  -5.831  -7.343  1.00  0.00     0.020 C
BRANCH  14  15
HETATM   15  C4  UNL     1      -2.920  -6.528  -7.054  1.00  0.00     0.002 C
BRANCH  15  16
HETATM   16  C3  UNL     1      -1.873  -5.461  -6.795  1.00  0.00    -0.000 C
BRANCH  16  17
HETATM   17  C2  UNL     1      -1.188  -5.695  -5.460  1.00  0.00    -0.005 C
HETATM   18  C1  UNL     1      -1.600  -7.062  -4.966  1.00  0.00     0.005 C
ENDBRANCH  16  17
ENDBRANCH  15  16
ENDBRANCH  14  15
ENDBRANCH  13  14
ENDBRANCH  11  13
ENDBRANCH   1  11
BRANCH  10  19
HETATM   19  O4  UNL     1     -11.424  -9.354  -9.446  1.00  0.00    -0.392 OA
ATOM     20  H4  UNL     1     -11.652  -9.477  -8.532  1.00  0.00     0.210 HD
ENDBRANCH  10  19
BRANCH   8  21
HETATM   21  O2  UNL     1      -7.784 -10.231 -11.089  1.00  0.00    -0.368 OA
ATOM     22  H2  UNL     1      -8.518 -10.821 -10.964  1.00  0.00     0.212 HD
ENDBRANCH   8  21
BRANCH   9  23
HETATM   23  O3  UNL     1     -10.248 -10.187 -11.750  1.00  0.00    -0.388 OA
ATOM     24  H3  UNL     1     -11.184 -10.284 -11.623  1.00  0.00     0.210 HD
ENDBRANCH   9  23
TORSDOF 9
ENDMDL