MODEL 1
REMARK VINA RESULT: -6.746158845      0.000      0.000
REMARK  9 active torsions:
REMARK  status: ('A' for Active; 'I' for Inactive)
REMARK    1  A    between atoms: C3_3  and  C4_4
REMARK    2  A    between atoms: C5_6  and  C6_7
REMARK    3  A    between atoms: C6_7  and  S1_8
REMARK    4  A    between atoms: S1_8  and  C7_9
REMARK    5  A    between atoms: C7_9  and  C8_10
REMARK    6  A    between atoms: C8_10  and  N1_11
REMARK    7  A    between atoms: C11_14  and  O2_15
REMARK    8  A    between atoms: C12_17  and  O3_18
REMARK    9  A    between atoms: C13_20  and  O4_21
ROOT
HETATM    1  C1  UNL     1      -2.349  -9.932  -3.856  1.00  0.00     0.097 C
HETATM    2  C2  UNL     1      -2.098  -8.809  -4.493  1.00  0.00    -0.185 C
HETATM    3  C3  UNL     1      -1.936  -7.663  -5.122  1.00  0.00     0.114 C
ENDROOT
BRANCH   3   4
HETATM    4  C4  UNL     1      -3.158  -6.999  -5.570  1.00  0.00     0.163 C
HETATM    5  O1  UNL     1      -3.627  -7.319  -6.785  1.00  0.00    -0.374 OA
HETATM    6  C5  UNL     1      -3.039  -6.749  -7.899  1.00  0.00     0.162 C
HETATM    7  C11 UNL     1      -2.635  -5.341  -7.733  1.00  0.00     0.179 C
HETATM    8  C12 UNL     1      -2.009  -5.045  -6.372  1.00  0.00     0.180 C
HETATM    9  C13 UNL     1      -2.979  -5.511  -5.333  1.00  0.00     0.179 C
BRANCH   6  10
HETATM   10  C6  UNL     1      -4.062  -6.901  -8.993  1.00  0.00     0.108 C
BRANCH  10  11
HETATM   11  S1  UNL     1      -5.749  -7.102  -8.531  1.00  0.00    -0.165 SA
BRANCH  11  12
HETATM   12  C7  UNL     1      -7.008  -6.732  -9.731  1.00  0.00     0.104 C
BRANCH  12  13
HETATM   13  C8  UNL     1      -7.451  -8.075 -10.334  1.00  0.00     0.281 C
BRANCH  13  14
HETATM   14  N1  UNL     1      -8.867  -8.288 -10.220  1.00  0.00     0.080 N
HETATM   15  C9  UNL     1      -9.445  -9.000 -11.335  1.00  0.00     0.309 C
HETATM   16  C10 UNL     1      -9.099  -9.008  -8.974  1.00  0.00     0.309 C
ENDBRANCH  13  14
ENDBRANCH  12  13
ENDBRANCH  11  12
ENDBRANCH  10  11
ENDBRANCH   6  10
BRANCH   7  17
HETATM   17  O2  UNL     1      -3.701  -4.453  -7.820  1.00  0.00    -0.390 OA
ATOM     18  H2  UNL     1      -3.583  -3.794  -8.493  1.00  0.00     0.210 HD
ENDBRANCH   7  17
BRANCH   8  19
HETATM   19  O3  UNL     1      -0.757  -5.604  -6.261  1.00  0.00    -0.390 OA
ATOM     20  H3  UNL     1      -0.140  -5.195  -6.856  1.00  0.00     0.210 HD
ENDBRANCH   8  19
BRANCH   9  21
HETATM   21  O4  UNL     1      -4.179  -4.820  -5.512  1.00  0.00    -0.390 OA
ATOM     22  H4  UNL     1      -4.094  -3.908  -5.261  1.00  0.00     0.210 HD
ENDBRANCH   9  21
ENDBRANCH   3   4
TORSDOF 9
ENDMDL