MODEL 1
REMARK VINA RESULT: -6.508403380      0.000      0.000
REMARK  10 active torsions:
REMARK  status: ('A' for Active; 'I' for Inactive)
REMARK    1  A    between atoms: N1_1  and  C1_5
REMARK    2  A    between atoms: C2_6  and  O1_7
REMARK    3  A    between atoms: C3_9  and  O2_10
REMARK    4  A    between atoms: C4_12  and  O3_13
REMARK    5  A    between atoms: C5_15  and  O4_16
REMARK    6  A    between atoms: O4_16  and  C6_17
REMARK    7  A    between atoms: C6_17  and  C7_18
REMARK    8  A    between atoms: C10_21  and  O5_22
REMARK    9  A    between atoms: O5_22  and  C11_23
REMARK   10  A    between atoms: C11_23  and  C12_24
ROOT
HETATM    1  C1  UNL     1      -1.266  -5.385  -3.354  1.00  0.00     0.245 C
HETATM    2  C2  UNL     1      -1.388  -3.857  -3.244  1.00  0.00     0.182 C
HETATM    3  C3  UNL     1      -2.802  -3.595  -3.699  1.00  0.00     0.180 C
HETATM    4  C4  UNL     1      -2.994  -3.973  -5.112  1.00  0.00     0.180 C
HETATM    5  C5  UNL     1      -2.360  -5.223  -5.589  1.00  0.00     0.183 C
HETATM    6  C10 UNL     1      -1.121  -5.691  -4.810  1.00  0.00     0.186 C
ENDROOT
BRANCH   5   7
HETATM    7  O4  UNL     1      -2.017  -5.025  -6.911  1.00  0.00    -0.380 OA
BRANCH   7   8
HETATM    8  C6  UNL     1      -2.522  -5.908  -7.818  1.00  0.00     0.173 C
BRANCH   8   9
HETATM    9  C7  UNL     1      -3.946  -5.770  -8.198  1.00  0.00     0.009 A
HETATM   10  C8  UNL     1      -4.636  -6.640  -9.147  1.00  0.00     0.007 A
HETATM   11  C9  UNL     1      -4.864  -6.897  -7.691  1.00  0.00     0.007 A
ENDBRANCH   8   9
ENDBRANCH   7   8
ENDBRANCH   5   7
BRANCH   4  12
HETATM   12  O3  UNL     1      -2.626  -2.867  -5.896  1.00  0.00    -0.390 OA
ATOM     13  H3  UNL     1      -1.965  -3.162  -6.511  1.00  0.00     0.210 HD
ENDBRANCH   4  12
BRANCH   6  14
HETATM   14  O5  UNL     1      -0.974  -7.032  -4.975  1.00  0.00    -0.381 OA
BRANCH  14  15
HETATM   15  C11 UNL     1      -1.944  -7.906  -4.729  1.00  0.00     0.172 C
BRANCH  15  16
HETATM   16  C12 UNL     1      -1.817  -9.123  -3.918  1.00  0.00     0.009 A
HETATM   17  C13 UNL     1      -2.939 -10.028  -3.535  1.00  0.00     0.007 A
HETATM   18  C14 UNL     1      -2.076 -10.453  -4.637  1.00  0.00     0.007 A
ENDBRANCH  15  16
ENDBRANCH  14  15
ENDBRANCH   6  14
BRANCH   3  19
HETATM   19  O2  UNL     1      -3.638  -4.362  -2.858  1.00  0.00    -0.390 OA
ATOM     20  H2  UNL     1      -3.594  -5.255  -3.180  1.00  0.00     0.210 HD
ENDBRANCH   3  19
BRANCH   1  21
HETATM   21  N1  UNL     1      -0.174  -5.808  -2.568  1.00  0.00    -0.070 N
ATOM     22  H13 UNL     1       0.082  -5.124  -1.856  1.00  0.00     0.274 HD
ATOM     23  H12 UNL     1      -0.417  -6.577  -1.944  1.00  0.00     0.274 HD
ATOM     24  H11 UNL     1       0.603  -6.038  -3.187  1.00  0.00     0.274 HD
ENDBRANCH   1  21
BRANCH   2  25
HETATM   25  O1  UNL     1      -1.180  -3.528  -1.926  1.00  0.00    -0.391 OA
ATOM     26  H1  UNL     1      -1.319  -2.592  -1.847  1.00  0.00     0.210 HD
ENDBRANCH   2  25
TORSDOF 10
ENDMDL