MODEL 1
REMARK VINA RESULT: -8.199764379      0.000      0.000
REMARK  9 active torsions:
REMARK  status: ('A' for Active; 'I' for Inactive)
REMARK    1  A    between atoms: O1_1  and  C1_3
REMARK    2  A    between atoms: C3_6  and  C4_7
REMARK    3  A    between atoms: C4_7  and  N1_8
REMARK    4  A    between atoms: N1_8  and  C5_10
REMARK    5  A    between atoms: C5_10  and  C6_11
REMARK    6  A    between atoms: C6_11  and  C7_12
REMARK    7  A    between atoms: C7_12  and  N2_13
REMARK    8  A    between atoms: C13_19  and  O3_20
REMARK    9  A    between atoms: C14_22  and  O4_23
ROOT
HETATM    1  C1  UNL     1      -1.596  -5.305  -4.723  1.00  0.00     0.173 C
HETATM    2  C2  UNL     1      -2.589  -4.236  -5.010  1.00  0.00     0.202 C
HETATM    3  O2  UNL     1      -3.495  -4.596  -5.950  1.00  0.00    -0.379 OA
HETATM    4  C3  UNL     1      -3.034  -5.497  -6.879  1.00  0.00     0.170 C
HETATM    5  C13 UNL     1      -2.869  -6.844  -6.221  1.00  0.00     0.180 C
HETATM    6  C14 UNL     1      -2.075  -6.710  -4.945  1.00  0.00     0.180 C
ENDROOT
BRANCH   4   7
HETATM    7  C4  UNL     1      -4.018  -5.528  -8.040  1.00  0.00     0.148 C
BRANCH   7   8
HETATM    8  N1  UNL     1      -4.002  -6.763  -8.735  1.00  0.00    -0.419 N
ATOM      9  H1  UNL     1      -3.184  -7.372  -8.732  1.00  0.00     0.153 HD
BRANCH   8  10
HETATM   10  C5  UNL     1      -5.183  -7.102  -9.431  1.00  0.00     0.115 C
BRANCH  10  11
HETATM   11  C6  UNL     1      -6.408  -6.829  -8.602  1.00  0.00     0.049 C
BRANCH  11  12
HETATM   12  C7  UNL     1      -7.642  -7.197  -9.398  1.00  0.00     0.274 C
BRANCH  12  13
HETATM   13  N2  UNL     1      -7.921  -8.593  -9.396  1.00  0.00     0.088 N
HETATM   14  C8  UNL     1      -8.074  -9.099 -10.768  1.00  0.00     0.272 C
HETATM   15  C9  UNL     1      -9.300  -8.572 -11.428  1.00  0.00     0.030 C
HETATM   16  C10 UNL     1     -10.519  -8.965 -10.621  1.00  0.00     0.003 C
HETATM   17  C11 UNL     1     -10.360  -8.400  -9.229  1.00  0.00     0.030 C
HETATM   18  C12 UNL     1      -9.100  -8.959  -8.624  1.00  0.00     0.272 C
ENDBRANCH  12  13
ENDBRANCH  11  12
ENDBRANCH  10  11
ENDBRANCH   8  10
ENDBRANCH   7   8
ENDBRANCH   4   7
BRANCH   5  19
HETATM   19  O3  UNL     1      -4.089  -7.443  -5.908  1.00  0.00    -0.390 OA
ATOM     20  H3  UNL     1      -4.440  -7.145  -5.077  1.00  0.00     0.210 HD
ENDBRANCH   5  19
BRANCH   6  21
HETATM   21  O4  UNL     1      -0.929  -7.524  -4.982  1.00  0.00    -0.390 OA
ATOM     22  H4  UNL     1      -0.564  -7.439  -5.854  1.00  0.00     0.210 HD
ENDBRANCH   6  21
BRANCH   1  23
HETATM   23  O1  UNL     1      -0.394  -5.048  -5.414  1.00  0.00    -0.391 OA
ATOM     24  H1  UNL     1      -0.206  -5.758  -6.017  1.00  0.00     0.210 HD
ENDBRANCH   1  23
TORSDOF 9
ENDMDL