MODEL 3
REMARK VINA RESULT: -7.403212657      1.265      1.546
REMARK  10 active torsions:
REMARK  status: ('A' for Active; 'I' for Inactive)
REMARK    1  A    between atoms: N1_1  and  C1_5
REMARK    2  A    between atoms: C1_5  and  C2_6
REMARK    3  A    between atoms: C1_5  and  C9_18
REMARK    4  A    between atoms: C2_6  and  N2_7
REMARK    5  A    between atoms: C6_11  and  O1_12
REMARK    6  A    between atoms: C7_14  and  C8_15
REMARK    7  A    between atoms: C8_15  and  O2_16
REMARK    8  A    between atoms: C9_18  and  O3_19
REMARK    9  A    between atoms: C9_18  and  C10_21
REMARK   10  A    between atoms: C10_21  and  N3_22
ROOT
HETATM    1  C1  UNL     1      -5.382  -6.278  -7.835  1.00  0.00     0.231 C
ENDROOT
BRANCH   1   2
HETATM    2  N1  UNL     1      -6.094  -6.797  -6.710  1.00  0.00    -0.071 N
ATOM      3  H13 UNL     1      -6.883  -6.199  -6.465  1.00  0.00     0.274 HD
ATOM      4  H12 UNL     1      -6.604  -7.646  -6.956  1.00  0.00     0.274 HD
ATOM      5  H11 UNL     1      -5.485  -6.951  -5.907  1.00  0.00     0.274 HD
ENDBRANCH   1   2
BRANCH   1   6
HETATM    6  C2  UNL     1      -3.896  -6.564  -7.752  1.00  0.00     0.158 C
BRANCH   6   7
HETATM    7  N2  UNL     1      -3.353  -6.488  -6.453  1.00  0.00    -0.382 N
HETATM    8  C3  UNL     1      -3.129  -7.664  -5.726  1.00  0.00     0.059 C
HETATM    9  C4  UNL     1      -1.916  -7.739  -4.870  1.00  0.00     0.047 C
HETATM   10  C5  UNL     1      -1.435  -6.448  -4.314  1.00  0.00     0.039 C
HETATM   11  C6  UNL     1      -1.576  -5.279  -5.248  1.00  0.00     0.143 C
HETATM   12  C7  UNL     1      -2.889  -5.256  -5.976  1.00  0.00     0.135 C
BRANCH  11  13
HETATM   13  O1  UNL     1      -0.482  -5.251  -6.109  1.00  0.00    -0.393 OA
ATOM     14  H1  UNL     1      -0.086  -6.115  -6.137  1.00  0.00     0.210 HD
ENDBRANCH  11  13
BRANCH  12  15
HETATM   15  C8  UNL     1      -3.917  -4.645  -5.028  1.00  0.00     0.191 C
BRANCH  15  16
HETATM   16  O2  UNL     1      -3.512  -3.356  -4.660  1.00  0.00    -0.399 OA
ATOM     17  H2  UNL     1      -4.144  -2.981  -4.059  1.00  0.00     0.209 HD
ENDBRANCH  15  16
ENDBRANCH  12  15
ENDBRANCH   6   7
ENDBRANCH   1   6
BRANCH   1  18
HETATM   18  C9  UNL     1      -5.987  -6.761  -9.110  1.00  0.00     0.168 C
BRANCH  18  19
HETATM   19  O3  UNL     1      -4.964  -7.143  -9.978  1.00  0.00    -0.392 OA
ATOM     20  H3  UNL     1      -5.055  -8.069 -10.171  1.00  0.00     0.210 HD
ENDBRANCH  18  19
BRANCH  18  21
HETATM   21  C10 UNL     1      -6.901  -7.922  -8.895  1.00  0.00     0.155 C
BRANCH  21  22
HETATM   22  N3  UNL     1      -8.046  -7.943  -9.723  1.00  0.00    -0.391 N
HETATM   23  C11 UNL     1      -9.316  -8.037  -9.126  1.00  0.00     0.058 C
HETATM   24  C12 UNL     1     -10.247  -8.565 -10.166  1.00  0.00     0.046 C
HETATM   25  C13 UNL     1      -9.442  -8.655 -11.430  1.00  0.00     0.025 C
HETATM   26  C14 UNL     1      -7.995  -8.726 -10.909  1.00  0.00     0.122 C
ENDBRANCH  21  22
ENDBRANCH  18  21
ENDBRANCH   1  18
TORSDOF 10
ENDMDL