MODEL 2
REMARK VINA RESULT: -7.805424335      5.803      8.881
REMARK  10 active torsions:
REMARK  status: ('A' for Active; 'I' for Inactive)
REMARK    1  A    between atoms: C2_2  and  C3_3
REMARK    2  A    between atoms: C3_3  and  C4_4
REMARK    3  A    between atoms: C4_4  and  C5_5
REMARK    4  A    between atoms: C5_5  and  C6_6
REMARK    5  A    between atoms: C6_6  and  N1_7
REMARK    6  A    between atoms: N1_7  and  C7_9
REMARK    7  A    between atoms: C8_12  and  N3_13
REMARK    8  A    between atoms: C10_18  and  N5_19
REMARK    9  A    between atoms: N5_19  and  C11_21
REMARK   10  A    between atoms: C11_21  and  O1_22
ROOT
HETATM    1  C7  UNL     1      -2.134  -5.217  -6.696  1.00  0.00     0.707 A
HETATM    2  N2  UNL     1      -1.640  -6.279  -6.018  1.00  0.00    -0.022 N
ATOM      3  H2  UNL     1      -1.446  -7.153  -6.507  1.00  0.00     0.203 HD
HETATM    4  C8  UNL     1      -1.409  -6.176  -4.702  1.00  0.00     0.706 A
HETATM    5  N4  UNL     1      -1.664  -5.026  -4.042  1.00  0.00    -0.021 N
ATOM      6  H4  UNL     1      -1.482  -4.969  -3.040  1.00  0.00     0.203 HD
HETATM    7  C10 UNL     1      -2.154  -3.954  -4.689  1.00  0.00     0.711 A
HETATM    8  N6  UNL     1      -2.383  -4.063  -6.007  1.00  0.00    -0.021 N
ATOM      9  H6  UNL     1      -2.754  -3.258  -6.511  1.00  0.00     0.203 HD
ENDROOT
BRANCH   1  10
HETATM   10  N1  UNL     1      -2.363  -5.294  -7.963  1.00  0.00    -0.225 N
ATOM     11  H1  UNL     1      -1.585  -5.331  -8.623  1.00  0.00     0.177 HD
BRANCH  10  12
HETATM   12  C6  UNL     1      -3.712  -5.328  -8.437  1.00  0.00     0.138 C
BRANCH  12  13
HETATM   13  C5  UNL     1      -4.209  -6.798  -8.547  1.00  0.00     0.020 C
BRANCH  13  14
HETATM   14  C4  UNL     1      -5.461  -6.944  -7.734  1.00  0.00     0.002 C
BRANCH  14  15
HETATM   15  C3  UNL     1      -6.711  -7.295  -8.435  1.00  0.00    -0.000 C
BRANCH  15  16
HETATM   16  C2  UNL     1      -6.733  -7.154  -9.905  1.00  0.00    -0.005 C
HETATM   17  C1  UNL     1      -7.511  -8.151 -10.693  1.00  0.00     0.005 C
ENDBRANCH  15  16
ENDBRANCH  14  15
ENDBRANCH  13  14
ENDBRANCH  12  13
ENDBRANCH  10  12
ENDBRANCH   1  10
BRANCH   4  18
HETATM   18  N3  UNL     1      -0.943  -7.186  -4.069  1.00  0.00    -0.229 N
HETATM   19  C9  UNL     1      -1.350  -7.460  -2.720  1.00  0.00     0.165 C
ATOM     20  H3  UNL     1      -0.274  -7.803  -4.529  1.00  0.00     0.177 HD
ENDBRANCH   4  18
BRANCH   7  21
HETATM   21  N5  UNL     1      -2.405  -2.855  -4.105  1.00  0.00    -0.165 N
ATOM     22  H5  UNL     1      -2.934  -2.917  -3.234  1.00  0.00     0.183 HD
BRANCH  21  23
HETATM   23  C11 UNL     1      -2.035  -1.548  -4.525  1.00  0.00     0.283 A
HETATM   24  C12 UNL     1      -1.491  -0.517  -3.673  1.00  0.00     0.267 A
HETATM   25  O2  UNL     1      -2.873  -0.555  -3.760  1.00  0.00    -0.329 OA
BRANCH  23  26
HETATM   26  O1  UNL     1      -2.214  -1.231  -5.886  1.00  0.00    -0.347 OA
ATOM     27  H1  UNL     1      -1.595  -0.628  -6.279  1.00  0.00     0.215 HD
ENDBRANCH  23  26
ENDBRANCH  21  23
ENDBRANCH   7  21
TORSDOF 10
ENDMDL