MODEL 1
REMARK VINA RESULT: -6.847709223      0.000      0.000
REMARK  10 active torsions:
REMARK  status: ('A' for Active; 'I' for Inactive)
REMARK    1  A    between atoms: C4_4  and  O1_5
REMARK    2  A    between atoms: C5_7  and  O2_8
REMARK    3  A    between atoms: C6_10  and  O3_11
REMARK    4  A    between atoms: C7_13  and  O4_14
REMARK    5  A    between atoms: N1_17  and  C9_18
REMARK    6  A    between atoms: C9_18  and  C10_19
REMARK    7  A    between atoms: C10_19  and  C11_20
REMARK    8  A    between atoms: C11_20  and  C12_21
REMARK    9  A    between atoms: C12_21  and  C13_22
REMARK   10  A    between atoms: C13_22  and  C14_23
ROOT
HETATM    1  C1  UNL     1      -2.223 -10.133  -4.685  1.00  0.00     0.014 C
HETATM    2  C2  UNL     1      -2.507  -8.957  -4.738  1.00  0.00    -0.089 C
HETATM    3  C3  UNL     1      -2.834  -7.534  -4.780  1.00  0.00     0.193 C
HETATM    4  C4  UNL     1      -1.721  -6.800  -4.080  1.00  0.00     0.184 C
HETATM    5  C5  UNL     1      -1.886  -5.324  -4.002  1.00  0.00     0.181 C
HETATM    6  C6  UNL     1      -2.231  -4.651  -5.287  1.00  0.00     0.179 C
HETATM    7  C7  UNL     1      -1.581  -5.253  -6.492  1.00  0.00     0.167 C
HETATM    8  C8  UNL     1      -2.103  -6.594  -6.884  1.00  0.00     0.157 C
HETATM    9  N1  UNL     1      -3.146  -7.089  -6.060  1.00  0.00    -0.373 N
ENDROOT
BRANCH   4  10
HETATM   10  O1  UNL     1      -0.489  -7.168  -4.595  1.00  0.00    -0.390 OA
ATOM     11  H1  UNL     1      -0.541  -7.295  -5.535  1.00  0.00     0.210 HD
ENDBRANCH   4  10
BRANCH   9  12
HETATM   12  C9  UNL     1      -4.406  -7.266  -6.614  1.00  0.00     0.059 C
BRANCH  12  13
HETATM   13  C10 UNL     1      -4.697  -6.792  -7.985  1.00  0.00     0.044 C
BRANCH  13  14
HETATM   14  C11 UNL     1      -6.122  -6.881  -8.417  1.00  0.00     0.005 C
BRANCH  14  15
HETATM   15  C12 UNL     1      -6.263  -7.140  -9.898  1.00  0.00     0.000 C
BRANCH  15  16
HETATM   16  C13 UNL     1      -7.718  -7.347 -10.268  1.00  0.00    -0.000 C
BRANCH  16  17
HETATM   17  C14 UNL     1      -7.982  -8.779 -10.674  1.00  0.00    -0.005 C
HETATM   18  C15 UNL     1      -9.330  -8.988 -11.311  1.00  0.00     0.005 C
ENDBRANCH  16  17
ENDBRANCH  15  16
ENDBRANCH  14  15
ENDBRANCH  13  14
ENDBRANCH  12  13
ENDBRANCH   9  12
BRANCH   5  19
HETATM   19  O2  UNL     1      -2.781  -5.021  -3.001  1.00  0.00    -0.390 OA
ATOM     20  H2  UNL     1      -2.465  -4.267  -2.518  1.00  0.00     0.210 HD
ENDBRANCH   5  19
BRANCH   6  21
HETATM   21  O3  UNL     1      -3.598  -4.479  -5.438  1.00  0.00    -0.390 OA
ATOM     22  H3  UNL     1      -3.923  -4.872  -6.239  1.00  0.00     0.210 HD
ENDBRANCH   6  21
BRANCH   7  23
HETATM   23  O4  UNL     1      -1.744  -4.344  -7.567  1.00  0.00    -0.391 OA
ATOM     24  H4  UNL     1      -2.631  -4.007  -7.528  1.00  0.00     0.210 HD
ENDBRANCH   7  23
TORSDOF 10
ENDMDL