MODEL 3
REMARK VINA RESULT: -6.383734718      3.828      7.664
REMARK  9 active torsions:
REMARK  status: ('A' for Active; 'I' for Inactive)
REMARK    1  A    between atoms: S1_2  and  C2_4
REMARK    2  A    between atoms: C2_4  and  C3_5
REMARK    3  A    between atoms: C3_5  and  S2_6
REMARK    4  A    between atoms: S2_6  and  C4_7
REMARK    5  A    between atoms: C4_7  and  C5_8
REMARK    6  A    between atoms: C7_10  and  O2_11
REMARK    7  A    between atoms: C8_13  and  O3_14
REMARK    8  A    between atoms: C9_16  and  C10_17
REMARK    9  A    between atoms: C10_17  and  N1_18
ROOT
HETATM    1  C5  UNL     1      -3.766  -6.916  -6.705  1.00  0.00     0.134 C
HETATM    2  C6  UNL     1      -4.237  -5.570  -6.252  1.00  0.00     0.067 C
HETATM    3  C7  UNL     1      -3.102  -4.573  -6.113  1.00  0.00     0.151 C
HETATM    4  C8  UNL     1      -1.911  -5.206  -5.444  1.00  0.00     0.177 C
HETATM    5  C9  UNL     1      -2.355  -6.564  -4.922  1.00  0.00     0.178 C
HETATM    6  O4  UNL     1      -2.656  -7.353  -6.020  1.00  0.00    -0.375 OA
ENDROOT
BRANCH   1   7
HETATM    7  C4  UNL     1      -3.531  -6.947  -8.218  1.00  0.00     0.105 C
BRANCH   7   8
HETATM    8  S2  UNL     1      -4.951  -6.329  -9.120  1.00  0.00    -0.166 SA
BRANCH   8   9
HETATM    9  C3  UNL     1      -6.451  -7.289  -8.782  1.00  0.00     0.086 C
BRANCH   9  10
HETATM   10  C2  UNL     1      -7.400  -7.128  -9.921  1.00  0.00     0.118 C
BRANCH  10  11
HETATM   11  S1  UNL     1      -8.860  -8.115  -9.740  1.00  0.00     0.011 S
HETATM   12  C1  UNL     1      -9.440  -8.728 -11.296  1.00  0.00     0.127 C
HETATM   13  O1  UNL     1      -8.628  -9.396  -8.709  1.00  0.00    -0.258 OA
ENDBRANCH  10  11
ENDBRANCH   9  10
ENDBRANCH   8   9
ENDBRANCH   7   8
ENDBRANCH   1   7
BRANCH   3  14
HETATM   14  O2  UNL     1      -3.555  -3.524  -5.334  1.00  0.00    -0.393 OA
ATOM     15  H2  UNL     1      -3.182  -2.723  -5.682  1.00  0.00     0.210 HD
ENDBRANCH   3  14
BRANCH   5  16
HETATM   16  C10 UNL     1      -1.179  -7.144  -4.174  1.00  0.00     0.264 C
BRANCH  16  17
HETATM   17  N1  UNL     1      -0.531  -6.181  -3.338  1.00  0.00    -0.077 N
ATOM     18  H13 UNL     1       0.249  -5.739  -3.825  1.00  0.00     0.274 HD
ATOM     19  H12 UNL     1      -1.122  -5.362  -3.196  1.00  0.00     0.274 HD
ATOM     20  H11 UNL     1      -0.230  -6.576  -2.447  1.00  0.00     0.274 HD
ENDBRANCH  16  17
ENDBRANCH   5  16
BRANCH   4  21
HETATM   21  O3  UNL     1      -0.887  -5.370  -6.378  1.00  0.00    -0.390 OA
ATOM     22  H3  UNL     1      -0.308  -6.067  -6.092  1.00  0.00     0.210 HD
ENDBRANCH   4  21
TORSDOF 9
ENDMDL