MODEL 3
REMARK VINA RESULT: -6.968942542      1.620      1.867
REMARK  9 active torsions:
REMARK  status: ('A' for Active; 'I' for Inactive)
REMARK    1  A    between atoms: C2_2  and  C3_3
REMARK    2  A    between atoms: C3_3  and  C4_4
REMARK    3  A    between atoms: C5_5  and  C6_6
REMARK    4  A    between atoms: C6_6  and  C7_7
REMARK    5  A    between atoms: C8_9  and  C9_10
REMARK    6  A    between atoms: C9_10  and  S1_11
REMARK    7  A    between atoms: C10_14  and  O4_15
REMARK    8  A    between atoms: C11_17  and  O5_18
REMARK    9  A    between atoms: C12_20  and  O6_21
ROOT
HETATM    1  C7  UNL     1      -3.318  -6.220  -6.633  1.00  0.00     0.156 C
HETATM    2  O1  UNL     1      -2.869  -6.971  -5.581  1.00  0.00    -0.374 OA
HETATM    3  C8  UNL     1      -1.734  -6.425  -4.961  1.00  0.00     0.168 C
HETATM    4  C10 UNL     1      -2.031  -5.166  -4.230  1.00  0.00     0.179 C
HETATM    5  C11 UNL     1      -3.300  -4.570  -4.842  1.00  0.00     0.180 C
HETATM    6  C12 UNL     1      -3.188  -4.738  -6.344  1.00  0.00     0.178 C
ENDROOT
BRANCH   1   7
HETATM    7  C6  UNL     1      -2.794  -6.589  -7.977  1.00  0.00     0.061 C
BRANCH   7   8
HETATM    8  C5  UNL     1      -3.803  -7.059  -8.950  1.00  0.00    -0.028 C
HETATM    9  C4  UNL     1      -4.994  -6.584  -9.129  1.00  0.00    -0.031 C
BRANCH   9  10
HETATM   10  C3  UNL     1      -6.001  -7.043 -10.086  1.00  0.00     0.026 C
BRANCH  10  11
HETATM   11  C2  UNL     1      -7.251  -7.630  -9.533  1.00  0.00    -0.001 C
HETATM   12  C1  UNL     1      -7.490  -7.299  -8.078  1.00  0.00     0.005 C
ENDBRANCH  10  11
ENDBRANCH   9  10
ENDBRANCH   7   8
ENDBRANCH   1   7
BRANCH   6  13
HETATM   13  O6  UNL     1      -2.013  -4.229  -6.843  1.00  0.00    -0.390 OA
ATOM     14  H6  UNL     1      -1.567  -4.860  -7.396  1.00  0.00     0.210 HD
ENDBRANCH   6  13
BRANCH   3  15
HETATM   15  C9  UNL     1      -1.155  -7.515  -4.096  1.00  0.00     0.191 C
BRANCH  15  16
HETATM   16  S1  UNL     1      -1.376  -7.226  -2.372  1.00  0.00     0.253 S
HETATM   17  O2  UNL     1       0.164  -7.318  -1.658  1.00  0.00    -0.212 OA
HETATM   18  O3  UNL     1      -2.304  -8.419  -1.638  1.00  0.00    -0.212 OA
ENDBRANCH  15  16
ENDBRANCH   3  15
BRANCH   5  19
HETATM   19  O5  UNL     1      -3.407  -3.212  -4.577  1.00  0.00    -0.390 OA
ATOM     20  H5  UNL     1      -3.829  -3.050  -3.741  1.00  0.00     0.210 HD
ENDBRANCH   5  19
BRANCH   4  21
HETATM   21  O4  UNL     1      -1.041  -4.191  -4.363  1.00  0.00    -0.390 OA
ATOM     22  H4  UNL     1      -1.383  -3.309  -4.455  1.00  0.00     0.210 HD
ENDBRANCH   4  21
TORSDOF 9
ENDMDL