MODEL 4
REMARK VINA RESULT: -7.343544937      2.429      7.492
REMARK  5 active torsions:
REMARK  status: ('A' for Active; 'I' for Inactive)
REMARK    1  A    between atoms: C2_2  and  N1_3
REMARK       I    between atoms: N1_3  and  C3_4
REMARK    2  A    between atoms: N1_3  and  C13_18
REMARK    3  A    between atoms: C3_4  and  C4_6
REMARK    4  A    between atoms: C9_12  and  O3_13
REMARK    5  A    between atoms: C9_12  and  C10_15
ROOT
HETATM    1  C13 UNL     1       6.376  -7.763   8.247  1.00  0.00     0.104 C
HETATM    2  C14 UNL     1       7.613  -7.354   7.537  1.00  0.00     0.028 C
HETATM    3  C15 UNL     1       8.367  -7.275   8.829  1.00  0.00     0.023 C
HETATM    4  C16 UNL     1       7.077  -7.527   9.565  1.00  0.00     0.116 C
HETATM    5  C17 UNL     1       7.144  -8.697  10.445  1.00  0.00     0.066 C
HETATM    6  N2  UNL     1       7.217  -9.618  11.132  1.00  0.00    -0.197 NA
ENDROOT
BRANCH   1   7
HETATM    7  N1  UNL     1       5.181  -6.958   8.030  1.00  0.00    -0.346 N
HETATM    8  C3  UNL     1       4.761  -6.568   6.757  1.00  0.00     0.226 C
HETATM    9  O1  UNL     1       5.488  -6.948   5.770  1.00  0.00    -0.273 OA
BRANCH   7  10
HETATM   10  C2  UNL     1       4.443  -6.582   9.245  1.00  0.00     0.122 C
HETATM   11  C1  UNL     1       3.298  -7.530   9.509  1.00  0.00     0.026 C
ENDBRANCH   7  10
BRANCH   8  12
HETATM   12  C4  UNL     1       3.585  -5.773   6.398  1.00  0.00     0.107 C
HETATM   13  C5  UNL     1       2.263  -6.459   6.555  1.00  0.00     0.021 C
HETATM   14  C6  UNL     1       1.561  -6.161   5.242  1.00  0.00    -0.006 C
HETATM   15  C7  UNL     1       2.731  -6.309   4.299  1.00  0.00     0.037 C
HETATM   16  C12 UNL     1       1.051  -4.748   5.345  1.00  0.00     0.073 C
HETATM   17  C8  UNL     1       3.657  -5.295   4.940  1.00  0.00     0.138 C
HETATM   18  O2  UNL     1       3.290  -3.998   4.773  1.00  0.00    -0.349 OA
HETATM   19  C9  UNL     1       1.951  -3.707   4.768  1.00  0.00     0.162 C
BRANCH  19  20
HETATM   20  O3  UNL     1       1.818  -2.555   5.586  1.00  0.00    -0.365 OA
ATOM     21  H3  UNL     1       2.655  -2.467   6.027  1.00  0.00     0.213 HD
ENDBRANCH  19  20
BRANCH  19  22
HETATM   22  C10 UNL     1       1.483  -3.246   3.397  1.00  0.00     0.064 C
HETATM   23  C11 UNL     1       0.008  -3.232   3.249  1.00  0.00     0.010 C
ENDBRANCH  19  22
ENDBRANCH   8  12
ENDBRANCH   1   7
TORSDOF 5
ENDMDL