MODEL 3
REMARK VINA RESULT: -7.597506052      0.580      2.135
REMARK  7 active torsions:
REMARK  status: ('A' for Active; 'I' for Inactive)
REMARK    1  A    between atoms: C2_2  and  N1_4
REMARK    2  A    between atoms: N1_4  and  C4_5
REMARK    3  A    between atoms: N1_4  and  C11_19
REMARK    4  A    between atoms: C4_5  and  C5_6
REMARK    5  A    between atoms: N2_7  and  N3_9
REMARK    6  A    between atoms: N3_9  and  C6_11
REMARK    7  A    between atoms: C6_11  and  N4_13
ROOT
HETATM    1  C5  UNL     1       8.224  -8.153   8.649  1.00  0.00     0.124 C
HETATM    2  N2  UNL     1       7.370  -7.956   7.742  1.00  0.00    -0.308 N
ATOM      3  H2  UNL     1       7.308  -8.730   7.080  1.00  0.00     0.186 HD
ENDROOT
BRANCH   2   4
HETATM    4  N3  UNL     1       6.524  -6.954   7.454  1.00  0.00    -0.277 N
ATOM      5  H3  UNL     1       6.863  -6.262   6.785  1.00  0.00     0.189 HD
BRANCH   4   6
HETATM    6  C6  UNL     1       5.233  -6.741   7.957  1.00  0.00     0.188 C
HETATM    7  S1  UNL     1       4.859  -6.941   9.529  1.00  0.00    -0.039 SA
BRANCH   6   8
HETATM    8  N4  UNL     1       4.139  -6.327   7.111  1.00  0.00    -0.356 N
HETATM    9  C7  UNL     1       4.232  -6.386   5.679  1.00  0.00     0.135 C
HETATM   10  C8  UNL     1       3.138  -7.263   5.094  1.00  0.00     0.093 C
HETATM   11  S2  UNL     1       1.559  -6.445   5.494  1.00  0.00    -0.166 SA
HETATM   12  C9  UNL     1       1.921  -5.281   6.842  1.00  0.00     0.093 C
HETATM   13  C10 UNL     1       2.948  -5.846   7.786  1.00  0.00     0.135 C
ENDBRANCH   6   8
ENDBRANCH   4   6
ENDBRANCH   2   4
BRANCH   1  14
HETATM   14  C4  UNL     1       9.043  -9.388   8.725  1.00  0.00     0.105 C
BRANCH  14  15
HETATM   15  N1  UNL     1      10.376  -9.156   8.994  1.00  0.00    -0.381 N
BRANCH  15  16
HETATM   16  C2  UNL     1      10.856  -8.505  10.113  1.00  0.00     0.076 C
HETATM   17  C1  UNL     1      10.450  -9.020  11.462  1.00  0.00     0.032 C
HETATM   18  C3  UNL     1      12.392  -8.383  10.163  1.00  0.00     0.032 C
ENDBRANCH  15  16
BRANCH  15  19
HETATM   19  C11 UNL     1      11.338  -9.760   8.115  1.00  0.00     0.076 C
HETATM   20  C12 UNL     1      11.735 -11.156   8.475  1.00  0.00     0.032 C
HETATM   21  C13 UNL     1      10.896  -9.596   6.680  1.00  0.00     0.032 C
ENDBRANCH  15  19
ENDBRANCH  14  15
ENDBRANCH   1  14
TORSDOF 7
ENDMDL