MODEL 1
REMARK VINA RESULT: -6.848604958      0.000      0.000
REMARK  5 active torsions:
REMARK  status: ('A' for Active; 'I' for Inactive)
REMARK    1  A    between atoms: O1_2  and  C2_3
REMARK    2  A    between atoms: C2_3  and  C3_4
REMARK    3  A    between atoms: C3_4  and  C4_5
REMARK    4  A    between atoms: N1_7  and  C6_8
REMARK    5  A    between atoms: C6_8  and  C7_9
ROOT
HETATM    1  C4  UNL     1       2.001  -5.957   3.853  1.00  0.00     0.052 C
HETATM    2  C5  UNL     1       1.265  -6.753   4.978  1.00  0.00     0.279 C
HETATM    3  N1  UNL     1       1.811  -6.372   6.259  1.00  0.00     0.089 N
HETATM    4  C11 UNL     1       1.788  -4.968   6.491  1.00  0.00     0.275 C
HETATM    5  C12 UNL     1       1.949  -4.054   5.345  1.00  0.00     0.069 C
HETATM    6  C13 UNL     1       1.486  -4.577   3.997  1.00  0.00     0.132 C
HETATM    7  C14 UNL     1      -0.023  -4.448   3.960  1.00  0.00     0.039 C
HETATM    8  C15 UNL     1      -0.505  -3.192   3.298  1.00  0.00     0.004 C
HETATM    9  C16 UNL     1       0.388  -2.008   3.421  1.00  0.00     0.027 C
HETATM   10  C17 UNL     1       1.855  -2.290   3.370  1.00  0.00     0.233 C
HETATM   11  N2  UNL     1       1.995  -3.707   2.970  1.00  0.00    -0.066 N
ATOM     12  H21 UNL     1       1.558  -3.890   2.067  1.00  0.00     0.278 HD
ATOM     13  H22 UNL     1       2.958  -3.936   2.722  1.00  0.00     0.278 HD
ENDROOT
BRANCH   1  14
HETATM   14  C3  UNL     1       1.832  -6.717   2.615  1.00  0.00     0.035 C
BRANCH  14  15
HETATM   15  C2  UNL     1       1.105  -8.003   2.615  1.00  0.00     0.167 C
BRANCH  15  16
HETATM   16  O1  UNL     1       1.938  -9.001   2.008  1.00  0.00    -0.396 OA
HETATM   17  C1  UNL     1       2.468  -9.765   3.048  1.00  0.00     0.201 C
ENDBRANCH  15  16
ENDBRANCH  14  15
ENDBRANCH   1  14
BRANCH   3  18
HETATM   18  C6  UNL     1       3.068  -7.030   6.519  1.00  0.00     0.279 C
BRANCH  18  19
HETATM   19  C7  UNL     1       4.104  -6.206   7.188  1.00  0.00     0.040 C
HETATM   20  C8  UNL     1       4.260  -6.507   8.659  1.00  0.00     0.035 C
HETATM   21  C9  UNL     1       5.561  -7.317   8.682  1.00  0.00     0.168 C
HETATM   22  O2  UNL     1       6.327  -6.625   7.724  1.00  0.00    -0.391 OA
HETATM   23  C10 UNL     1       5.463  -6.665   6.632  1.00  0.00     0.173 C
ENDBRANCH  18  19
ENDBRANCH   3  18
TORSDOF 5
ENDMDL