MODEL 4
REMARK VINA RESULT: -6.338581610      3.529      7.673
REMARK  7 active torsions:
REMARK  status: ('A' for Active; 'I' for Inactive)
REMARK    1  A    between atoms: N1_2  and  C2_3
REMARK       I    between atoms: N1_2  and  C9_15
REMARK    2  A    between atoms: C2_3  and  C3_4
REMARK    3  A    between atoms: C3_4  and  N2_5
REMARK    4  A    between atoms: C3_4  and  C4_9
REMARK    5  A    between atoms: C4_9  and  O1_10
REMARK    6  A    between atoms: O1_10  and  C5_11
REMARK    7  A    between atoms: C9_15  and  C10_17
ROOT
HETATM    1  C2  UNL     1       5.877  -7.046   7.697  1.00  0.00     0.160 C
ENDROOT
BRANCH   1   2
HETATM    2  N1  UNL     1       4.549  -6.945   8.168  1.00  0.00    -0.353 N
HETATM    3  C1  UNL     1       4.262  -7.028   9.631  1.00  0.00     0.152 C
HETATM    4  C9  UNL     1       3.472  -6.658   7.337  1.00  0.00     0.234 C
HETATM    5  O2  UNL     1       2.354  -6.332   7.897  1.00  0.00    -0.272 OA
BRANCH   4   6
HETATM    6  C10 UNL     1       3.538  -6.720   5.868  1.00  0.00     0.148 C
HETATM    7  C11 UNL     1       2.541  -7.792   5.443  1.00  0.00     0.098 C
HETATM    8  S1  UNL     1       2.314  -7.823   3.664  1.00  0.00    -0.167 SA
HETATM    9  C12 UNL     1       1.661  -6.186   3.174  1.00  0.00     0.084 C
HETATM   10  C13 UNL     1       2.770  -5.186   3.416  1.00  0.00     0.085 C
HETATM   11  S2  UNL     1       3.059  -5.101   5.204  1.00  0.00    -0.153 SA
ENDBRANCH   4   6
ENDBRANCH   1   2
BRANCH   1  12
HETATM   12  C3  UNL     1       6.915  -7.462   8.733  1.00  0.00     0.225 C
BRANCH  12  13
HETATM   13  N2  UNL     1       7.205  -6.299   9.591  1.00  0.00    -0.071 N
ATOM     14  H23 UNL     1       6.887  -5.420   9.182  1.00  0.00     0.274 HD
ATOM     15  H22 UNL     1       6.626  -6.278  10.431  1.00  0.00     0.274 HD
ATOM     16  H21 UNL     1       8.203  -6.297   9.802  1.00  0.00     0.274 HD
ENDBRANCH  12  13
BRANCH  12  17
HETATM   17  C4  UNL     1       8.121  -7.999   8.099  1.00  0.00     0.203 C
BRANCH  17  18
HETATM   18  O1  UNL     1       9.275  -7.792   8.742  1.00  0.00    -0.379 OA
BRANCH  18  19
HETATM   19  C5  UNL     1      10.016  -8.727   9.343  1.00  0.00     0.050 C
HETATM   20  C6  UNL     1      11.474  -8.552   9.556  1.00  0.00     0.045 C
HETATM   21  C7  UNL     1       9.815 -10.045   8.534  1.00  0.00     0.045 C
HETATM   22  C8  UNL     1       9.381  -8.962  10.734  1.00  0.00     0.045 C
ENDBRANCH  18  19
ENDBRANCH  17  18
ENDBRANCH  12  17
ENDBRANCH   1  12
TORSDOF 7
ENDMDL