MODEL 4
REMARK VINA RESULT: -6.793403719      1.883      2.863
REMARK  6 active torsions:
REMARK  status: ('A' for Active; 'I' for Inactive)
REMARK    1  A    between atoms: C2_2  and  N1_3
REMARK    2  A    between atoms: N2_6  and  C4_7
REMARK    3  A    between atoms: C4_7  and  C5_8
REMARK    4  A    between atoms: C14_18  and  C15_19
REMARK    5  A    between atoms: C15_19  and  C16_20
REMARK    6  A    between atoms: C16_20  and  O3_21
ROOT
HETATM    1  N1  UNL     1       1.235  -5.918   5.632  1.00  0.00    -0.329 N
HETATM    2  C3  UNL     1       1.887  -5.950   6.908  1.00  0.00     0.320 C
HETATM    3  O1  UNL     1       1.202  -5.898   7.932  1.00  0.00    -0.247 OA
HETATM    4  N2  UNL     1       3.288  -6.040   6.971  1.00  0.00    -0.331 N
HETATM    5  C11 UNL     1       4.073  -6.283   5.806  1.00  0.00     0.134 C
HETATM    6  C12 UNL     1       3.396  -6.045   4.492  1.00  0.00     0.023 C
HETATM    7  C13 UNL     1       3.571  -4.630   3.984  1.00  0.00     0.014 C
HETATM    8  C14 UNL     1       1.934  -6.458   4.500  1.00  0.00     0.096 C
ENDROOT
BRANCH   4   9
HETATM    9  C4  UNL     1       3.990  -5.887   8.238  1.00  0.00     0.159 C
BRANCH   9  10
HETATM   10  C5  UNL     1       4.775  -7.124   8.609  1.00  0.00     0.139 C
HETATM   11  C6  UNL     1       5.309  -6.936   9.991  1.00  0.00     0.034 C
HETATM   12  C7  UNL     1       6.064  -8.134  10.513  1.00  0.00     0.003 C
HETATM   13  C8  UNL     1       7.523  -7.935  10.162  1.00  0.00     0.002 C
HETATM   14  C9  UNL     1       7.659  -8.260   8.678  1.00  0.00     0.026 C
HETATM   15  C10 UNL     1       6.993  -7.123   7.932  1.00  0.00     0.168 C
HETATM   16  O2  UNL     1       5.695  -7.487   7.664  1.00  0.00    -0.384 OA
ENDBRANCH   9  10
ENDBRANCH   4   9
BRANCH   1  17
HETATM   17  C2  UNL     1      -0.083  -5.366   5.436  1.00  0.00     0.123 C
HETATM   18  C1  UNL     1      -0.200  -4.655   4.101  1.00  0.00     0.026 C
ENDBRANCH   1  17
BRANCH   8  19
HETATM   19  C15 UNL     1       1.872  -7.965   4.421  1.00  0.00     0.051 C
BRANCH  19  20
HETATM   20  C16 UNL     1       1.361  -8.483   3.110  1.00  0.00     0.166 C
BRANCH  20  21
HETATM   21  O3  UNL     1       0.094  -7.967   2.843  1.00  0.00    -0.401 OA
ATOM     22  H3  UNL     1      -0.296  -7.620   3.637  1.00  0.00     0.209 HD
ENDBRANCH  20  21
ENDBRANCH  19  20
ENDBRANCH   8  19
TORSDOF 6
ENDMDL