MODEL 2
REMARK VINA RESULT: -6.666197594      1.479      5.905
REMARK  6 active torsions:
REMARK  status: ('A' for Active; 'I' for Inactive)
REMARK    1  A    between atoms: C3_3  and  O1_4
REMARK    2  A    between atoms: C3_3  and  C4_6
REMARK    3  A    between atoms: C4_6  and  C5_8
REMARK    4  A    between atoms: C5_8  and  C6_9
REMARK    5  A    between atoms: C5_8  and  C9_12
REMARK    6  A    between atoms: C14_19  and  C16_21
ROOT
HETATM    1  C1  UNL     1       3.227  -6.933   6.747  1.00  0.00     0.015 C
HETATM    2  C2  UNL     1       2.712  -5.862   6.542  1.00  0.00    -0.078 C
HETATM    3  C3  UNL     1       2.066  -4.548   6.266  1.00  0.00     0.266 C
ENDROOT
BRANCH   3   4
HETATM    4  O1  UNL     1       0.804  -4.639   6.757  1.00  0.00    -0.376 OA
ATOM      5  H1  UNL     1       0.294  -3.985   6.295  1.00  0.00     0.211 HD
ENDBRANCH   3   4
BRANCH   3   6
HETATM    6  C4  UNL     1       2.248  -4.159   4.868  1.00  0.00     0.175 C
HETATM    7  O2  UNL     1       3.462  -3.927   4.619  1.00  0.00    -0.294 OA
BRANCH   6   8
HETATM    8  C5  UNL     1       1.288  -4.006   3.785  1.00  0.00     0.121 C
BRANCH   8   9
HETATM    9  C6  UNL     1       1.193  -5.075   2.763  1.00  0.00    -0.007 C
HETATM   10  C7  UNL     1       0.486  -6.273   3.354  1.00  0.00     0.010 C
HETATM   11  C8  UNL     1       2.386  -5.391   1.949  1.00  0.00     0.010 C
ENDBRANCH   8   9
BRANCH   8  12
HETATM   12  C9  UNL     1       1.455  -2.619   3.177  1.00  0.00     0.370 C
HETATM   13  O3  UNL     1       0.910  -1.722   4.094  1.00  0.00    -0.350 OA
HETATM   14  C10 UNL     1       0.164  -0.729   3.491  1.00  0.00     0.136 C
HETATM   15  C11 UNL     1      -1.094  -1.362   2.922  1.00  0.00     0.063 C
HETATM   16  C14 UNL     1       0.897  -0.110   2.316  1.00  0.00     0.012 C
HETATM   17  C12 UNL     1      -0.636  -2.458   1.982  1.00  0.00     0.278 C
HETATM   18  N1  UNL     1       0.787  -2.485   1.906  1.00  0.00     0.118 N
HETATM   19  C13 UNL     1       1.246  -1.193   1.361  1.00  0.00     0.287 C
HETATM   20  C15 UNL     1      -0.018   0.869   1.612  1.00  0.00     0.020 C
BRANCH  16  21
HETATM   21  C16 UNL     1       2.081   0.647   2.852  1.00  0.00    -0.010 C
HETATM   22  C17 UNL     1       1.671   1.682   3.879  1.00  0.00     0.010 C
HETATM   23  C18 UNL     1       2.836   1.380   1.767  1.00  0.00     0.010 C
ENDBRANCH  16  21
ENDBRANCH   8  12
ENDBRANCH   6   8
ENDBRANCH   3   6
TORSDOF 6
ENDMDL