MODEL 5
REMARK VINA RESULT: -5.209847366      1.749      6.182
REMARK  7 active torsions:
REMARK  status: ('A' for Active; 'I' for Inactive)
REMARK    1  A    between atoms: O1_2  and  C2_3
REMARK    2  A    between atoms: C2_3  and  C3_4
REMARK    3  A    between atoms: C3_4  and  N1_5
REMARK    4  A    between atoms: N1_5  and  C4_7
REMARK    5  A    between atoms: C4_7  and  C9_14
REMARK    6  A    between atoms: N2_8  and  C5_10
REMARK    7  A    between atoms: N3_17  and  C12_18
ROOT
HETATM    1  C4  UNL     1       1.884  -7.321   4.198  1.00  0.00     0.107 C
HETATM    2  N2  UNL     1       1.298  -6.228   4.023  1.00  0.00    -0.370 N
ATOM      3  H2  UNL     1       0.341  -6.354   3.696  1.00  0.00     0.161 HD
ENDROOT
BRANCH   1   4
HETATM    4  N1  UNL     1       3.223  -7.351   4.653  1.00  0.00    -0.376 N
ATOM      5  H1  UNL     1       3.998  -7.415   3.994  1.00  0.00     0.160 HD
BRANCH   4   6
HETATM    6  C3  UNL     1       3.463  -7.287   6.083  1.00  0.00     0.147 C
BRANCH   6   7
HETATM    7  C2  UNL     1       4.627  -6.419   6.467  1.00  0.00     0.186 C
BRANCH   7   8
HETATM    8  O1  UNL     1       5.828  -7.103   6.491  1.00  0.00    -0.394 OA
HETATM    9  C1  UNL     1       6.396  -7.133   7.745  1.00  0.00     0.201 C
ENDBRANCH   7   8
ENDBRANCH   6   7
ENDBRANCH   4   6
ENDBRANCH   1   4
BRANCH   1  10
HETATM   10  C9  UNL     1       1.239  -8.603   3.947  1.00  0.00     0.291 C
HETATM   11  C10 UNL     1       2.148  -9.828   3.983  1.00  0.00     0.074 C
HETATM   12  C11 UNL     1       1.045 -10.374   3.055  1.00  0.00     0.276 C
HETATM   13  N3  UNL     1       0.853  -8.974   2.621  1.00  0.00     0.105 N
BRANCH  13  14
HETATM   14  C12 UNL     1       1.671  -8.730   1.510  1.00  0.00     0.228 C
HETATM   15  C13 UNL     1       1.325  -9.762   0.427  1.00  0.00     0.062 C
HETATM   16  C14 UNL     1       1.141  -9.080  -0.910  1.00  0.00     0.169 C
HETATM   17  O2  UNL     1       2.168  -8.278  -1.307  1.00  0.00    -0.391 OA
HETATM   18  C15 UNL     1       2.563  -7.432  -0.303  1.00  0.00     0.169 C
HETATM   19  C16 UNL     1       1.521  -7.396   0.828  1.00  0.00     0.062 C
ENDBRANCH  13  14
ENDBRANCH   1  10
BRANCH   2  20
HETATM   20  C5  UNL     1       1.632  -4.880   4.166  1.00  0.00     0.020 C
HETATM   21  C6  UNL     1       1.585  -4.391   5.621  1.00  0.00     0.037 C
HETATM   22  C7  UNL     1       0.535  -4.075   3.444  1.00  0.00     0.037 C
HETATM   23  C8  UNL     1       2.927  -4.398   3.608  1.00  0.00     0.037 C
ENDBRANCH   2  20
TORSDOF 7
ENDMDL