MODEL 1
REMARK VINA RESULT: -8.106874226      0.000      0.000
REMARK  9 active torsions:
REMARK  status: ('A' for Active; 'I' for Inactive)
REMARK    1  A    between atoms: C3_3  and  C5_5
REMARK    2  A    between atoms: C5_5  and  N1_6
REMARK    3  A    between atoms: C5_5  and  C6_10
REMARK    4  A    between atoms: C6_10  and  O1_11
REMARK    5  A    between atoms: C6_10  and  N2_13
REMARK    6  A    between atoms: C11_18  and  C12_19
REMARK    7  A    between atoms: C12_19  and  C13_20
REMARK    8  A    between atoms: C13_20  and  O2_21
REMARK    9  A    between atoms: O2_21  and  C14_22
ROOT
HETATM    1  N2  UNL     1       8.847  -8.676   9.029  1.00  0.00    -0.359 N
HETATM    2  C7  UNL     1       9.112  -8.811  10.426  1.00  0.00     0.125 C
HETATM    3  C8  UNL     1       8.294  -7.844  11.296  1.00  0.00     0.020 C
HETATM    4  C9  UNL     1       6.826  -8.072  11.091  1.00  0.00     0.004 C
HETATM    5  C10 UNL     1       6.632  -8.982   9.904  1.00  0.00     0.025 C
HETATM    6  C11 UNL     1       7.402  -8.548   8.698  1.00  0.00     0.088 C
ENDROOT
BRANCH   1   7
HETATM    7  C6  UNL     1       9.777  -8.652   7.972  1.00  0.00     0.149 C
BRANCH   7   8
HETATM    8  C5  UNL     1      10.702  -9.647   7.459  1.00  0.00     0.285 C
BRANCH   8   9
HETATM    9  C3  UNL     1      11.799  -9.967   8.432  1.00  0.00    -0.050 C
HETATM   10  C2  UNL     1      12.311  -9.065   9.218  1.00  0.00    -0.026 C
HETATM   11  C1  UNL     1      13.413  -9.434  10.173  1.00  0.00     0.036 C
HETATM   12  C4  UNL     1      12.294 -11.366   8.471  1.00  0.00     0.046 C
ENDBRANCH   8   9
BRANCH   8  13
HETATM   13  N1  UNL     1      11.272  -9.285   6.204  1.00  0.00    -0.064 N
ATOM     14  H13 UNL     1      12.011  -8.590   6.303  1.00  0.00     0.275 HD
ATOM     15  H12 UNL     1      11.831 -10.037   5.804  1.00  0.00     0.275 HD
ATOM     16  H11 UNL     1      10.533  -8.974   5.573  1.00  0.00     0.275 HD
ENDBRANCH   8  13
ENDBRANCH   7   8
BRANCH   7  17
HETATM   17  O1  UNL     1       9.855  -7.526   7.289  1.00  0.00    -0.348 OA
ATOM     18  H1  UNL     1       9.273  -7.535   6.539  1.00  0.00     0.219 HD
ENDBRANCH   7  17
ENDBRANCH   1   7
BRANCH   6  19
HETATM   19  C12 UNL     1       7.127  -7.138   8.321  1.00  0.00     0.051 C
BRANCH  19  20
HETATM   20  C13 UNL     1       5.682  -6.920   7.909  1.00  0.00     0.173 C
BRANCH  20  21
HETATM   21  O2  UNL     1       5.676  -6.565   6.580  1.00  0.00    -0.361 OA
BRANCH  21  22
HETATM   22  C14 UNL     1       4.418  -6.374   6.052  1.00  0.00     0.259 C
HETATM   23  C15 UNL     1       3.420  -5.877   7.059  1.00  0.00     0.063 C
HETATM   24  C16 UNL     1       2.105  -6.299   6.441  1.00  0.00     0.031 C
HETATM   25  C17 UNL     1       2.548  -7.079   5.217  1.00  0.00     0.171 C
HETATM   26  O3  UNL     1       3.861  -7.499   5.485  1.00  0.00    -0.361 OA
ENDBRANCH  21  22
ENDBRANCH  20  21
ENDBRANCH  19  20
ENDBRANCH   6  19
TORSDOF 9
ENDMDL