MODEL 1
REMARK VINA RESULT: -8.743518149      0.000      0.000
REMARK  5 active torsions:
REMARK  status: ('A' for Active; 'I' for Inactive)
REMARK    1  A    between atoms: C2_2  and  N1_3
REMARK    2  A    between atoms: N1_3  and  C3_5
REMARK    3  A    between atoms: N3_14  and  C10_15
REMARK    4  A    between atoms: C10_15  and  C11_16
REMARK    5  A    between atoms: C11_16  and  C12_17
ROOT
HETATM    1  C3  UNL     1       2.406  -4.659   5.411  1.00  0.00     0.117 C
HETATM    2  C4  UNL     1       0.947  -4.928   5.226  1.00  0.00     0.130 C
HETATM    3  C5  UNL     1       0.886  -6.400   5.036  1.00  0.00     0.222 C
HETATM    4  O1  UNL     1      -0.147  -7.095   4.812  1.00  0.00    -0.273 OA
HETATM    5  N2  UNL     1       2.212  -6.907   5.151  1.00  0.00    -0.345 N
HETATM    6  C6  UNL     1       2.770  -8.098   4.526  1.00  0.00     0.153 C
HETATM    7  C7  UNL     1       2.902  -5.982   6.034  1.00  0.00     0.058 C
HETATM    8  C8  UNL     1       2.339  -6.121   7.407  1.00  0.00     0.053 C
HETATM    9  C9  UNL     1       3.388  -5.879   8.460  1.00  0.00     0.119 C
HETATM   10  N3  UNL     1       4.455  -6.800   8.310  1.00  0.00    -0.412 N
HETATM   11  C16 UNL     1       4.917  -7.054   6.991  1.00  0.00     0.119 C
HETATM   12  C17 UNL     1       4.389  -6.075   5.972  1.00  0.00     0.053 C
ENDROOT
BRANCH   1  13
HETATM   13  N1  UNL     1       3.166  -4.454   4.259  1.00  0.00    -0.395 N
ATOM     14  H1  UNL     1       4.164  -4.663   4.275  1.00  0.00     0.159 HD
BRANCH  13  15
HETATM   15  C2  UNL     1       2.583  -3.964   3.075  1.00  0.00     0.051 C
HETATM   16  C1  UNL     1       2.570  -5.010   1.971  1.00  0.00     0.054 C
ENDBRANCH  13  15
ENDBRANCH   1  13
BRANCH  10  17
HETATM   17  C10 UNL     1       5.446  -6.819   9.333  1.00  0.00     0.119 C
BRANCH  17  18
HETATM   18  C11 UNL     1       6.715  -7.446   8.770  1.00  0.00     0.051 C
BRANCH  18  19
HETATM   19  C12 UNL     1       7.163  -8.579   9.688  1.00  0.00     0.123 C
HETATM   20  C13 UNL     1       7.906  -8.105  10.884  1.00  0.00     0.034 C
HETATM   21  C14 UNL     1       9.213  -8.855  10.857  1.00  0.00     0.029 C
HETATM   22  C15 UNL     1       9.285  -9.264   9.399  1.00  0.00     0.168 C
HETATM   23  O2  UNL     1       7.981  -9.421   8.998  1.00  0.00    -0.386 OA
ENDBRANCH  18  19
ENDBRANCH  17  18
ENDBRANCH  10  17
TORSDOF 5
ENDMDL