MODEL 4
REMARK VINA RESULT: -7.423268584      1.419      8.438
REMARK  7 active torsions:
REMARK  status: ('A' for Active; 'I' for Inactive)
REMARK    1  A    between atoms: C5_5  and  N1_6
REMARK       I    between atoms: N1_6  and  C7_8
REMARK    2  A    between atoms: C7_8  and  O2_10
REMARK    3  A    between atoms: O2_10  and  C8_11
REMARK    4  A    between atoms: C8_11  and  C9_12
REMARK    5  A    between atoms: C9_12  and  O3_13
REMARK    6  A    between atoms: C9_12  and  C10_15
REMARK    7  A    between atoms: C10_15  and  N2_16
ROOT
HETATM    1  N1  UNL     1       9.019  -8.575  10.280  1.00  0.00    -0.328 N
HETATM    2  C6  UNL     1       9.141  -9.316  11.514  1.00  0.00     0.155 C
HETATM    3  C7  UNL     1       7.821  -7.879  10.012  1.00  0.00     0.362 C
HETATM    4  O1  UNL     1       6.893  -7.930  10.841  1.00  0.00    -0.238 OA
ENDROOT
BRANCH   3   5
HETATM    5  O2  UNL     1       7.689  -7.166   8.869  1.00  0.00    -0.301 OA
BRANCH   5   6
HETATM    6  C8  UNL     1       6.862  -7.345   7.803  1.00  0.00     0.214 C
BRANCH   6   7
HETATM    7  C9  UNL     1       5.497  -6.754   8.012  1.00  0.00     0.170 C
BRANCH   7   8
HETATM    8  O3  UNL     1       4.629  -7.454   8.786  1.00  0.00    -0.392 OA
ATOM      9  H3  UNL     1       4.998  -8.094   9.383  1.00  0.00     0.210 HD
ENDBRANCH   7   8
BRANCH   7  10
HETATM   10  C10 UNL     1       4.884  -6.612   6.625  1.00  0.00     0.306 C
BRANCH  10  11
HETATM   11  N2  UNL     1       3.473  -6.753   6.685  1.00  0.00     0.091 N
HETATM   12  C11 UNL     1       2.809  -5.508   6.821  1.00  0.00     0.272 C
HETATM   13  C12 UNL     1       2.209  -5.193   5.470  1.00  0.00     0.032 C
HETATM   14  C13 UNL     1       2.842  -6.226   4.528  1.00  0.00     0.032 C
HETATM   15  C14 UNL     1       2.986  -7.382   5.500  1.00  0.00     0.272 C
ENDBRANCH  10  11
ENDBRANCH   7  10
ENDBRANCH   6   7
ENDBRANCH   5   6
ENDBRANCH   3   5
BRANCH   1  16
HETATM   16  C5  UNL     1      10.099  -8.538   9.339  1.00  0.00     0.089 C
HETATM   17  C4  UNL     1       9.867  -9.547   8.232  1.00  0.00     0.026 C
HETATM   18  C3  UNL     1      10.811 -10.717   8.397  1.00  0.00     0.006 C
HETATM   19  C2  UNL     1      12.251 -10.286   8.298  1.00  0.00    -0.019 C
HETATM   20  C1  UNL     1      13.080 -11.306   9.073  1.00  0.00     0.010 C
HETATM   21  C16 UNL     1      12.454  -8.915   8.861  1.00  0.00     0.006 C
HETATM   22  C15 UNL     1      11.449  -8.727  10.001  1.00  0.00     0.026 C
ENDBRANCH   1  16
TORSDOF 7
ENDMDL