MODEL 5
REMARK VINA RESULT: -6.415748767      2.967      4.547
REMARK  7 active torsions:
REMARK  status: ('A' for Active; 'I' for Inactive)
REMARK    1  A    between atoms: C1_2  and  N1_3
REMARK    2  A    between atoms: N1_3  and  C2_5
REMARK    3  A    between atoms: C5_9  and  C6_10
REMARK    4  A    between atoms: C7_12  and  N2_13
REMARK    5  A    between atoms: N2_13  and  C8_16
REMARK    6  A    between atoms: C8_16  and  C9_17
REMARK    7  A    between atoms: C12_20  and  O3_21
ROOT
HETATM    1  C2  UNL     1     -12.853  -3.048 -20.628  1.00  0.00     0.138 C
HETATM    2  C3  UNL     1     -13.312  -3.238 -22.049  1.00  0.00     0.194 C
HETATM    3  O2  UNL     1     -13.616  -4.566 -22.344  1.00  0.00    -0.389 OA
HETATM    4  C4  UNL     1     -12.492  -5.314 -21.924  1.00  0.00     0.175 C
HETATM    5  C5  UNL     1     -12.688  -5.547 -20.440  1.00  0.00     0.056 C
HETATM    6  C7  UNL     1     -13.082  -4.274 -19.772  1.00  0.00     0.217 C
ENDROOT
BRANCH   6   7
HETATM    7  N2  UNL     1     -12.318  -4.065 -18.541  1.00  0.00    -0.066 N
ATOM      8  H22 UNL     1     -11.351  -3.813 -18.743  1.00  0.00     0.277 HD
ATOM      9  H21 UNL     1     -12.610  -3.211 -18.064  1.00  0.00     0.277 HD
BRANCH   7  10
HETATM   10  C8  UNL     1     -12.390  -5.201 -17.669  1.00  0.00     0.264 C
BRANCH  10  11
HETATM   11  C9  UNL     1     -10.983  -5.578 -17.278  1.00  0.00     0.150 C
HETATM   12  C10 UNL     1     -10.810  -5.511 -15.788  1.00  0.00     0.038 C
HETATM   13  C11 UNL     1      -9.754  -6.580 -15.546  1.00  0.00     0.063 C
HETATM   14  C12 UNL     1      -9.442  -7.048 -16.946  1.00  0.00     0.257 C
HETATM   15  O4  UNL     1     -10.693  -6.909 -17.568  1.00  0.00    -0.355 OA
BRANCH  14  16
HETATM   16  O3  UNL     1      -8.541  -6.182 -17.568  1.00  0.00    -0.371 OA
ATOM     17  H3  UNL     1      -8.585  -5.316 -17.181  1.00  0.00     0.212 HD
ENDBRANCH  14  16
ENDBRANCH  10  11
ENDBRANCH   7  10
ENDBRANCH   6   7
BRANCH   1  18
HETATM   18  N1  UNL     1     -13.576  -1.933 -20.075  1.00  0.00    -0.359 N
ATOM     19  H1  UNL     1     -14.534  -2.067 -19.753  1.00  0.00     0.162 HD
BRANCH  18  20
HETATM   20  C1  UNL     1     -12.979  -0.649 -19.971  1.00  0.00     0.348 C
HETATM   21  O1  UNL     1     -11.875  -0.375 -20.523  1.00  0.00    -0.284 OA
ENDBRANCH  18  20
ENDBRANCH   1  18
BRANCH   5  22
HETATM   22  C6  UNL     1     -13.770  -6.623 -20.323  1.00  0.00     0.123 C
HETATM   23 CL1  UNL     1     -12.915  -8.135 -19.901  1.00  0.00    -0.130 Cl
ENDBRANCH   5  22
TORSDOF 7
ENDMDL