MODEL 3
REMARK VINA RESULT: -7.490755108      1.851      2.394
REMARK  10 active torsions:
REMARK  status: ('A' for Active; 'I' for Inactive)
REMARK    1  A    between atoms: N1_1  and  C1_5
REMARK    2  A    between atoms: C1_5  and  C2_6
REMARK    3  A    between atoms: N2_8  and  C3_9
REMARK    4  A    between atoms: C3_9  and  C4_10
REMARK    5  A    between atoms: C5_11  and  C6_12
REMARK    6  A    between atoms: C6_12  and  C7_13
REMARK    7  A    between atoms: C7_13  and  C8_14
REMARK    8  A    between atoms: N3_16  and  C10_17
REMARK    9  A    between atoms: C11_19  and  O2_20
REMARK   10  A    between atoms: C12_22  and  O3_23
ROOT
HETATM    1  C2  UNL     1     -11.215  -5.295 -16.997  1.00  0.00     0.203 C
HETATM    2  O1  UNL     1     -10.403  -5.820 -16.041  1.00  0.00    -0.291 OA
HETATM    3  N2  UNL     1      -9.706  -6.824 -16.517  1.00  0.00    -0.161 NA
HETATM    4  C11 UNL     1      -9.763  -6.875 -17.925  1.00  0.00     0.249 C
HETATM    5  C12 UNL     1     -10.892  -5.953 -18.305  1.00  0.00     0.195 C
ENDROOT
BRANCH   3   6
HETATM    6  C3  UNL     1      -8.305  -6.787 -16.085  1.00  0.00     0.151 C
BRANCH   6   7
HETATM    7  C4  UNL     1      -8.158  -7.029 -14.630  1.00  0.00    -0.014 C
HETATM    8  C5  UNL     1      -7.352  -7.877 -14.038  1.00  0.00    -0.029 C
BRANCH   8   9
HETATM    9  C6  UNL     1      -6.441  -8.745 -14.756  1.00  0.00     0.029 C
BRANCH   9  10
HETATM   10  C7  UNL     1      -5.259  -8.030 -15.390  1.00  0.00     0.041 C
BRANCH  10  11
HETATM   11  C8  UNL     1      -3.955  -8.413 -14.782  1.00  0.00     0.253 A
HETATM   12  C9  UNL     1      -3.841  -9.559 -13.853  1.00  0.00     0.310 A
HETATM   13  N3  UNL     1      -3.175  -9.523 -15.207  1.00  0.00     0.110 N
BRANCH  13  14
HETATM   14  C10 UNL     1      -3.608 -10.493 -16.152  1.00  0.00     0.387 C
HETATM   15 CL1  UNL     1      -3.509  -9.967 -17.844  1.00  0.00    -0.098 Cl
ENDBRANCH  13  14
ENDBRANCH  10  11
ENDBRANCH   9  10
ENDBRANCH   8   9
ENDBRANCH   6   7
ENDBRANCH   3   6
BRANCH   4  16
HETATM   16  O2  UNL     1      -8.567  -6.503 -18.546  1.00  0.00    -0.376 OA
ATOM     17  H2  UNL     1      -8.683  -5.873 -19.247  1.00  0.00     0.211 HD
ENDBRANCH   4  16
BRANCH   1  18
HETATM   18  C1  UNL     1     -12.684  -5.502 -16.622  1.00  0.00     0.266 C
BRANCH  18  19
HETATM   19  N1  UNL     1     -13.456  -5.156 -17.797  1.00  0.00    -0.077 N
ATOM     20  H13 UNL     1     -14.443  -5.400 -17.720  1.00  0.00     0.274 HD
ATOM     21  H12 UNL     1     -13.584  -4.150 -17.916  1.00  0.00     0.274 HD
ATOM     22  H11 UNL     1     -12.989  -5.601 -18.587  1.00  0.00     0.274 HD
ENDBRANCH  18  19
ENDBRANCH   1  18
BRANCH   5  23
HETATM   23  O3  UNL     1     -10.472  -4.995 -19.243  1.00  0.00    -0.389 OA
ATOM     24  H3  UNL     1     -10.796  -5.217 -20.108  1.00  0.00     0.210 HD
ENDBRANCH   5  23
TORSDOF 10
ENDMDL