MODEL 4
REMARK VINA RESULT: -6.816845248      1.487      2.363
REMARK  8 active torsions:
REMARK  status: ('A' for Active; 'I' for Inactive)
REMARK    1  A    between atoms: O1_2  and  C2_3
REMARK    2  A    between atoms: C2_3  and  C3_4
REMARK    3  A    between atoms: C3_4  and  N1_5
REMARK    4  A    between atoms: N1_5  and  C4_7
REMARK    5  A    between atoms: C5_14  and  N5_15
REMARK    6  A    between atoms: N5_15  and  C6_17
REMARK    7  A    between atoms: C6_17  and  C7_18
REMARK    8  A    between atoms: C7_18  and  C8_19
ROOT
HETATM    1  C4  UNL     1      -4.897  -9.278 -16.272  1.00  0.00     0.708 A
HETATM    2  N2  UNL     1      -4.294  -8.510 -17.199  1.00  0.00    -0.117 N
ATOM      3  H2  UNL     1      -3.389  -8.790 -17.578  1.00  0.00     0.207 HD
HETATM    4  N3  UNL     1      -4.867  -7.397 -17.619  1.00  0.00    -0.214 N
ATOM      5  H3  UNL     1      -4.412  -6.812 -18.321  1.00  0.00     0.209 HD
HETATM    6  N4  UNL     1      -6.034  -7.057 -17.115  1.00  0.00    -0.117 N
ATOM      7  H4  UNL     1      -6.471  -6.195 -17.443  1.00  0.00     0.207 HD
HETATM    8  C5  UNL     1      -6.678  -7.787 -16.192  1.00  0.00     0.712 A
HETATM    9  N6  UNL     1      -6.085  -8.934 -15.759  1.00  0.00    -0.020 N
ATOM     10  H6  UNL     1      -6.538  -9.520 -15.059  1.00  0.00     0.203 HD
ENDROOT
BRANCH   1  11
HETATM   11  N1  UNL     1      -4.302 -10.380 -15.874  1.00  0.00    -0.222 N
ATOM     12  H1  UNL     1      -4.798 -11.271 -15.909  1.00  0.00     0.177 HD
BRANCH  11  13
HETATM   13  C3  UNL     1      -2.938 -10.326 -15.384  1.00  0.00     0.164 C
BRANCH  13  14
HETATM   14  C2  UNL     1      -2.956  -9.527 -14.107  1.00  0.00     0.187 C
BRANCH  14  15
HETATM   15  O1  UNL     1      -4.092  -9.706 -13.350  1.00  0.00    -0.394 OA
HETATM   16  C1  UNL     1      -4.477  -8.579 -12.648  1.00  0.00     0.201 C
ENDBRANCH  14  15
ENDBRANCH  13  14
ENDBRANCH  11  13
ENDBRANCH   1  11
BRANCH   8  17
HETATM   17  N5  UNL     1      -7.804  -7.451 -15.712  1.00  0.00    -0.203 N
ATOM     18  H5  UNL     1      -7.944  -7.717 -14.737  1.00  0.00     0.183 HD
BRANCH  17  19
HETATM   19  C6  UNL     1      -8.892  -6.775 -16.295  1.00  0.00     0.080 C
BRANCH  19  20
HETATM   20  C7  UNL     1      -9.991  -6.329 -15.387  1.00  0.00     0.056 C
BRANCH  20  21
HETATM   21  C8  UNL     1     -11.286  -6.998 -15.888  1.00  0.00     0.090 C
HETATM   22 BR1  UNL     1     -12.227  -5.713 -16.982  1.00  0.00    -0.096 Br
ENDBRANCH  20  21
ENDBRANCH  19  20
ENDBRANCH  17  19
ENDBRANCH   8  17
TORSDOF 8
ENDMDL