MODEL 1
REMARK VINA RESULT: -5.815659361      0.000      0.000
REMARK  8 active torsions:
REMARK  status: ('A' for Active; 'I' for Inactive)
REMARK    1  A    between atoms: N1_1  and  C1_5
REMARK    2  A    between atoms: C1_5  and  C2_6
REMARK    3  A    between atoms: C2_6  and  N2_7
REMARK    4  A    between atoms: N2_7  and  C3_9
REMARK    5  A    between atoms: C4_10  and  O1_11
REMARK    6  A    between atoms: C7_16  and  C8_17
REMARK    7  A    between atoms: C9_18  and  O2_19
REMARK    8  A    between atoms: O2_19  and  C10_20
ROOT
HETATM    1  C3  UNL     1      -6.216  -7.740 -15.113  1.00  0.00     0.118 C
HETATM    2  C4  UNL     1      -6.478  -8.332 -13.797  1.00  0.00     0.142 C
HETATM    3  C5  UNL     1      -5.050  -8.492 -13.222  1.00  0.00     0.050 C
HETATM    4  C6  UNL     1      -4.124  -8.510 -14.409  1.00  0.00     0.070 C
HETATM    5 BR1  UNL     1      -2.863  -9.971 -14.288  1.00  0.00    -0.090 Br
HETATM    6  C7  UNL     1      -5.040  -8.652 -15.590  1.00  0.00     0.049 C
ENDROOT
BRANCH   1   7
HETATM    7  N2  UNL     1      -7.166  -7.629 -16.109  1.00  0.00    -0.393 N
ATOM      8  H2  UNL     1      -6.976  -7.999 -17.041  1.00  0.00     0.159 HD
BRANCH   7   9
HETATM    9  C2  UNL     1      -8.387  -7.012 -15.838  1.00  0.00     0.083 C
BRANCH   9  10
HETATM   10  C1  UNL     1      -9.277  -6.657 -16.991  1.00  0.00     0.273 C
BRANCH  10  11
HETATM   11  N1  UNL     1      -8.431  -6.670 -18.199  1.00  0.00    -0.075 N
ATOM     12  H13 UNL     1      -8.421  -5.777 -18.694  1.00  0.00     0.274 HD
ATOM     13  H12 UNL     1      -7.434  -6.712 -17.991  1.00  0.00     0.274 HD
ATOM     14  H11 UNL     1      -8.756  -7.446 -18.775  1.00  0.00     0.274 HD
ENDBRANCH  10  11
ENDBRANCH   9  10
ENDBRANCH   7   9
ENDBRANCH   1   7
BRANCH   2  15
HETATM   15  O1  UNL     1      -7.054  -9.602 -13.864  1.00  0.00    -0.393 OA
ATOM     16  H1  UNL     1      -7.108 -10.038 -13.021  1.00  0.00     0.210 HD
ENDBRANCH   2  15
BRANCH   6  17
HETATM   17  C8  UNL     1      -4.474  -8.116 -16.836  1.00  0.00     0.006 C
HETATM   18  C9  UNL     1      -3.947  -8.949 -17.711  1.00  0.00     0.141 C
BRANCH  18  19
HETATM   19  O2  UNL     1      -3.932 -10.299 -17.454  1.00  0.00    -0.298 OA
BRANCH  19  20
HETATM   20  C10 UNL     1      -3.337 -11.229 -18.291  1.00  0.00     0.402 C
HETATM   21  O3  UNL     1      -3.881 -11.496 -19.384  1.00  0.00    -0.276 OA
ENDBRANCH  19  20
ENDBRANCH  18  19
ENDBRANCH   6  17
TORSDOF 8
ENDMDL