MODEL 5
REMARK VINA RESULT: -7.776703137      3.336      7.830
REMARK  6 active torsions:
REMARK  status: ('A' for Active; 'I' for Inactive)
REMARK    1  A    between atoms: N1_2  and  C2_4
REMARK    2  A    between atoms: C2_4  and  C3_5
REMARK    3  A    between atoms: C2_4  and  C11_22
REMARK    4  A    between atoms: C3_5  and  C4_6
REMARK    5  A    between atoms: C4_6  and  N2_7
REMARK    6  A    between atoms: N3_10  and  C7_11
ROOT
HETATM    1  N2  UNL     1      -8.541  -6.728 -15.612  1.00  0.00     0.091 N
HETATM    2  C5  UNL     1      -7.748  -6.979 -16.768  1.00  0.00     0.292 C
HETATM    3  C6  UNL     1      -6.285  -7.173 -16.495  1.00  0.00     0.171 C
HETATM    4  N3  UNL     1      -6.125  -8.222 -15.505  1.00  0.00    -0.213 N
HETATM    5  C9  UNL     1      -6.986  -8.240 -14.374  1.00  0.00     0.171 C
HETATM    6  C10 UNL     1      -8.094  -7.255 -14.389  1.00  0.00     0.292 C
ENDROOT
BRANCH   1   7
HETATM    7  C4  UNL     1      -9.922  -6.984 -15.961  1.00  0.00     0.274 C
BRANCH   7   8
HETATM    8  C3  UNL     1     -10.634  -5.839 -16.568  1.00  0.00     0.055 C
BRANCH   8   9
HETATM    9  C2  UNL     1     -10.880  -5.882 -18.041  1.00  0.00     0.081 C
BRANCH   9  10
HETATM   10  N1  UNL     1     -10.774  -7.098 -18.717  1.00  0.00    -0.421 N
HETATM   11  C1  UNL     1     -11.876  -7.814 -19.195  1.00  0.00     0.140 C
ATOM     12  H1  UNL     1      -9.844  -7.485 -18.870  1.00  0.00     0.153 HD
ENDBRANCH   9  10
BRANCH   9  13
HETATM   13  C11 UNL     1     -12.299  -5.334 -18.273  1.00  0.00    -0.000 C
HETATM   14  C12 UNL     1     -13.026  -5.246 -16.950  1.00  0.00     0.011 C
HETATM   15  C13 UNL     1     -12.257  -4.012 -18.991  1.00  0.00     0.011 C
ENDBRANCH   9  13
ENDBRANCH   8   9
ENDBRANCH   7   8
ENDBRANCH   1   7
BRANCH   4  16
HETATM   16  C7  UNL     1      -5.131  -9.222 -15.645  1.00  0.00     0.699 A
HETATM   17  N4  UNL     1      -4.629  -9.737 -16.789  1.00  0.00    -0.139 N
HETATM   18  C8  UNL     1      -3.705 -10.666 -16.504  1.00  0.00     0.353 A
ATOM     19  H4  UNL     1      -4.911  -9.460 -17.730  1.00  0.00     0.189 HD
HETATM   20  O1  UNL     1      -3.067 -11.311 -17.372  1.00  0.00    -0.245 OA
HETATM   21  N5  UNL     1      -3.618 -10.743 -15.174  1.00  0.00    -0.237 N
HETATM   22  N6  UNL     1      -4.473  -9.878 -14.664  1.00  0.00    -0.128 N
ATOM     23  H5  UNL     1      -3.000 -11.362 -14.647  1.00  0.00     0.192 HD
ATOM     24  H6  UNL     1      -4.618  -9.726 -13.665  1.00  0.00     0.205 HD
ENDBRANCH   4  16
TORSDOF 6
ENDMDL