MODEL 5
REMARK VINA RESULT: -5.790945294      2.373      4.138
REMARK  8 active torsions:
REMARK  status: ('A' for Active; 'I' for Inactive)
REMARK    1  A    between atoms: C2_2  and  C3_3
REMARK    2  A    between atoms: C8_12  and  O1_13
REMARK    3  A    between atoms: C9_15  and  O2_16
REMARK    4  A    between atoms: C10_18  and  O3_19
REMARK    5  A    between atoms: O3_19  and  C11_20
REMARK    6  A    between atoms: C11_20  and  C12_21
REMARK    7  A    between atoms: C12_21  and  C13_22
REMARK    8  A    between atoms: C13_22  and  C14_23
ROOT
HETATM    1  C3  UNL     1     -12.520  -5.618 -18.057  1.00  0.00     0.071 C
HETATM    2  C4  UNL     1     -11.558  -4.603 -18.525  1.00  0.00     0.227 C
HETATM    3  C5  UNL     1     -12.231  -3.306 -18.979  1.00  0.00     0.308 C
HETATM    4  N1  UNL     1     -11.974  -3.275 -20.376  1.00  0.00     0.120 N
HETATM    5  C6  UNL     1     -12.952  -2.586 -21.160  1.00  0.00     0.312 C
HETATM    6  C7  UNL     1     -11.660  -4.604 -20.792  1.00  0.00     0.450 C
HETATM    7  N2  UNL     1     -10.898  -5.140 -19.712  1.00  0.00    -0.034 N
ATOM      8  H21 UNL     1     -10.809  -6.157 -19.722  1.00  0.00     0.280 HD
ATOM      9  H22 UNL     1      -9.898  -4.946 -19.764  1.00  0.00     0.280 HD
HETATM   10  C8  UNL     1     -12.815  -5.404 -21.249  1.00  0.00     0.210 C
HETATM   11  C9  UNL     1     -13.675  -6.036 -20.259  1.00  0.00     0.180 C
HETATM   12  C10 UNL     1     -12.978  -6.645 -19.032  1.00  0.00     0.162 C
ENDROOT
BRANCH  12  13
HETATM   13  O3  UNL     1     -12.034  -7.561 -19.448  1.00  0.00    -0.382 OA
BRANCH  13  14
HETATM   14  C11 UNL     1     -12.652  -8.783 -19.716  1.00  0.00     0.168 C
BRANCH  14  15
HETATM   15  C12 UNL     1     -11.852  -9.649 -20.624  1.00  0.00     0.029 C
BRANCH  15  16
HETATM   16  C13 UNL     1     -12.035 -11.111 -20.536  1.00  0.00     0.033 C
BRANCH  16  17
HETATM   17  C14 UNL     1     -13.154 -11.581 -19.653  1.00  0.00     0.222 C
HETATM   18  F1  UNL     1     -12.774 -11.988 -18.430  1.00  0.00    -0.255 F
ENDBRANCH  16  17
ENDBRANCH  15  16
ENDBRANCH  14  15
ENDBRANCH  13  14
ENDBRANCH  12  13
BRANCH   1  19
HETATM   19  C2  UNL     1     -12.106  -6.306 -16.824  1.00  0.00    -0.028 C
HETATM   20  C1  UNL     1     -11.014  -6.509 -16.234  1.00  0.00     0.007 C
ENDBRANCH   1  19
BRANCH  11  21
HETATM   21  O2  UNL     1     -14.765  -5.326 -19.789  1.00  0.00    -0.390 OA
ATOM     22  H2  UNL     1     -14.682  -4.873 -18.958  1.00  0.00     0.210 HD
ENDBRANCH  11  21
BRANCH  10  23
HETATM   23  O1  UNL     1     -12.356  -6.366 -22.181  1.00  0.00    -0.389 OA
ATOM     24  H1  UNL     1     -11.408  -6.324 -22.217  1.00  0.00     0.210 HD
ENDBRANCH  10  23
TORSDOF 8
ENDMDL