MODEL 5
REMARK VINA RESULT: -7.047389883      1.398      7.801
REMARK  8 active torsions:
REMARK  status: ('A' for Active; 'I' for Inactive)
REMARK    1  A    between atoms: O1_1  and  N1_3
REMARK    2  A    between atoms: C1_5  and  C2_6
REMARK    3  A    between atoms: C1_5  and  N3_13
REMARK    4  A    between atoms: C2_6  and  C3_7
REMARK    5  A    between atoms: C3_7  and  N2_8
REMARK    6  A    between atoms: N3_13  and  C8_15
REMARK    7  A    between atoms: C8_15  and  C9_16
REMARK    8  A    between atoms: C9_16  and  N4_17
ROOT
HETATM    1  N1  UNL     1      -7.798  -6.833 -16.796  1.00  0.00    -0.257 N
ATOM      2  H1  UNL     1      -6.836  -6.748 -16.467  1.00  0.00     0.195 HD
HETATM    3  C1  UNL     1      -8.745  -6.895 -15.928  1.00  0.00     0.099 C
ENDROOT
BRANCH   3   4
HETATM    4  C2  UNL     1     -10.140  -7.018 -16.415  1.00  0.00     0.108 C
BRANCH   4   5
HETATM    5  C3  UNL     1     -10.759  -5.680 -16.700  1.00  0.00     0.280 C
BRANCH   5   6
HETATM    6  N2  UNL     1     -10.887  -5.470 -18.110  1.00  0.00     0.088 N
HETATM    7  C4  UNL     1     -11.907  -4.478 -18.420  1.00  0.00     0.272 C
HETATM    8  C5  UNL     1     -13.226  -5.219 -18.355  1.00  0.00     0.032 C
HETATM    9  C6  UNL     1     -12.831  -6.683 -18.458  1.00  0.00     0.032 C
HETATM   10  C7  UNL     1     -11.385  -6.612 -18.845  1.00  0.00     0.272 C
ENDBRANCH   5   6
ENDBRANCH   4   5
ENDBRANCH   3   4
BRANCH   3  11
HETATM   11  N3  UNL     1      -8.390  -6.840 -14.555  1.00  0.00    -0.374 N
ATOM     12  H3  UNL     1      -8.617  -5.990 -14.038  1.00  0.00     0.161 HD
BRANCH  11  13
HETATM   13  C8  UNL     1      -7.729  -7.910 -13.840  1.00  0.00     0.165 C
BRANCH  13  14
HETATM   14  C9  UNL     1      -6.261  -7.782 -13.747  1.00  0.00     0.077 C
BRANCH  14  15
HETATM   15  N4  UNL     1      -5.467  -8.840 -14.155  1.00  0.00    -0.389 N
HETATM   16  C10 UNL     1      -4.262  -9.078 -13.431  1.00  0.00     0.149 C
HETATM   17  C11 UNL     1      -3.120  -9.262 -14.377  1.00  0.00     0.252 C
HETATM   18  N5  UNL     1      -3.217  -8.287 -15.437  1.00  0.00    -0.072 N
HETATM   19  C12 UNL     1      -4.336  -8.502 -16.303  1.00  0.00     0.252 C
ATOM     20  H52 UNL     1      -3.228  -7.340 -15.058  1.00  0.00     0.277 HD
ATOM     21  H51 UNL     1      -2.348  -8.244 -15.970  1.00  0.00     0.277 HD
HETATM   22  C13 UNL     1      -5.429  -9.228 -15.515  1.00  0.00     0.149 C
ENDBRANCH  14  15
ENDBRANCH  13  14
ENDBRANCH  11  13
ENDBRANCH   3  11
BRANCH   1  23
HETATM   23  O1  UNL     1      -8.029  -6.875 -18.148  1.00  0.00    -0.288 OA
ATOM     24  H1  UNL     1      -7.865  -7.650 -18.672  1.00  0.00     0.244 HD
ENDBRANCH   1  23
TORSDOF 8
ENDMDL