MODEL 1
REMARK VINA RESULT: -7.015866419      0.000      0.000
REMARK  8 active torsions:
REMARK  status: ('A' for Active; 'I' for Inactive)
REMARK    1  A    between atoms: C2_2  and  C3_3
REMARK    2  A    between atoms: C3_3  and  C4_4
REMARK    3  A    between atoms: C3_3  and  N3_9
REMARK    4  A    between atoms: C3_3  and  C6_13
REMARK    5  A    between atoms: C4_4  and  N1_5
REMARK    6  A    between atoms: N1_5  and  N2_6
REMARK    7  A    between atoms: N3_9  and  C5_11
REMARK    8  A    between atoms: C8_18  and  C9_19
ROOT
HETATM    1  C6  UNL     1     -11.999  -4.717 -19.713  1.00  0.00     0.118 A
HETATM    2  N4  UNL     1     -12.839  -4.839 -18.671  1.00  0.00    -0.332 N
ATOM      3  H4  UNL     1     -13.812  -4.535 -18.675  1.00  0.00     0.168 HD
HETATM    4  C7  UNL     1     -12.227  -5.414 -17.622  1.00  0.00     0.135 A
HETATM    5 CL1  UNL     1     -12.902  -5.775 -16.056  1.00  0.00    -0.062 Cl
HETATM    6  C8  UNL     1     -10.943  -5.665 -18.028  1.00  0.00     0.116 A
HETATM    7  N7  UNL     1     -10.834  -5.233 -19.295  1.00  0.00    -0.338 N
ATOM      8  H7  UNL     1      -9.985  -5.290 -19.859  1.00  0.00     0.167 HD
ENDROOT
BRANCH   1   9
HETATM    9  C3  UNL     1     -12.320  -4.120 -21.065  1.00  0.00     0.137 C
BRANCH   9  10
HETATM   10  C2  UNL     1     -13.596  -4.833 -21.499  1.00  0.00     0.042 C
HETATM   11  C1  UNL     1     -14.670  -3.834 -21.878  1.00  0.00     0.008 C
ENDBRANCH   9  10
BRANCH   9  12
HETATM   12  C4  UNL     1     -12.541  -2.672 -20.966  1.00  0.00     0.220 C
BRANCH  12  13
HETATM   13  N1  UNL     1     -12.513  -2.146 -19.832  1.00  0.00    -0.347 NA
BRANCH  13  14
HETATM   14  N2  UNL     1     -12.719  -1.430 -18.840  1.00  0.00    -0.281 N
ATOM     15  H22 UNL     1     -13.101  -2.197 -18.287  1.00  0.00     0.191 HD
ATOM     16  H21 UNL     1     -12.783  -0.648 -18.187  1.00  0.00     0.191 HD
ENDBRANCH  13  14
ENDBRANCH  12  13
ENDBRANCH   9  12
BRANCH   9  17
HETATM   17  N3  UNL     1     -11.245  -4.431 -21.961  1.00  0.00    -0.347 N
ATOM     18  H3  UNL     1     -10.297  -4.460 -21.585  1.00  0.00     0.163 HD
BRANCH  17  19
HETATM   19  C5  UNL     1     -11.425  -4.695 -23.321  1.00  0.00     0.349 C
HETATM   20  O1  UNL     1     -11.489  -3.829 -24.220  1.00  0.00    -0.284 OA
ENDBRANCH  17  19
ENDBRANCH   9  17
ENDBRANCH   1   9
BRANCH   6  21
HETATM   21  C9  UNL     1      -9.841  -6.294 -17.264  1.00  0.00     0.127 C
HETATM   22  N5  UNL     1      -8.662  -6.491 -17.733  1.00  0.00    -0.373 N
HETATM   23  C10 UNL     1      -7.826  -7.127 -16.720  1.00  0.00     0.141 C
ATOM     24  H5  UNL     1      -8.356  -6.240 -18.673  1.00  0.00     0.161 HD
HETATM   25  C11 UNL     1      -8.553  -6.786 -15.422  1.00  0.00     0.141 C
HETATM   26  N6  UNL     1      -9.933  -6.770 -15.936  1.00  0.00    -0.373 N
ATOM     27  H6  UNL     1     -10.779  -7.044 -15.438  1.00  0.00     0.161 HD
ENDBRANCH   6  21
TORSDOF 8
ENDMDL