MODEL 1
REMARK VINA RESULT: -6.152633642      0.000      0.000
REMARK  8 active torsions:
REMARK  status: ('A' for Active; 'I' for Inactive)
REMARK    1  A    between atoms: O1_1  and  C1_3
REMARK    2  A    between atoms: C1_3  and  C2_4
REMARK    3  A    between atoms: C2_4  and  C3_5
REMARK    4  A    between atoms: C3_5  and  N1_6
REMARK    5  A    between atoms: C5_8  and  C6_9
REMARK    6  A    between atoms: C7_10  and  C8_11
REMARK    7  A    between atoms: C9_14  and  C10_15
REMARK    8  A    between atoms: C10_15  and  O3_16
ROOT
HETATM    1  N1  UNL     1     -11.955  -4.996 -19.366  1.00  0.00     0.094 N
HETATM    2  C4  UNL     1     -10.795  -5.237 -18.570  1.00  0.00     0.317 C
HETATM    3  C5  UNL     1     -10.076  -6.509 -18.695  1.00  0.00     0.229 C
HETATM    4  O2  UNL     1     -10.896  -7.575 -19.047  1.00  0.00    -0.363 OA
HETATM    5  C9  UNL     1     -11.373  -7.197 -20.325  1.00  0.00     0.175 C
HETATM    6  C11 UNL     1     -12.390  -6.108 -20.163  1.00  0.00     0.306 C
ENDROOT
BRANCH   1   7
HETATM    7  C3  UNL     1     -11.717  -3.815 -20.182  1.00  0.00     0.275 C
BRANCH   7   8
HETATM    8  C2  UNL     1     -12.970  -3.133 -20.650  1.00  0.00     0.056 C
BRANCH   8   9
HETATM    9  C1  UNL     1     -12.940  -1.645 -20.228  1.00  0.00     0.165 C
BRANCH   9  10
HETATM   10  O1  UNL     1     -12.528  -1.540 -18.903  1.00  0.00    -0.401 OA
ATOM     11  H1  UNL     1     -12.967  -0.808 -18.487  1.00  0.00     0.209 HD
ENDBRANCH   9  10
ENDBRANCH   8   9
ENDBRANCH   7   8
ENDBRANCH   1   7
BRANCH   3  12
HETATM   12  C6  UNL     1      -9.340  -6.796 -17.453  1.00  0.00    -0.071 C
HETATM   13  C7  UNL     1      -8.733  -7.024 -16.438  1.00  0.00    -0.089 C
BRANCH  13  14
HETATM   14  C8  UNL     1      -7.997  -7.289 -15.188  1.00  0.00     0.208 C
HETATM   15 CL1  UNL     1      -6.999  -8.757 -15.357  1.00  0.00    -0.117 Cl
ENDBRANCH  13  14
ENDBRANCH   3  12
BRANCH   5  16
HETATM   16  C10 UNL     1     -11.827  -8.373 -21.098  1.00  0.00     0.197 C
BRANCH  16  17
HETATM   17  O3  UNL     1     -11.836  -9.497 -20.285  1.00  0.00    -0.398 OA
ATOM     18  H3  UNL     1     -12.128 -10.253 -20.781  1.00  0.00     0.209 HD
ENDBRANCH  16  17
ENDBRANCH   5  16
TORSDOF 8
ENDMDL