MODEL 1
REMARK VINA RESULT: -6.453058035      0.000      0.000
REMARK  7 active torsions:
REMARK  status: ('A' for Active; 'I' for Inactive)
REMARK    1  A    between atoms: C2_2  and  N1_3
REMARK    2  A    between atoms: N1_3  and  C3_4
REMARK    3  A    between atoms: N1_3  and  C5_7
REMARK    4  A    between atoms: C3_4  and  C4_5
REMARK    5  A    between atoms: C6_8  and  O1_9
REMARK    6  A    between atoms: C9_13  and  O2_14
REMARK    7  A    between atoms: C10_16  and  O3_17
ROOT
HETATM    1  C5  UNL     1      -5.220  -7.743 -15.190  1.00  0.00     0.143 C
HETATM    2  C6  UNL     1      -6.060  -8.171 -14.028  1.00  0.00     0.143 C
HETATM    3  C7  UNL     1      -7.522  -8.010 -14.174  1.00  0.00     0.036 C
HETATM    4  C8  UNL     1      -8.043  -7.142 -15.239  1.00  0.00     0.037 C
HETATM    5  C9  UNL     1      -7.113  -6.812 -16.353  1.00  0.00     0.149 C
HETATM    6  C10 UNL     1      -6.051  -7.913 -16.455  1.00  0.00     0.172 C
ENDROOT
BRANCH   1   7
HETATM    7  N1  UNL     1      -3.961  -8.333 -15.342  1.00  0.00    -0.383 N
BRANCH   7   8
HETATM    8  C2  UNL     1      -2.911  -8.017 -14.471  1.00  0.00     0.054 C
HETATM    9  C1  UNL     1      -2.525  -9.034 -13.446  1.00  0.00     0.054 C
ENDBRANCH   7   8
BRANCH   7  10
HETATM   10  C3  UNL     1      -3.900  -9.696 -15.745  1.00  0.00     0.137 C
BRANCH  10  11
HETATM   11  C4  UNL     1      -2.869  -9.965 -16.818  1.00  0.00     0.134 C
HETATM   12 CL1  UNL     1      -3.655 -10.536 -18.326  1.00  0.00    -0.129 Cl
ENDBRANCH  10  11
ENDBRANCH   7  10
ENDBRANCH   1   7
BRANCH   2  13
HETATM   13  O1  UNL     1      -5.765  -9.511 -13.748  1.00  0.00    -0.393 OA
ATOM     14  H1  UNL     1      -6.229  -9.756 -12.956  1.00  0.00     0.210 HD
ENDBRANCH   2  13
BRANCH   6  15
HETATM   15  O3  UNL     1      -5.323  -7.626 -17.600  1.00  0.00    -0.391 OA
ATOM     16  H3  UNL     1      -5.413  -6.717 -17.862  1.00  0.00     0.210 HD
ENDBRANCH   6  15
BRANCH   5  17
HETATM   17  O2  UNL     1      -7.782  -6.642 -17.565  1.00  0.00    -0.393 OA
ATOM     18  H2  UNL     1      -7.313  -6.063 -18.156  1.00  0.00     0.210 HD
ENDBRANCH   5  17
TORSDOF 7
ENDMDL