MODEL 3
REMARK VINA RESULT: -6.188284860      1.833      2.188
REMARK  7 active torsions:
REMARK  status: ('A' for Active; 'I' for Inactive)
REMARK    1  A    between atoms: C2_2  and  C3_3
REMARK    2  A    between atoms: C3_3  and  C4_4
REMARK    3  A    between atoms: C4_4  and  C5_5
REMARK    4  A    between atoms: C6_6  and  O1_7
REMARK    5  A    between atoms: C7_9  and  O2_10
REMARK    6  A    between atoms: C8_12  and  O3_13
REMARK    7  A    between atoms: C9_15  and  C10_16
ROOT
HETATM    1  C5  UNL     1     -12.038  -6.115 -19.029  1.00  0.00     0.016 C
HETATM    2  C6  UNL     1     -11.953  -4.764 -18.474  1.00  0.00     0.194 C
HETATM    3  C7  UNL     1     -11.941  -3.618 -19.467  1.00  0.00     0.183 C
HETATM    4  C8  UNL     1     -12.772  -3.939 -20.664  1.00  0.00     0.173 C
HETATM    5  C9  UNL     1     -12.064  -5.161 -21.275  1.00  0.00     0.128 C
HETATM    6  N1  UNL     1     -12.362  -6.241 -20.428  1.00  0.00    -0.381 N
HETATM    7  C11 UNL     1     -13.514  -7.009 -20.693  1.00  0.00     0.150 C
ENDROOT
BRANCH   1   8
HETATM    8  C4  UNL     1     -10.958  -7.060 -18.609  1.00  0.00     0.059 C
BRANCH   8   9
HETATM    9  C3  UNL     1      -9.676  -6.563 -18.114  1.00  0.00     0.032 C
BRANCH   9  10
HETATM   10  C2  UNL     1      -9.223  -6.826 -16.757  1.00  0.00    -0.037 C
HETATM   11  C1  UNL     1     -10.056  -6.693 -15.712  1.00  0.00     0.007 C
ENDBRANCH   9  10
ENDBRANCH   8   9
ENDBRANCH   1   8
BRANCH   2  12
HETATM   12  O1  UNL     1     -13.019  -4.456 -17.591  1.00  0.00    -0.387 OA
ATOM     13  H1  UNL     1     -13.666  -3.875 -17.974  1.00  0.00     0.210 HD
ENDBRANCH   2  12
BRANCH   3  14
HETATM   14  O2  UNL     1     -12.396  -2.480 -18.818  1.00  0.00    -0.390 OA
ATOM     15  H2  UNL     1     -12.684  -2.731 -17.948  1.00  0.00     0.210 HD
ENDBRANCH   3  14
BRANCH   5  16
HETATM   16  C10 UNL     1     -12.658  -5.362 -22.630  1.00  0.00     0.142 C
HETATM   17 CL1  UNL     1     -11.515  -4.977 -23.936  1.00  0.00    -0.128 Cl
ENDBRANCH   5  16
BRANCH   4  18
HETATM   18  O3  UNL     1     -12.884  -2.906 -21.557  1.00  0.00    -0.391 OA
ATOM     19  H3  UNL     1     -12.173  -2.278 -21.510  1.00  0.00     0.210 HD
ENDBRANCH   4  18
TORSDOF 7
ENDMDL