MODEL 2
REMARK VINA RESULT: -6.315934440      0.028      1.263
REMARK  4 active torsions:
REMARK  status: ('A' for Active; 'I' for Inactive)
REMARK    1  A    between atoms: S1_2  and  C1_5
REMARK    2  A    between atoms: C1_5  and  C2_6
REMARK    3  A    between atoms: C2_6  and  C3_7
REMARK    4  A    between atoms: C3_7  and  O4_8
ROOT
HETATM    1  C2  UNL     1     -12.267  -5.484 -18.326  1.00  0.00     0.037 C
HETATM    2  C4  UNL     1     -12.450  -5.630 -16.807  1.00  0.00     0.246 C
HETATM    3  N1  UNL     1     -11.305  -5.099 -16.113  1.00  0.00    -0.074 N
ATOM      4  H11 UNL     1     -11.500  -4.881 -15.135  1.00  0.00     0.277 HD
ATOM      5  H12 UNL     1     -11.061  -4.155 -16.414  1.00  0.00     0.277 HD
HETATM    6  C5  UNL     1     -10.219  -6.040 -16.275  1.00  0.00     0.233 C
HETATM    7  C6  UNL     1     -10.302  -6.838 -17.531  1.00  0.00     0.048 C
HETATM    8  C7  UNL     1     -10.964  -6.145 -18.682  1.00  0.00     0.097 C
HETATM    9 CL1  UNL     1     -11.241  -7.396 -19.931  1.00  0.00    -0.124 Cl
ENDROOT
BRANCH   1  10
HETATM   10  C1  UNL     1     -12.222  -4.032 -18.608  1.00  0.00     0.180 C
BRANCH  10  11
HETATM   11  S1  UNL     1     -11.816  -3.553 -20.264  1.00  0.00     0.102 S
HETATM   12  O1  UNL     1     -10.215  -3.806 -20.683  1.00  0.00    -0.595 OA
HETATM   13  O2  UNL     1     -12.129  -1.871 -20.488  1.00  0.00    -0.595 OA
HETATM   14  O3  UNL     1     -12.806  -4.349 -21.393  1.00  0.00    -0.595 OA
ENDBRANCH  10  11
ENDBRANCH   1  10
BRANCH   1  15
HETATM   15  C3  UNL     1     -13.455  -6.188 -18.944  1.00  0.00     0.177 C
BRANCH  15  16
HETATM   16  O4  UNL     1     -14.492  -5.244 -19.050  1.00  0.00    -0.400 OA
ATOM     17  H4  UNL     1     -14.762  -5.018 -18.168  1.00  0.00     0.209 HD
ENDBRANCH  15  16
ENDBRANCH   1  15
TORSDOF 4
ENDMDL