MODEL 3
REMARK VINA RESULT: -5.950850964      0.716      1.595
REMARK  7 active torsions:
REMARK  status: ('A' for Active; 'I' for Inactive)
REMARK    1  A    between atoms: O1_1  and  C1_3
REMARK    2  A    between atoms: C1_3  and  C2_4
REMARK    3  A    between atoms: C2_4  and  O2_5
REMARK    4  A    between atoms: C2_4  and  C3_7
REMARK    5  A    between atoms: C3_7  and  O3_8
REMARK    6  A    between atoms: C3_7  and  N1_10
REMARK    7  A    between atoms: C7_14  and  C8_15
ROOT
HETATM    1  C3  UNL     1      -6.322  -8.863 -15.538  1.00  0.00     0.247 C
ENDROOT
BRANCH   1   2
HETATM    2  C2  UNL     1      -7.180  -7.749 -16.137  1.00  0.00     0.190 C
BRANCH   2   3
HETATM    3  C1  UNL     1      -7.482  -6.733 -15.028  1.00  0.00     0.200 C
BRANCH   3   4
HETATM    4  O1  UNL     1      -8.464  -7.219 -14.191  1.00  0.00    -0.398 OA
ATOM      5  H1  UNL     1      -9.323  -7.002 -14.531  1.00  0.00     0.209 HD
ENDBRANCH   3   4
ENDBRANCH   2   3
BRANCH   2   6
HETATM    6  O2  UNL     1      -6.415  -7.094 -17.101  1.00  0.00    -0.389 OA
ATOM      7  H2  UNL     1      -6.306  -6.196 -16.812  1.00  0.00     0.210 HD
ENDBRANCH   2   6
ENDBRANCH   1   2
BRANCH   1   8
HETATM    8  O3  UNL     1      -7.075  -9.708 -14.760  1.00  0.00    -0.374 OA
ATOM      9  H3  UNL     1      -6.576 -10.029 -14.017  1.00  0.00     0.212 HD
ENDBRANCH   1   8
BRANCH   1  10
HETATM   10  N1  UNL     1      -5.213  -8.255 -14.884  1.00  0.00    -0.381 N
HETATM   11  C4  UNL     1      -5.196  -8.294 -13.473  1.00  0.00     0.120 C
HETATM   12  C5  UNL     1      -3.834  -8.904 -13.151  1.00  0.00     0.021 C
HETATM   13  C6  UNL     1      -2.982  -8.349 -14.286  1.00  0.00     0.027 C
HETATM   14  C7  UNL     1      -3.943  -8.449 -15.450  1.00  0.00     0.091 C
BRANCH  14  15
HETATM   15  C8  UNL     1      -3.753  -9.756 -16.196  1.00  0.00     0.110 C
HETATM   16 BR1  UNL     1      -3.623  -9.298 -18.087  1.00  0.00    -0.094 Br
ENDBRANCH  14  15
ENDBRANCH   1  10
TORSDOF 7
ENDMDL