MODEL 2
REMARK VINA RESULT: -5.851113237      1.330      1.560
REMARK  7 active torsions:
REMARK  status: ('A' for Active; 'I' for Inactive)
REMARK    1  A    between atoms: N1_1  and  C1_5
REMARK    2  A    between atoms: C2_6  and  O1_7
REMARK    3  A    between atoms: C3_9  and  O2_10
REMARK    4  A    between atoms: N2_13  and  C5_14
REMARK    5  A    between atoms: C5_14  and  C6_15
REMARK    6  A    between atoms: C6_15  and  C7_16
REMARK    7  A    between atoms: C7_16  and  C8_17
ROOT
HETATM    1  C1  UNL     1     -11.443  -4.836 -18.901  1.00  0.00     0.448 C
HETATM    2  C2  UNL     1     -12.869  -5.181 -18.684  1.00  0.00     0.209 C
HETATM    3  C3  UNL     1     -12.957  -6.672 -18.716  1.00  0.00     0.179 C
HETATM    4  C4  UNL     1     -11.545  -7.174 -18.816  1.00  0.00     0.309 C
HETATM    5  N2  UNL     1     -10.637  -6.046 -18.735  1.00  0.00     0.124 N
ENDROOT
BRANCH   5   6
HETATM    6  C5  UNL     1     -10.008  -5.930 -17.431  1.00  0.00     0.275 C
BRANCH   6   7
HETATM    7  C6  UNL     1      -8.847  -6.880 -17.242  1.00  0.00     0.031 C
BRANCH   7   8
HETATM    8  C7  UNL     1      -8.621  -6.939 -15.732  1.00  0.00     0.012 C
BRANCH   8   9
HETATM    9  C8  UNL     1      -7.176  -6.938 -15.353  1.00  0.00     0.085 C
HETATM   10 BR1  UNL     1      -6.860  -8.469 -14.230  1.00  0.00    -0.097 Br
ENDBRANCH   8   9
ENDBRANCH   7   8
ENDBRANCH   6   7
ENDBRANCH   5   6
BRANCH   1  11
HETATM   11  N1  UNL     1     -11.168  -4.244 -20.212  1.00  0.00    -0.045 N
ATOM     12  H13 UNL     1     -11.834  -3.498 -20.414  1.00  0.00     0.277 HD
ATOM     13  H12 UNL     1     -10.304  -3.702 -20.186  1.00  0.00     0.277 HD
ATOM     14  H11 UNL     1     -11.145  -4.921 -20.975  1.00  0.00     0.277 HD
ENDBRANCH   1  11
BRANCH   2  15
HETATM   15  O1  UNL     1     -13.391  -4.671 -17.472  1.00  0.00    -0.389 OA
ATOM     16  H1  UNL     1     -13.279  -5.260 -16.736  1.00  0.00     0.210 HD
ENDBRANCH   2  15
BRANCH   3  17
HETATM   17  O2  UNL     1     -13.752  -7.043 -19.819  1.00  0.00    -0.391 OA
ATOM     18  H2  UNL     1     -14.354  -7.723 -19.537  1.00  0.00     0.210 HD
ENDBRANCH   3  17
TORSDOF 7
ENDMDL