MODEL 2
REMARK VINA RESULT: -6.309175034      0.869      1.631
REMARK  7 active torsions:
REMARK  status: ('A' for Active; 'I' for Inactive)
REMARK    1  A    between atoms: O1_1  and  C1_3
REMARK    2  A    between atoms: C1_3  and  C2_4
REMARK    3  A    between atoms: C2_4  and  O2_5
REMARK    4  A    between atoms: C2_4  and  C3_7
REMARK    5  A    between atoms: C3_7  and  C4_8
REMARK    6  A    between atoms: C4_8  and  N1_9
REMARK    7  A    between atoms: C7_12  and  O3_13
ROOT
HETATM    1  N1  UNL     1     -11.080  -6.482 -17.887  1.00  0.00     0.107 N
HETATM    2  C5  UNL     1     -10.323  -5.438 -18.598  1.00  0.00     0.277 C
HETATM    3  C6  UNL     1     -10.910  -5.101 -19.939  1.00  0.00     0.062 C
HETATM    4  C7  UNL     1     -12.177  -4.307 -19.630  1.00  0.00     0.123 C
HETATM    5  C8  UNL     1     -12.981  -5.049 -18.592  1.00  0.00     0.083 C
HETATM    6  C9  UNL     1     -12.485  -6.428 -18.280  1.00  0.00     0.320 C
HETATM    7 CL1  UNL     1     -12.895  -7.630 -19.518  1.00  0.00    -0.092 Cl
ENDROOT
BRANCH   1   8
HETATM    8  C4  UNL     1     -10.996  -6.183 -16.464  1.00  0.00     0.277 C
BRANCH   8   9
HETATM    9  C3  UNL     1     -10.225  -7.261 -15.778  1.00  0.00     0.064 C
BRANCH   9  10
HETATM   10  C2  UNL     1      -8.834  -6.755 -15.398  1.00  0.00     0.143 C
BRANCH  10  11
HETATM   11  C1  UNL     1      -7.858  -7.296 -16.410  1.00  0.00     0.195 C
BRANCH  11  12
HETATM   12  O1  UNL     1      -7.140  -6.347 -17.088  1.00  0.00    -0.398 OA
ATOM     13  H1  UNL     1      -7.471  -6.134 -17.953  1.00  0.00     0.209 HD
ENDBRANCH  11  12
ENDBRANCH  10  11
BRANCH  10  14
HETATM   14  O2  UNL     1      -8.471  -7.219 -14.148  1.00  0.00    -0.393 OA
ATOM     15  H2  UNL     1      -9.246  -7.242 -13.598  1.00  0.00     0.210 HD
ENDBRANCH  10  14
ENDBRANCH   9  10
ENDBRANCH   8   9
ENDBRANCH   1   8
BRANCH   4  16
HETATM   16  O3  UNL     1     -11.720  -3.091 -19.061  1.00  0.00    -0.395 OA
ATOM     17  H3  UNL     1     -12.490  -2.536 -19.014  1.00  0.00     0.210 HD
ENDBRANCH   4  16
TORSDOF 7
ENDMDL