MODEL 1
REMARK VINA RESULT: -7.130605808      0.000      0.000
REMARK  7 active torsions:
REMARK  status: ('A' for Active; 'I' for Inactive)
REMARK    1  A    between atoms: C2_3  and  C3_4
REMARK    2  A    between atoms: C4_5  and  C5_6
REMARK    3  A    between atoms: C7_8  and  N2_9
REMARK    4  A    between atoms: C9_15  and  C10_16
REMARK    5  A    between atoms: C9_15  and  C11_19
REMARK    6  A    between atoms: C10_16  and  O1_17
REMARK    7  A    between atoms: C11_19  and  O2_20
ROOT
HETATM    1  C1  UNL     1     -12.339  -5.744 -16.501  1.00  0.00     0.312 C
HETATM    2  N1  UNL     1     -11.435  -5.453 -17.572  1.00  0.00     0.109 N
HETATM    3  C2  UNL     1     -10.712  -6.688 -17.938  1.00  0.00     0.267 C
HETATM    4  C8  UNL     1     -10.863  -6.286 -19.356  1.00  0.00     0.162 C
HETATM    5 CL1  UNL     1     -11.406  -7.612 -20.433  1.00  0.00    -0.119 Cl
HETATM    6  C9  UNL     1     -12.010  -5.400 -18.900  1.00  0.00     0.220 C
ENDROOT
BRANCH   3   7
HETATM    7  C3  UNL     1      -9.393  -6.673 -17.305  1.00  0.00     0.006 C
HETATM    8  C4  UNL     1      -9.070  -7.153 -16.146  1.00  0.00    -0.022 C
BRANCH   8   9
HETATM    9  C5  UNL     1      -7.717  -7.103 -15.567  1.00  0.00     0.040 A
HETATM   10  C6  UNL     1      -6.839  -8.331 -15.825  1.00  0.00     0.044 A
HETATM   11  C7  UNL     1      -7.318  -7.919 -14.417  1.00  0.00     0.191 A
BRANCH  11  12
HETATM   12  N2  UNL     1      -6.204  -7.526 -13.571  1.00  0.00    -0.074 N
ATOM     13  H23 UNL     1      -5.339  -7.729 -14.072  1.00  0.00     0.274 HD
ATOM     14  H22 UNL     1      -6.186  -6.508 -13.523  1.00  0.00     0.274 HD
ATOM     15  H21 UNL     1      -6.112  -7.889 -12.622  1.00  0.00     0.274 HD
ENDBRANCH  11  12
ENDBRANCH   8   9
ENDBRANCH   3   7
BRANCH   6  16
HETATM   16  C10 UNL     1     -13.365  -5.999 -19.064  1.00  0.00     0.210 C
BRANCH  16  17
HETATM   17  O1  UNL     1     -14.334  -5.010 -19.167  1.00  0.00    -0.398 OA
ATOM     18  H1  UNL     1     -14.962  -5.219 -19.849  1.00  0.00     0.209 HD
ENDBRANCH  16  17
ENDBRANCH   6  16
BRANCH   6  19
HETATM   19  C11 UNL     1     -11.860  -4.027 -19.498  1.00  0.00     0.210 C
BRANCH  19  20
HETATM   20  O2  UNL     1     -12.528  -3.033 -18.794  1.00  0.00    -0.398 OA
ATOM     21  H2  UNL     1     -12.747  -2.272 -19.320  1.00  0.00     0.209 HD
ENDBRANCH  19  20
ENDBRANCH   6  19
TORSDOF 7
ENDMDL