MODEL 4
REMARK VINA RESULT: -5.844034597      2.436      5.092
REMARK  6 active torsions:
REMARK  status: ('A' for Active; 'I' for Inactive)
REMARK    1  A    between atoms: O1_2  and  C2_3
REMARK    2  A    between atoms: C2_3  and  C3_4
REMARK    3  A    between atoms: C3_4  and  C4_5
REMARK    4  A    between atoms: C8_10  and  O2_11
REMARK    5  A    between atoms: C9_13  and  O3_14
REMARK    6  A    between atoms: C10_16  and  O4_17
ROOT
HETATM    1  C2  UNL     1     -12.163  -4.903 -19.025  1.00  0.00     0.090 C
HETATM    2  C5  UNL     1     -13.406  -5.993 -19.219  1.00  0.00     0.052 C
HETATM    3  C6  UNL     1     -14.021  -5.265 -20.233  1.00  0.00     0.085 C
HETATM    4  C7  UNL     1     -14.187  -4.519 -20.891  1.00  0.00    -0.149 C
HETATM    5  C8  UNL     1     -14.018  -3.312 -21.607  1.00  0.00     0.215 C
HETATM    6  C9  UNL     1     -12.507  -3.092 -20.915  1.00  0.00     0.189 C
HETATM    7  C10 UNL     1     -12.666  -3.561 -19.507  1.00  0.00     0.184 C
ENDROOT
BRANCH   1   8
HETATM    8  O1  UNL     1     -11.851  -4.833 -17.733  1.00  0.00    -0.382 OA
HETATM    9  C1  UNL     1     -12.644  -5.481 -16.840  1.00  0.00     0.202 C
ENDBRANCH   1   8
BRANCH   1  10
HETATM   10  C3  UNL     1     -11.054  -5.387 -19.875  1.00  0.00     0.056 C
BRANCH  10  11
HETATM   11  C4  UNL     1     -10.511  -6.724 -19.420  1.00  0.00     0.117 C
HETATM   12 CL1  UNL     1      -9.082  -6.435 -18.399  1.00  0.00    -0.130 Cl
ENDBRANCH  10  11
ENDBRANCH   1  10
BRANCH   7  13
HETATM   13  O4  UNL     1     -12.032  -2.573 -18.642  1.00  0.00    -0.390 OA
ATOM     14  H4  UNL     1     -11.559  -1.990 -19.225  1.00  0.00     0.210 HD
ENDBRANCH   7  13
BRANCH   6  15
HETATM   15  O3  UNL     1     -12.266  -1.758 -21.054  1.00  0.00    -0.389 OA
ATOM     16  H3  UNL     1     -12.452  -1.396 -20.196  1.00  0.00     0.210 HD
ENDBRANCH   6  15
BRANCH   5  17
HETATM   17  O2  UNL     1     -14.646  -2.192 -21.144  1.00  0.00    -0.382 OA
ATOM     18  H2  UNL     1     -14.165  -1.612 -20.567  1.00  0.00     0.211 HD
ENDBRANCH   5  17
TORSDOF 6
ENDMDL