MODEL 3
REMARK VINA RESULT: -5.938700134      1.125      1.193
REMARK  7 active torsions:
REMARK  status: ('A' for Active; 'I' for Inactive)
REMARK    1  A    between atoms: C2_2  and  N1_3
REMARK    2  A    between atoms: C3_4  and  C4_5
REMARK    3  A    between atoms: C4_5  and  C5_6
REMARK    4  A    between atoms: C5_6  and  N2_8
REMARK    5  A    between atoms: C8_13  and  O1_14
REMARK    6  A    between atoms: C9_16  and  O2_17
REMARK    7  A    between atoms: C10_19  and  C11_20
ROOT
HETATM    1  N1  UNL     1     -11.946  -6.677 -20.158  1.00  0.00    -0.381 N
HETATM    2  C3  UNL     1     -10.882  -5.700 -20.092  1.00  0.00     0.088 C
HETATM    3  C7  UNL     1     -11.368  -4.334 -20.426  1.00  0.00     0.059 C
HETATM    4  C8  UNL     1     -12.632  -3.991 -19.731  1.00  0.00     0.150 C
HETATM    5  C9  UNL     1     -13.691  -4.931 -20.194  1.00  0.00     0.170 C
HETATM    6  C10 UNL     1     -13.190  -6.280 -20.653  1.00  0.00     0.128 C
ENDROOT
BRANCH   2   7
HETATM    7  C4  UNL     1     -10.150  -5.721 -18.802  1.00  0.00     0.057 C
BRANCH   7   8
HETATM    8  C5  UNL     1     -10.412  -6.691 -17.740  1.00  0.00     0.181 C
HETATM    9  C6  UNL     1      -9.443  -7.125 -16.742  1.00  0.00     0.039 C
BRANCH   8  10
HETATM   10  N2  UNL     1     -11.585  -6.128 -16.987  1.00  0.00    -0.075 N
ATOM     11  H23 UNL     1     -12.368  -6.777 -16.896  1.00  0.00     0.274 HD
ATOM     12  H22 UNL     1     -11.417  -6.009 -15.988  1.00  0.00     0.274 HD
ATOM     13  H21 UNL     1     -11.818  -5.263 -17.475  1.00  0.00     0.274 HD
ENDBRANCH   8  10
ENDBRANCH   7   8
ENDBRANCH   2   7
BRANCH   1  14
HETATM   14  C2  UNL     1     -11.618  -7.990 -20.542  1.00  0.00     0.055 C
HETATM   15  C1  UNL     1     -12.451  -9.134 -20.057  1.00  0.00     0.054 C
ENDBRANCH   1  14
BRANCH   6  16
HETATM   16  C11 UNL     1     -13.497  -6.379 -22.116  1.00  0.00     0.142 C
HETATM   17 CL1  UNL     1     -14.411  -5.043 -22.830  1.00  0.00    -0.128 Cl
ENDBRANCH   6  16
BRANCH   4  18
HETATM   18  O1  UNL     1     -12.604  -3.905 -18.361  1.00  0.00    -0.393 OA
ATOM     19  H1  UNL     1     -12.085  -4.546 -17.890  1.00  0.00     0.210 HD
ENDBRANCH   4  18
BRANCH   5  20
HETATM   20  O2  UNL     1     -14.614  -5.039 -19.125  1.00  0.00    -0.391 OA
ATOM     21  H2  UNL     1     -14.962  -4.165 -18.988  1.00  0.00     0.210 HD
ENDBRANCH   5  20
TORSDOF 7
ENDMDL