MODEL 1
REMARK VINA RESULT: -8.189246106      0.000      0.000
REMARK  5 active torsions:
REMARK  status: ('A' for Active; 'I' for Inactive)
REMARK    1  A    between atoms: C3_9  and  N4_10
REMARK    2  A    between atoms: N4_10  and  C4_12
REMARK    3  A    between atoms: C4_12  and  C5_13
REMARK    4  A    between atoms: C5_13  and  C6_14
REMARK    5  A    between atoms: C6_14  and  N5_15
ROOT
HETATM    1  C4  UNL     1      -6.257  -6.726  -9.849  1.00  0.00     0.123 C
ENDROOT
BRANCH   1   2
HETATM    2  N4  UNL     1      -7.080  -7.766  -9.372  1.00  0.00    -0.374 N
ATOM      3  H4  UNL     1      -6.769  -8.711  -9.598  1.00  0.00     0.161 HD
BRANCH   2   4
HETATM    4  C3  UNL     1      -8.143  -7.691  -8.707  1.00  0.00     0.141 A
HETATM    5  C2  UNL     1      -9.411  -8.047  -9.058  1.00  0.00     0.068 A
HETATM    6  C1  UNL     1      -9.914  -8.627 -10.335  1.00  0.00     0.074 C
HETATM    7  N1  UNL     1     -10.190  -7.760  -7.972  1.00  0.00    -0.287 N
HETATM    8  N2  UNL     1      -9.443  -7.260  -7.015  1.00  0.00    -0.241 N
ATOM      9  H1  UNL     1     -11.197  -7.911  -7.914  1.00  0.00     0.188 HD
HETATM   10  N3  UNL     1      -8.202  -7.198  -7.410  1.00  0.00    -0.270 N
ATOM     11  H2  UNL     1      -9.782  -6.964  -6.100  1.00  0.00     0.208 HD
ATOM     12  H3  UNL     1      -7.414  -6.850  -6.863  1.00  0.00     0.190 HD
ENDBRANCH   2   4
ENDBRANCH   1   2
BRANCH   1  13
HETATM   13  C5  UNL     1      -4.854  -6.957  -9.268  1.00  0.00     0.050 C
BRANCH  13  14
HETATM   14  C6  UNL     1      -4.169  -5.629  -9.019  1.00  0.00     0.274 C
BRANCH  14  15
HETATM   15  N5  UNL     1      -3.518  -5.719  -7.733  1.00  0.00     0.090 N
HETATM   16  C7  UNL     1      -2.138  -6.099  -7.823  1.00  0.00     0.274 C
HETATM   17  C8  UNL     1      -1.354  -5.247  -6.843  1.00  0.00     0.057 C
HETATM   18  C9  UNL     1      -1.375  -5.886  -5.470  1.00  0.00     0.234 C
HETATM   19  N6  UNL     1      -2.730  -5.890  -5.003  1.00  0.00    -0.073 N
HETATM   20  C10 UNL     1      -3.472  -6.971  -5.622  1.00  0.00     0.262 C
ATOM     21  H62 UNL     1      -2.781  -5.929  -3.985  1.00  0.00     0.277 HD
ATOM     22  H61 UNL     1      -3.183  -4.988  -5.143  1.00  0.00     0.277 HD
HETATM   23  C11 UNL     1      -4.276  -6.400  -6.750  1.00  0.00     0.299 C
ENDBRANCH  14  15
ENDBRANCH  13  14
ENDBRANCH   1  13
TORSDOF 5
ENDMDL