MODEL 3
REMARK VINA RESULT: -7.237731332      1.184      1.665
REMARK  6 active torsions:
REMARK  status: ('A' for Active; 'I' for Inactive)
REMARK    1  A    between atoms: N1_1  and  C1_5
REMARK    2  A    between atoms: N2_8  and  C4_9
REMARK    3  A    between atoms: C4_9  and  C5_10
REMARK    4  A    between atoms: C5_10  and  C6_11
REMARK    5  A    between atoms: C6_11  and  N3_12
REMARK    6  A    between atoms: C12_18  and  O1_19
ROOT
HETATM    1  C1  UNL     1      -2.481  -6.232  -6.255  1.00  0.00     0.215 C
HETATM    2  C2  UNL     1      -3.867  -5.754  -5.974  1.00  0.00     0.065 C
HETATM    3  C3  UNL     1      -4.876  -6.285  -6.929  1.00  0.00     0.274 C
HETATM    4  N2  UNL     1      -4.318  -6.661  -8.241  1.00  0.00     0.091 N
HETATM    5  C11 UNL     1      -3.251  -5.713  -8.571  1.00  0.00     0.306 C
HETATM    6  C12 UNL     1      -2.073  -5.929  -7.679  1.00  0.00     0.176 C
ENDROOT
BRANCH   4   7
HETATM    7  C4  UNL     1      -5.378  -6.570  -9.243  1.00  0.00     0.274 C
BRANCH   7   8
HETATM    8  C5  UNL     1      -6.687  -6.891  -8.595  1.00  0.00     0.060 C
BRANCH   8   9
HETATM    9  C6  UNL     1      -7.267  -8.162  -9.212  1.00  0.00     0.274 C
BRANCH   9  10
HETATM   10  N3  UNL     1      -8.516  -7.864  -9.802  1.00  0.00     0.088 N
HETATM   11  C7  UNL     1      -8.553  -8.113 -11.194  1.00  0.00     0.272 C
HETATM   12  C8  UNL     1      -9.858  -8.862 -11.455  1.00  0.00     0.032 C
HETATM   13  C9  UNL     1     -10.713  -8.358 -10.293  1.00  0.00     0.032 C
HETATM   14  C10 UNL     1      -9.662  -8.366  -9.162  1.00  0.00     0.272 C
ENDBRANCH   9  10
ENDBRANCH   8   9
ENDBRANCH   7   8
ENDBRANCH   4   7
BRANCH   6  15
HETATM   15  O1  UNL     1      -1.350  -4.715  -7.654  1.00  0.00    -0.392 OA
ATOM     16  H1  UNL     1      -1.915  -4.048  -8.025  1.00  0.00     0.210 HD
ENDBRANCH   6  15
BRANCH   1  17
HETATM   17  N1  UNL     1      -1.596  -5.581  -5.301  1.00  0.00    -0.072 N
ATOM     18  H13 UNL     1      -2.089  -5.212  -4.488  1.00  0.00     0.274 HD
ATOM     19  H12 UNL     1      -0.994  -6.238  -4.805  1.00  0.00     0.274 HD
ATOM     20  H11 UNL     1      -1.074  -4.867  -5.809  1.00  0.00     0.274 HD
ENDBRANCH   1  17
TORSDOF 6
ENDMDL