MODEL 1
REMARK VINA RESULT: -6.875485902      0.000      0.000
REMARK  7 active torsions:
REMARK  status: ('A' for Active; 'I' for Inactive)
REMARK    1  A    between atoms: N1_2  and  C2_3
REMARK    2  A    between atoms: N1_2  and  C7_8
REMARK    3  A    between atoms: C2_3  and  C3_4
REMARK    4  A    between atoms: C9_10  and  C10_11
REMARK    5  A    between atoms: C10_11  and  O1_12
REMARK    6  A    between atoms: C11_14  and  O2_15
REMARK    7  A    between atoms: C12_17  and  O3_18
ROOT
HETATM    1  C7  UNL     1      -3.988  -6.750  -7.613  1.00  0.00     0.114 C
HETATM    2  C8  UNL     1      -2.534  -6.801  -7.233  1.00  0.00     0.037 C
HETATM    3  C9  UNL     1      -2.511  -6.479  -5.729  1.00  0.00     0.042 C
HETATM    4  C11 UNL     1      -3.456  -5.329  -5.702  1.00  0.00     0.155 C
HETATM    5  C12 UNL     1      -4.597  -5.855  -6.553  1.00  0.00     0.170 C
ENDROOT
BRANCH   1   6
HETATM    6  N1  UNL     1      -4.255  -6.206  -8.877  1.00  0.00    -0.390 N
HETATM    7  C1  UNL     1      -3.447  -5.089  -9.263  1.00  0.00     0.149 C
BRANCH   6   8
HETATM    8  C2  UNL     1      -5.526  -6.292  -9.451  1.00  0.00     0.062 C
BRANCH   8   9
HETATM    9  C3  UNL     1      -6.271  -7.565  -9.255  1.00  0.00     0.024 C
HETATM   10  C4  UNL     1      -7.582  -7.407  -8.465  1.00  0.00     0.010 C
HETATM   11  C5  UNL     1      -8.242  -8.402  -9.425  1.00  0.00     0.001 C
HETATM   12  C6  UNL     1      -7.189  -7.940 -10.427  1.00  0.00     0.010 C
ENDBRANCH   8   9
ENDBRANCH   6   8
ENDBRANCH   1   6
BRANCH   5  13
HETATM   13  O3  UNL     1      -5.498  -6.568  -5.773  1.00  0.00    -0.391 OA
ATOM     14  H3  UNL     1      -6.014  -7.153  -6.314  1.00  0.00     0.210 HD
ENDBRANCH   5  13
BRANCH   3  15
HETATM   15  C10 UNL     1      -1.128  -6.226  -5.281  1.00  0.00     0.171 C
BRANCH  15  16
HETATM   16  O1  UNL     1      -0.476  -5.435  -6.229  1.00  0.00    -0.400 OA
ATOM     17  H1  UNL     1      -0.042  -5.997  -6.859  1.00  0.00     0.209 HD
ENDBRANCH  15  16
ENDBRANCH   3  15
BRANCH   4  18
HETATM   18  O2  UNL     1      -3.001  -4.187  -6.340  1.00  0.00    -0.392 OA
ATOM     19  H2  UNL     1      -2.323  -4.335  -6.988  1.00  0.00     0.210 HD
ENDBRANCH   4  18
TORSDOF 7
ENDMDL