MODEL 2
REMARK VINA RESULT: -7.384239388      0.482      2.899
REMARK  7 active torsions:
REMARK  status: ('A' for Active; 'I' for Inactive)
REMARK    1  A    between atoms: C3_3  and  C4_4
REMARK    2  A    between atoms: C4_4  and  C5_5
REMARK    3  A    between atoms: C5_5  and  N1_6
REMARK    4  A    between atoms: N1_6  and  C6_8
REMARK    5  A    between atoms: C7_11  and  N3_12
REMARK    6  A    between atoms: C9_17  and  N5_18
REMARK    7  A    between atoms: N5_18  and  C10_20
ROOT
HETATM    1  C1  UNL     1      -2.378  -7.629  -5.330  1.00  0.00     0.012 C
HETATM    2  C2  UNL     1      -2.494  -6.892  -6.275  1.00  0.00    -0.117 C
HETATM    3  C3  UNL     1      -2.641  -6.020  -7.429  1.00  0.00     0.094 C
ENDROOT
BRANCH   3   4
HETATM    4  C4  UNL     1      -3.242  -6.821  -8.572  1.00  0.00     0.032 C
BRANCH   4   5
HETATM    5  C5  UNL     1      -4.539  -6.143  -8.955  1.00  0.00     0.139 C
BRANCH   5   6
HETATM    6  N1  UNL     1      -5.603  -6.518  -8.083  1.00  0.00    -0.225 N
ATOM      7  H1  UNL     1      -5.441  -6.437  -7.080  1.00  0.00     0.177 HD
BRANCH   6   8
HETATM    8  C6  UNL     1      -6.751  -6.949  -8.468  1.00  0.00     0.707 A
HETATM    9  N2  UNL     1      -7.028  -7.191  -9.762  1.00  0.00    -0.022 N
HETATM   10  C7  UNL     1      -8.233  -7.642 -10.164  1.00  0.00     0.706 A
ATOM     11  H2  UNL     1      -6.303  -7.027 -10.461  1.00  0.00     0.203 HD
HETATM   12  N4  UNL     1      -9.203  -7.863  -9.234  1.00  0.00    -0.022 N
HETATM   13  C9  UNL     1      -8.948  -7.629  -7.937  1.00  0.00     0.707 A
ATOM     14  H4  UNL     1     -10.119  -8.205  -9.522  1.00  0.00     0.203 HD
HETATM   15  N6  UNL     1      -7.746  -7.184  -7.590  1.00  0.00    -0.022 N
ATOM     16  H6  UNL     1      -7.565  -7.010  -6.602  1.00  0.00     0.203 HD
BRANCH  10  17
HETATM   17  N3  UNL     1      -8.462  -7.862 -11.410  1.00  0.00    -0.229 N
HETATM   18  C8  UNL     1      -9.658  -8.459 -11.919  1.00  0.00     0.165 C
ATOM     19  H3  UNL     1      -7.742  -7.594 -12.081  1.00  0.00     0.177 HD
ENDBRANCH  10  17
BRANCH  13  20
HETATM   20  N5  UNL     1      -9.878  -7.845  -7.080  1.00  0.00    -0.225 N
ATOM     21  H5  UNL     1      -9.848  -7.317  -6.208  1.00  0.00     0.177 HD
BRANCH  20  22
HETATM   22  C10 UNL     1     -10.954  -8.767  -7.253  1.00  0.00     0.133 C
HETATM   23  C11 UNL     1     -10.628 -10.022  -6.459  1.00  0.00     0.027 C
ENDBRANCH  20  22
ENDBRANCH  13  20
ENDBRANCH   6   8
ENDBRANCH   5   6
ENDBRANCH   4   5
ENDBRANCH   3   4
TORSDOF 7
ENDMDL