MODEL 4
REMARK VINA RESULT: -5.852221832      2.961      4.689
REMARK  6 active torsions:
REMARK  status: ('A' for Active; 'I' for Inactive)
REMARK    1  A    between atoms: C2_2  and  C3_3
REMARK    2  A    between atoms: C2_2  and  N2_11
REMARK    3  A    between atoms: C9_13  and  C10_14
REMARK    4  A    between atoms: C10_14  and  O1_15
REMARK    5  A    between atoms: C11_17  and  C12_18
REMARK    6  A    between atoms: C12_18  and  O2_19
ROOT
HETATM    1  N2  UNL     1      -2.440  -5.292  -5.093  1.00  0.00     0.100 N
HETATM    2  C8  UNL     1      -1.902  -5.604  -3.818  1.00  0.00     0.282 C
HETATM    3  C9  UNL     1      -0.889  -4.520  -3.940  1.00  0.00     0.073 C
HETATM    4  C11 UNL     1      -1.625  -4.073  -5.160  1.00  0.00     0.254 C
ENDROOT
BRANCH   1   5
HETATM    5  C2  UNL     1      -2.119  -6.145  -6.206  1.00  0.00     0.223 C
HETATM    6  C1  UNL     1      -1.366  -5.285  -7.212  1.00  0.00     0.043 C
BRANCH   5   7
HETATM    7  C3  UNL     1      -3.316  -6.807  -6.816  1.00  0.00     0.022 C
HETATM    8  C4  UNL     1      -4.615  -6.117  -6.521  1.00  0.00     0.034 C
HETATM    9  C5  UNL     1      -5.649  -6.730  -7.476  1.00  0.00     0.232 C
HETATM   10  N1  UNL     1      -5.406  -6.346  -8.834  1.00  0.00    -0.075 N
HETATM   11  C6  UNL     1      -4.044  -5.823  -8.979  1.00  0.00     0.232 C
ATOM     12  H12 UNL     1      -5.590  -7.110  -9.485  1.00  0.00     0.277 HD
ATOM     13  H11 UNL     1      -6.105  -5.686  -9.173  1.00  0.00     0.277 HD
HETATM   14  C7  UNL     1      -3.103  -6.820  -8.333  1.00  0.00     0.034 C
ENDBRANCH   5   7
ENDBRANCH   1   5
BRANCH   4  15
HETATM   15  C12 UNL     1      -2.468  -2.844  -5.030  1.00  0.00     0.200 C
BRANCH  15  16
HETATM   16  O2  UNL     1      -1.860  -1.815  -5.781  1.00  0.00    -0.399 OA
ATOM     17  H2  UNL     1      -1.847  -1.029  -5.247  1.00  0.00     0.209 HD
ENDBRANCH  15  16
ENDBRANCH   4  15
BRANCH   3  18
HETATM   18  C10 UNL     1      -0.925  -3.588  -2.757  1.00  0.00     0.172 C
BRANCH  18  19
HETATM   19  O1  UNL     1       0.144  -2.711  -2.712  1.00  0.00    -0.400 OA
ATOM     20  H1  UNL     1      -0.106  -1.802  -2.833  1.00  0.00     0.209 HD
ENDBRANCH  18  19
ENDBRANCH   3  18
TORSDOF 6
ENDMDL