MODEL 4
REMARK VINA RESULT: -6.363434943      1.316      1.471
REMARK  7 active torsions:
REMARK  status: ('A' for Active; 'I' for Inactive)
REMARK    1  A    between atoms: C3_3  and  O1_4
REMARK    2  A    between atoms: C4_6  and  O2_7
REMARK    3  A    between atoms: C5_9  and  C6_10
REMARK    4  A    between atoms: C6_10  and  O3_11
REMARK    5  A    between atoms: N1_14  and  C8_15
REMARK    6  A    between atoms: C8_15  and  C9_16
REMARK    7  A    between atoms: C9_16  and  C10_17
ROOT
HETATM    1  C1  UNL     1      -3.123  -6.939  -8.867  1.00  0.00     0.045 C
HETATM    2  C2  UNL     1      -3.348  -5.703  -8.080  1.00  0.00     0.250 C
HETATM    3  C3  UNL     1      -2.100  -5.095  -7.545  1.00  0.00     0.180 C
HETATM    4  C4  UNL     1      -1.442  -6.088  -6.608  1.00  0.00     0.156 C
HETATM    5  C5  UNL     1      -2.502  -6.710  -5.726  1.00  0.00     0.069 C
HETATM    6  C7  UNL     1      -3.774  -5.913  -5.733  1.00  0.00     0.282 C
HETATM    7  N1  UNL     1      -4.355  -5.770  -7.044  1.00  0.00     0.096 N
ENDROOT
BRANCH   7   8
HETATM    8  C8  UNL     1      -5.348  -6.783  -7.296  1.00  0.00     0.273 C
BRANCH   8   9
HETATM    9  C9  UNL     1      -6.308  -6.444  -8.381  1.00  0.00     0.034 C
BRANCH   9  10
HETATM   10  C10 UNL     1      -6.980  -7.654  -8.981  1.00  0.00    -0.013 A
HETATM   11  C11 UNL     1      -8.387  -7.582  -9.461  1.00  0.00     0.005 A
HETATM   12  C12 UNL     1      -7.200  -7.874 -10.401  1.00  0.00     0.005 A
ENDBRANCH   9  10
ENDBRANCH   8   9
ENDBRANCH   7   8
BRANCH   3  13
HETATM   13  O1  UNL     1      -1.204  -4.662  -8.511  1.00  0.00    -0.391 OA
ATOM     14  H1  UNL     1      -1.578  -4.098  -9.178  1.00  0.00     0.210 HD
ENDBRANCH   3  13
BRANCH   5  15
HETATM   15  C6  UNL     1      -1.989  -6.727  -4.304  1.00  0.00     0.173 C
BRANCH  15  16
HETATM   16  O3  UNL     1      -2.411  -5.582  -3.613  1.00  0.00    -0.400 OA
ATOM     17  H3  UNL     1      -1.672  -5.023  -3.408  1.00  0.00     0.209 HD
ENDBRANCH  15  16
ENDBRANCH   5  15
BRANCH   4  18
HETATM   18  O2  UNL     1      -0.493  -5.400  -5.850  1.00  0.00    -0.392 OA
ATOM     19  H2  UNL     1      -0.322  -5.907  -5.065  1.00  0.00     0.210 HD
ENDBRANCH   4  18
TORSDOF 7
ENDMDL