MODEL 3
REMARK VINA RESULT: -6.090236659      1.272      1.465
REMARK  7 active torsions:
REMARK  status: ('A' for Active; 'I' for Inactive)
REMARK    1  A    between atoms: C2_2  and  C3_3
REMARK    2  A    between atoms: C3_3  and  C4_4
REMARK    3  A    between atoms: C4_4  and  C5_5
REMARK    4  A    between atoms: C5_5  and  O1_6
REMARK    5  A    between atoms: C5_5  and  C6_8
REMARK    6  A    between atoms: C9_11  and  N1_12
REMARK    7  A    between atoms: C12_19  and  O2_20
ROOT
HETATM    1  C6  UNL     1      -2.176  -6.594  -6.065  1.00  0.00     0.076 C
HETATM    2  C7  UNL     1      -2.946  -6.380  -4.788  1.00  0.00     0.050 C
HETATM    3  C8  UNL     1      -1.856  -6.350  -3.764  1.00  0.00     0.259 C
HETATM    4  C9  UNL     1      -1.830  -5.217  -2.785  1.00  0.00     0.249 C
HETATM    5  C10 UNL     1      -1.251  -4.445  -3.958  1.00  0.00     0.255 C
HETATM    6  C11 UNL     1      -0.179  -3.459  -3.640  1.00  0.00     0.045 C
HETATM    7  N2  UNL     1      -0.723  -5.703  -4.425  1.00  0.00     0.130 N
HETATM    8  C12 UNL     1      -0.815  -6.019  -5.809  1.00  0.00     0.364 C
ENDROOT
BRANCH   1   9
HETATM    9  C5  UNL     1      -2.764  -5.986  -7.283  1.00  0.00     0.126 C
BRANCH   9  10
HETATM   10  C4  UNL     1      -3.903  -6.756  -7.915  1.00  0.00     0.036 C
BRANCH  10  11
HETATM   11  C3  UNL     1      -4.396  -6.099  -9.159  1.00  0.00     0.029 C
BRANCH  11  12
HETATM   12  C2  UNL     1      -5.627  -6.836  -9.658  1.00  0.00    -0.037 C
HETATM   13  C1  UNL     1      -6.725  -6.917  -8.974  1.00  0.00     0.007 C
ENDBRANCH  11  12
ENDBRANCH  10  11
ENDBRANCH   9  10
BRANCH   9  14
HETATM   14  O1  UNL     1      -3.195  -4.675  -7.156  1.00  0.00    -0.395 OA
ATOM     15  H1  UNL     1      -2.451  -4.173  -6.844  1.00  0.00     0.210 HD
ENDBRANCH   9  14
ENDBRANCH   1   9
BRANCH   8  16
HETATM   16  O2  UNL     1      -0.465  -5.021  -6.681  1.00  0.00    -0.367 OA
ATOM     17  H2  UNL     1      -1.002  -4.994  -7.464  1.00  0.00     0.212 HD
ENDBRANCH   8  16
BRANCH   4  18
HETATM   18  N1  UNL     1      -3.073  -4.761  -2.266  1.00  0.00    -0.071 N
ATOM     19  H13 UNL     1      -3.785  -4.830  -2.993  1.00  0.00     0.274 HD
ATOM     20  H12 UNL     1      -3.423  -5.439  -1.589  1.00  0.00     0.274 HD
ATOM     21  H11 UNL     1      -3.102  -3.829  -1.854  1.00  0.00     0.274 HD
ENDBRANCH   4  18
TORSDOF 7
ENDMDL