MODEL 1
REMARK VINA RESULT: -7.369365948      0.000      0.000
REMARK  7 active torsions:
REMARK  status: ('A' for Active; 'I' for Inactive)
REMARK    1  A    between atoms: C3_3  and  C4_4
REMARK    2  A    between atoms: C5_5  and  C6_6
REMARK    3  A    between atoms: C6_6  and  N1_7
REMARK    4  A    between atoms: C8_9  and  O1_10
REMARK    5  A    between atoms: C9_12  and  O2_13
REMARK    6  A    between atoms: C10_15  and  C11_16
REMARK    7  A    between atoms: C11_16  and  O3_17
ROOT
HETATM    1  N1  UNL     1      -3.459  -6.289  -6.343  1.00  0.00    -0.387 N
HETATM    2  C7  UNL     1      -2.749  -7.201  -5.560  1.00  0.00     0.156 C
HETATM    3  C8  UNL     1      -1.260  -6.817  -5.608  1.00  0.00     0.165 C
HETATM    4  C9  UNL     1      -1.231  -5.438  -4.977  1.00  0.00     0.156 C
HETATM    5  C10 UNL     1      -1.808  -4.481  -5.996  1.00  0.00     0.058 C
HETATM    6  C12 UNL     1      -2.809  -5.160  -6.896  1.00  0.00     0.131 C
ENDROOT
BRANCH   1   7
HETATM    7  C6  UNL     1      -4.855  -6.267  -6.273  1.00  0.00     0.085 C
BRANCH   7   8
HETATM    8  C5  UNL     1      -5.566  -6.606  -7.493  1.00  0.00     0.017 C
HETATM    9  C4  UNL     1      -5.110  -6.542  -8.720  1.00  0.00     0.001 C
BRANCH   9  10
HETATM   10  C3  UNL     1      -5.930  -6.918  -9.873  1.00  0.00    -0.004 C
HETATM   11  C2  UNL     1      -7.025  -7.593  -9.703  1.00  0.00    -0.031 C
HETATM   12  C1  UNL     1      -7.920  -8.019 -10.807  1.00  0.00     0.036 C
ENDBRANCH   9  10
ENDBRANCH   7   8
ENDBRANCH   1   7
BRANCH   3  13
HETATM   13  O1  UNL     1      -0.468  -7.738  -4.961  1.00  0.00    -0.391 OA
ATOM     14  H1  UNL     1      -0.401  -7.562  -4.030  1.00  0.00     0.210 HD
ENDBRANCH   3  13
BRANCH   5  15
HETATM   15  C11 UNL     1      -2.408  -3.250  -5.373  1.00  0.00     0.173 C
BRANCH  15  16
HETATM   16  O3  UNL     1      -3.450  -3.576  -4.503  1.00  0.00    -0.400 OA
ATOM     17  H3  UNL     1      -3.255  -3.306  -3.613  1.00  0.00     0.209 HD
ENDBRANCH  15  16
ENDBRANCH   5  15
BRANCH   4  18
HETATM   18  O2  UNL     1       0.044  -5.158  -4.576  1.00  0.00    -0.392 OA
ATOM     19  H2  UNL     1       0.048  -5.006  -3.638  1.00  0.00     0.210 HD
ENDBRANCH   4  18
TORSDOF 7
ENDMDL