MODEL 3
REMARK VINA RESULT: -6.181193964      2.522      4.681
REMARK  7 active torsions:
REMARK  status: ('A' for Active; 'I' for Inactive)
REMARK    1  A    between atoms: C2_2  and  C3_3
REMARK    2  A    between atoms: C3_3  and  C4_4
REMARK    3  A    between atoms: C4_4  and  C5_5
REMARK    4  A    between atoms: C9_10  and  O1_11
REMARK    5  A    between atoms: C10_13  and  O2_14
REMARK    6  A    between atoms: C11_16  and  C12_17
REMARK    7  A    between atoms: C12_17  and  O3_18
ROOT
HETATM    1  C5  UNL     1      -2.578  -5.212  -6.250  1.00  0.00     0.169 C
HETATM    2  C6  UNL     1      -1.099  -5.568  -6.478  1.00  0.00     0.072 C
HETATM    3  C7  UNL     1      -1.499  -5.647  -7.923  1.00  0.00     0.276 C
HETATM    4  N1  UNL     1      -2.655  -4.842  -7.597  1.00  0.00     0.101 N
HETATM    5  C8  UNL     1      -3.783  -5.217  -8.350  1.00  0.00     0.307 C
HETATM    6  C9  UNL     1      -4.260  -6.625  -8.107  1.00  0.00     0.175 C
HETATM    7  C10 UNL     1      -4.503  -6.794  -6.636  1.00  0.00     0.157 C
HETATM    8  C11 UNL     1      -3.378  -6.339  -5.764  1.00  0.00     0.079 C
ENDROOT
BRANCH   1   9
HETATM    9  C4  UNL     1      -2.579  -3.966  -5.351  1.00  0.00     0.046 C
BRANCH   9  10
HETATM   10  C3  UNL     1      -3.332  -4.166  -4.087  1.00  0.00     0.029 C
BRANCH  10  11
HETATM   11  C2  UNL     1      -2.365  -4.113  -2.937  1.00  0.00    -0.037 C
HETATM   12  C1  UNL     1      -1.641  -5.151  -2.630  1.00  0.00     0.007 C
ENDBRANCH  10  11
ENDBRANCH   9  10
ENDBRANCH   1   9
BRANCH   8  13
HETATM   13  C12 UNL     1      -2.550  -7.592  -5.430  1.00  0.00     0.174 C
BRANCH  13  14
HETATM   14  O3  UNL     1      -3.163  -8.128  -4.282  1.00  0.00    -0.400 OA
ATOM     15  H3  UNL     1      -3.560  -8.938  -4.578  1.00  0.00     0.209 HD
ENDBRANCH  13  14
ENDBRANCH   8  13
BRANCH   7  16
HETATM   16  O2  UNL     1      -5.691  -6.136  -6.331  1.00  0.00    -0.392 OA
ATOM     17  H2  UNL     1      -5.483  -5.218  -6.204  1.00  0.00     0.210 HD
ENDBRANCH   7  16
BRANCH   6  18
HETATM   18  O1  UNL     1      -5.486  -6.770  -8.766  1.00  0.00    -0.391 OA
ATOM     19  H1  UNL     1      -6.171  -6.583  -8.135  1.00  0.00     0.210 HD
ENDBRANCH   6  18
TORSDOF 7
ENDMDL