MODEL 2
REMARK VINA RESULT: -6.923903009      2.093      3.287
REMARK  7 active torsions:
REMARK  status: ('A' for Active; 'I' for Inactive)
REMARK    1  A    between atoms: C4_4  and  C5_5
REMARK    2  A    between atoms: C5_5  and  C6_6
REMARK    3  A    between atoms: C6_6  and  C7_7
REMARK    4  A    between atoms: C8_9  and  C9_10
REMARK    5  A    between atoms: C9_10  and  O2_11
REMARK    6  A    between atoms: C10_13  and  O3_14
REMARK    7  A    between atoms: C12_17  and  O4_18
ROOT
HETATM    1  C1  UNL     1      -7.764  -8.218 -10.979  1.00  0.00     0.017 C
HETATM    2  C2  UNL     1      -7.556  -7.874  -9.844  1.00  0.00    -0.090 C
HETATM    3  C3  UNL     1      -7.320  -7.484  -8.497  1.00  0.00     0.059 C
HETATM    4  C4  UNL     1      -6.198  -6.898  -8.133  1.00  0.00    -0.018 C
ENDROOT
BRANCH   4   5
HETATM    5  C5  UNL     1      -5.964  -6.492  -6.706  1.00  0.00     0.030 C
BRANCH   5   6
HETATM    6  C6  UNL     1      -4.484  -6.486  -6.485  1.00  0.00     0.038 C
BRANCH   6   7
HETATM    7  C7  UNL     1      -3.710  -5.435  -7.182  1.00  0.00     0.151 C
HETATM    8  O1  UNL     1      -3.452  -4.437  -6.237  1.00  0.00    -0.373 OA
HETATM    9  C8  UNL     1      -2.114  -4.117  -6.135  1.00  0.00     0.174 C
HETATM   10  C10 UNL     1      -1.346  -5.380  -5.828  1.00  0.00     0.151 C
HETATM   11  C11 UNL     1      -1.332  -6.190  -7.132  1.00  0.00     0.068 C
HETATM   12  C12 UNL     1      -2.532  -5.821  -7.970  1.00  0.00     0.149 C
BRANCH   9  13
HETATM   13  C9  UNL     1      -1.958  -3.109  -4.996  1.00  0.00     0.198 C
BRANCH  13  14
HETATM   14  O2  UNL     1      -1.911  -1.812  -5.518  1.00  0.00    -0.398 OA
ATOM     15  H2  UNL     1      -2.697  -1.642  -6.024  1.00  0.00     0.209 HD
ENDBRANCH  13  14
ENDBRANCH   9  13
BRANCH  10  16
HETATM   16  O3  UNL     1      -0.041  -5.095  -5.425  1.00  0.00    -0.393 OA
ATOM     17  H3  UNL     1       0.404  -5.876  -5.118  1.00  0.00     0.210 HD
ENDBRANCH  10  16
BRANCH  12  18
HETATM   18  O4  UNL     1      -2.843  -6.758  -8.929  1.00  0.00    -0.393 OA
ATOM     19  H4  UNL     1      -2.111  -7.338  -9.106  1.00  0.00     0.210 HD
ENDBRANCH  12  18
ENDBRANCH   6   7
ENDBRANCH   5   6
ENDBRANCH   4   5
TORSDOF 7
ENDMDL