MODEL 3
REMARK VINA RESULT: -7.110277007      0.952      1.058
REMARK  2 active torsions:
REMARK  status: ('A' for Active; 'I' for Inactive)
REMARK    1  A    between atoms: C1_4  and  C2_5
REMARK    2  A    between atoms: C1_4  and  C8_11
ROOT
HETATM    1  N1  UNL     1      33.656   2.094  35.243  1.00  0.00    -0.405 N
ATOM      2  H11 UNL     1      33.032   1.948  36.037  1.00  0.00     0.155 HD
ATOM      3  H12 UNL     1      33.654   2.960  34.706  1.00  0.00     0.155 HD
HETATM    4  C1  UNL     1      34.457   1.157  34.922  1.00  0.00    -0.012 C
ENDROOT
BRANCH   4   5
HETATM    5  C2  UNL     1      35.361   1.367  33.771  1.00  0.00     0.031 C
HETATM    6  C3  UNL     1      36.796   1.333  34.196  1.00  0.00     0.010 C
HETATM    7  C4  UNL     1      37.722   0.612  33.298  1.00  0.00     0.001 C
HETATM    8  C5  UNL     1      37.357   0.484  31.880  1.00  0.00     0.000 C
HETATM    9  C6  UNL     1      35.939   0.742  31.523  1.00  0.00     0.001 C
HETATM   10  C7  UNL     1      35.082   0.351  32.721  1.00  0.00     0.010 C
ENDBRANCH   4   5
BRANCH   4  11
HETATM   11  C8  UNL     1      34.459  -0.085  35.693  1.00  0.00     0.031 C
HETATM   12  C9  UNL     1      33.067  -0.565  36.045  1.00  0.00     0.010 C
HETATM   13  C10 UNL     1      33.350  -1.621  37.090  1.00  0.00     0.001 C
HETATM   14  C11 UNL     1      34.707  -1.296  37.676  1.00  0.00     0.001 C
HETATM   15  C12 UNL     1      35.051   0.081  37.091  1.00  0.00     0.010 C
ENDBRANCH   4  11
TORSDOF 2
ENDMDL