MODEL 4
REMARK VINA RESULT: -6.871871561      1.176      1.981
REMARK  2 active torsions:
REMARK  status: ('A' for Active; 'I' for Inactive)
REMARK    1  A    between atoms: C5_5  and  N1_6
REMARK    2  A    between atoms: N1_6  and  C6_8
ROOT
HETATM    1  C1  UNL     1      36.315   1.628  32.666  1.00  0.00     0.038 C
HETATM    2  C2  UNL     1      37.669   0.980  33.130  1.00  0.00     0.083 C
HETATM    3  C3  UNL     1      37.328  -0.213  33.773  1.00  0.00    -0.181 C
HETATM    4  C4  UNL     1      36.917  -1.381  34.440  1.00  0.00     0.108 C
HETATM    5  C5  UNL     1      35.357  -1.366  34.417  1.00  0.00     0.110 C
HETATM    6  C11 UNL     1      34.806  -0.348  33.436  1.00  0.00    -0.005 C
HETATM    7  C12 UNL     1      35.133   1.045  33.448  1.00  0.00    -0.028 C
ENDROOT
BRANCH   5   8
HETATM    8  N1  UNL     1      34.783  -1.197  35.696  1.00  0.00    -0.409 N
ATOM      9  H1  UNL     1      35.327  -1.363  36.543  1.00  0.00     0.154 HD
BRANCH   8  10
HETATM   10  C6  UNL     1      33.424  -0.790  35.763  1.00  0.00     0.077 C
HETATM   11  C7  UNL     1      32.467  -1.973  35.764  1.00  0.00     0.024 C
HETATM   12  C8  UNL     1      31.162  -1.366  36.245  1.00  0.00     0.002 C
HETATM   13  C9  UNL     1      31.644  -0.493  37.382  1.00  0.00     0.002 C
HETATM   14  C10 UNL     1      33.061  -0.100  37.054  1.00  0.00     0.024 C
ENDBRANCH   8  10
ENDBRANCH   5   8
TORSDOF 2
ENDMDL