MODEL 3
REMARK VINA RESULT: -6.907790860      1.678      4.758
REMARK  1 active torsions:
REMARK  status: ('A' for Active; 'I' for Inactive)
REMARK    1  A    between atoms: C4_4  and  C5_5
ROOT
HETATM    1  C5  UNL     1      34.898  -0.844  36.133  1.00  0.00     0.015 C
HETATM    2  C6  UNL     1      33.753  -1.383  35.324  1.00  0.00     0.008 C
HETATM    3  C7  UNL     1      32.488  -1.553  36.094  1.00  0.00     0.028 C
HETATM    4  C8  UNL     1      32.493  -0.772  37.404  1.00  0.00     0.232 C
HETATM    5  N1  UNL     1      33.087   0.533  37.070  1.00  0.00    -0.075 N
ATOM      6  H11 UNL     1      32.815   1.278  37.712  1.00  0.00     0.277 HD
ATOM      7  H12 UNL     1      32.700   0.950  36.223  1.00  0.00     0.277 HD
HETATM    8  C9  UNL     1      34.510   0.323  37.007  1.00  0.00     0.237 C
ENDROOT
BRANCH   1   9
HETATM    9  C4  UNL     1      35.986  -0.361  35.206  1.00  0.00    -0.009 C
HETATM   10  C3  UNL     1      36.355   1.075  35.420  1.00  0.00     0.005 C
HETATM   11  C2  UNL     1      37.671   1.313  34.670  1.00  0.00     0.000 C
HETATM   12  C1  UNL     1      37.431   1.008  33.227  1.00  0.00     0.000 C
HETATM   13  C11 UNL     1      35.972   0.680  32.953  1.00  0.00     0.000 C
HETATM   14  C10 UNL     1      35.557  -0.512  33.758  1.00  0.00     0.005 C
ENDBRANCH   1   9
TORSDOF 1
ENDMDL