MODEL 2
REMARK VINA RESULT: -7.318178712      2.347      4.590
REMARK  2 active torsions:
REMARK  status: ('A' for Active; 'I' for Inactive)
REMARK    1  A    between atoms: C2_2  and  C3_3
REMARK    2  A    between atoms: C3_3  and  C4_4
ROOT
HETATM    1  C4  UNL     1      33.506  -0.676  36.393  1.00  0.00     0.020 C
HETATM    2  C5  UNL     1      34.865  -0.793  37.053  1.00  0.00    -0.006 C
HETATM    3  C6  UNL     1      35.891  -1.236  36.036  1.00  0.00     0.010 C
HETATM    4  C7  UNL     1      35.899  -0.240  34.898  1.00  0.00    -0.010 C
HETATM    5  C8  UNL     1      36.402   1.078  35.470  1.00  0.00     0.037 C
HETATM    6  C9  UNL     1      35.410   1.523  36.505  1.00  0.00     0.187 C
HETATM    7  C10 UNL     1      35.314   0.509  37.633  1.00  0.00     0.038 C
HETATM    8  N1  UNL     1      34.066   1.669  35.974  1.00  0.00    -0.066 N
ATOM      9  H11 UNL     1      34.005   2.448  35.318  1.00  0.00     0.278 HD
ATOM     10  H12 UNL     1      33.418   2.011  36.683  1.00  0.00     0.278 HD
HETATM   11  C11 UNL     1      33.597   0.423  35.372  1.00  0.00     0.191 C
HETATM   12  C12 UNL     1      34.553  -0.038  34.289  1.00  0.00     0.038 C
ENDROOT
BRANCH   1  13
HETATM   13  C3  UNL     1      32.417  -0.513  37.395  1.00  0.00     0.007 C
BRANCH  13  14
HETATM   14  C2  UNL     1      31.068  -0.692  36.763  1.00  0.00    -0.004 C
HETATM   15  C1  UNL     1      31.002  -1.935  35.902  1.00  0.00     0.005 C
ENDBRANCH  13  14
ENDBRANCH   1  13
TORSDOF 2
ENDMDL