MODEL 4
REMARK VINA RESULT: -5.814250179      2.430      4.542
REMARK  3 active torsions:
REMARK  status: ('A' for Active; 'I' for Inactive)
REMARK    1  A    between atoms: C2_2  and  N1_3
REMARK    2  A    between atoms: N1_3  and  C3_5
REMARK    3  A    between atoms: C3_5  and  C4_7
ROOT
HETATM    1  C4  UNL     1      36.213  -0.117  35.560  1.00  0.00     0.047 C
HETATM    2  C5  UNL     1      35.998   1.331  35.762  1.00  0.00     0.011 C
HETATM    3  C6  UNL     1      34.711   1.755  36.371  1.00  0.00     0.001 C
HETATM    4  C7  UNL     1      34.124   0.836  37.392  1.00  0.00     0.000 C
HETATM    5  C8  UNL     1      35.178  -0.185  37.756  1.00  0.00     0.001 C
HETATM    6  C9  UNL     1      35.393  -0.998  36.470  1.00  0.00     0.011 C
ENDROOT
BRANCH   1   7
HETATM    7  C3  UNL     1      36.080  -0.609  34.178  1.00  0.00     0.081 C
HETATM    8  S1  UNL     1      34.653  -1.213  33.624  1.00  0.00    -0.065 SA
BRANCH   7   9
HETATM    9  N1  UNL     1      37.185  -0.573  33.288  1.00  0.00    -0.361 N
ATOM     10  H1  UNL     1      37.808  -1.376  33.203  1.00  0.00     0.165 HD
BRANCH   9  11
HETATM   11  C2  UNL     1      37.410   0.602  32.517  1.00  0.00     0.078 C
HETATM   12  C1  UNL     1      36.793   0.750  31.362  1.00  0.00     0.029 C
ENDBRANCH   9  11
ENDBRANCH   7   9
ENDBRANCH   1   7
TORSDOF 3
ENDMDL