MODEL 1
REMARK VINA RESULT: -6.919709195      0.000      0.000
REMARK  3 active torsions:
REMARK  status: ('A' for Active; 'I' for Inactive)
REMARK    1  A    between atoms: C2_2  and  C4_4
REMARK    2  A    between atoms: C4_4  and  C5_6
REMARK    3  A    between atoms: C6_7  and  C7_8
ROOT
HETATM    1  C5  UNL     1      33.354   0.481  34.606  1.00  0.00     0.051 C
HETATM    2  C6  UNL     1      34.173  -0.386  33.997  1.00  0.00    -0.018 C
ENDROOT
BRANCH   2   3
HETATM    3  C7  UNL     1      35.473   0.053  33.524  1.00  0.00     0.008 C
HETATM    4  C8  UNL     1      36.188   0.957  34.525  1.00  0.00     0.008 C
HETATM    5  C9  UNL     1      37.485   1.450  33.946  1.00  0.00     0.001 C
HETATM    6  C10 UNL     1      37.862   0.680  32.713  1.00  0.00     0.000 C
HETATM    7  C11 UNL     1      36.836   0.742  31.631  1.00  0.00     0.001 C
HETATM    8  C12 UNL     1      35.446   0.814  32.218  1.00  0.00     0.008 C
ENDBRANCH   2   3
BRANCH   1   9
HETATM    9  C4  UNL     1      32.055   0.086  35.091  1.00  0.00     0.176 C
HETATM   10  O1  UNL     1      31.005   0.621  34.593  1.00  0.00    -0.288 OA
BRANCH   9  11
HETATM   11  C2  UNL     1      31.894  -0.897  36.124  1.00  0.00    -0.021 C
HETATM   12  C1  UNL     1      31.185  -1.983  35.944  1.00  0.00     0.022 C
HETATM   13  C3  UNL     1      32.571  -0.645  37.443  1.00  0.00     0.051 C
ENDBRANCH   9  11
ENDBRANCH   1   9
TORSDOF 3
ENDMDL