MODEL 1
REMARK VINA RESULT: -7.337556255      0.000      0.000
REMARK  2 active torsions:
REMARK  status: ('A' for Active; 'I' for Inactive)
REMARK    1  A    between atoms: C4_4  and  N1_5
REMARK    2  A    between atoms: N1_5  and  C5_8
ROOT
HETATM    1  N1  UNL     1      36.009  -1.741  35.100  1.00  0.00    -0.067 N
ATOM      2  H11 UNL     1      35.583  -2.469  34.526  1.00  0.00     0.278 HD
ATOM      3  H12 UNL     1      36.478  -2.323  35.794  1.00  0.00     0.278 HD
ENDROOT
BRANCH   1   4
HETATM    4  C4  UNL     1      34.991  -0.923  35.724  1.00  0.00     0.186 C
HETATM    5  C3  UNL     1      34.889  -1.196  37.163  1.00  0.00     0.033 C
HETATM    6  C2  UNL     1      33.550  -1.102  37.790  1.00  0.00     0.002 C
HETATM    7  C1  UNL     1      32.371  -1.030  36.895  1.00  0.00     0.000 C
HETATM    8  C12 UNL     1      32.633  -0.399  35.559  1.00  0.00     0.002 C
HETATM    9  C11 UNL     1      33.721  -1.228  34.931  1.00  0.00     0.033 C
ENDBRANCH   1   4
BRANCH   1  10
HETATM   10  C5  UNL     1      36.964  -0.993  34.341  1.00  0.00     0.186 C
HETATM   11  C6  UNL     1      36.401  -0.361  33.108  1.00  0.00     0.033 C
HETATM   12  C7  UNL     1      37.494   0.575  32.570  1.00  0.00     0.002 C
HETATM   13  C8  UNL     1      37.595   1.731  33.521  1.00  0.00     0.000 C
HETATM   14  C9  UNL     1      37.555   1.355  34.972  1.00  0.00     0.002 C
HETATM   15  C10 UNL     1      37.805  -0.114  35.197  1.00  0.00     0.033 C
ENDBRANCH   1  10
TORSDOF 2
ENDMDL