MODEL 1
REMARK VINA RESULT: -6.452164954      0.000      0.000
REMARK  2 active torsions:
REMARK  status: ('A' for Active; 'I' for Inactive)
REMARK    1  A    between atoms: C2_2  and  C3_3
REMARK    2  A    between atoms: C3_3  and  C4_4
ROOT
HETATM    1  C4  UNL     1      35.254   0.564  35.403  1.00  0.00     0.026 C
HETATM    2  S1  UNL     1      33.946   1.746  35.012  1.00  0.00    -0.086 SA
HETATM    3  C5  UNL     1      36.540   1.118  34.828  1.00  0.00     0.005 C
HETATM    4  C6  UNL     1      37.705   0.196  35.003  1.00  0.00     0.006 C
HETATM    5  C7  UNL     1      37.474  -1.155  34.374  1.00  0.00     0.001 C
HETATM    6  C8  UNL     1      36.088  -1.681  34.665  1.00  0.00     0.006 C
HETATM    7  C9  UNL     1      35.047  -0.626  34.482  1.00  0.00     0.005 C
HETATM    8  C10 UNL     1      35.209   0.043  33.133  1.00  0.00     0.007 C
HETATM    9  C11 UNL     1      36.183   1.188  33.357  1.00  0.00     0.007 C
ENDROOT
BRANCH   1  10
HETATM   10  C3  UNL     1      35.357   0.188  36.829  1.00  0.00     0.021 C
BRANCH  10  11
HETATM   11  C2  UNL     1      34.023  -0.034  37.484  1.00  0.00    -0.003 C
HETATM   12  C1  UNL     1      33.583  -1.450  37.606  1.00  0.00     0.005 C
ENDBRANCH  10  11
ENDBRANCH   1  10
TORSDOF 2
ENDMDL