MODEL 4
REMARK VINA RESULT: -6.291445651      2.366      3.668
REMARK  1 active torsions:
REMARK  status: ('A' for Active; 'I' for Inactive)
REMARK    1  A    between atoms: C9_9  and  C10_10
ROOT
HETATM    1  C1  UNL     1      36.279  -1.750  34.569  1.00  0.00     0.010 C
HETATM    2  C2  UNL     1      35.044  -1.141  35.251  1.00  0.00    -0.014 C
HETATM    3  C3  UNL     1      35.511  -0.686  36.610  1.00  0.00     0.005 C
HETATM    4  C4  UNL     1      34.758  -1.308  37.743  1.00  0.00     0.000 C
HETATM    5  C5  UNL     1      33.304  -1.517  37.484  1.00  0.00     0.000 C
HETATM    6  C6  UNL     1      32.715  -0.235  36.971  1.00  0.00     0.000 C
HETATM    7  C7  UNL     1      32.349  -0.440  35.529  1.00  0.00     0.000 C
HETATM    8  C8  UNL     1      33.153   0.387  34.581  1.00  0.00     0.006 C
HETATM    9  C9  UNL     1      34.560  -0.011  34.397  1.00  0.00    -0.001 C
ENDROOT
BRANCH   9  10
HETATM   10  C10 UNL     1      34.774  -0.275  32.904  1.00  0.00     0.091 C
HETATM   11  S1  UNL     1      35.800   0.995  32.134  1.00  0.00    -0.097 SA
ENDBRANCH   9  10
TORSDOF 1
ENDMDL