MODEL 3
REMARK VINA RESULT: -7.441813797      1.037      1.075
REMARK  2 active torsions:
REMARK  status: ('A' for Active; 'I' for Inactive)
REMARK    1  A    between atoms: C2_2  and  C3_6
REMARK    2  A    between atoms: C3_6  and  C4_7
ROOT
HETATM    1  C4  UNL     1      33.539  -0.960  36.035  1.00  0.00    -0.001 C
HETATM    2  C5  UNL     1      33.683   0.051  34.976  1.00  0.00    -0.010 C
HETATM    3  C6  UNL     1      34.540  -0.572  33.857  1.00  0.00     0.005 C
HETATM    4  C7  UNL     1      35.494  -1.549  34.463  1.00  0.00     0.001 C
HETATM    5  C8  UNL     1      35.943  -1.213  35.854  1.00  0.00     0.005 C
HETATM    6  C9  UNL     1      34.821  -1.031  36.838  1.00  0.00    -0.010 C
HETATM    7  C10 UNL     1      34.980   0.280  37.534  1.00  0.00     0.005 C
HETATM    8  C11 UNL     1      35.122   1.430  36.569  1.00  0.00     0.001 C
HETATM    9  C12 UNL     1      34.258   1.372  35.387  1.00  0.00     0.005 C
ENDROOT
BRANCH   1  10
HETATM   10  C3  UNL     1      32.314  -0.958  36.857  1.00  0.00     0.056 C
BRANCH  10  11
HETATM   11  C2  UNL     1      31.181  -1.553  36.115  1.00  0.00    -0.024 C
HETATM   12  C1  UNL     1      29.967  -0.694  35.774  1.00  0.00     0.062 C
HETATM   13  N1  UNL     1      31.138  -2.777  35.764  1.00  0.00    -0.406 N
ATOM     14  H12 UNL     1      30.357  -3.187  35.252  1.00  0.00     0.155 HD
ATOM     15  H11 UNL     1      31.950  -3.352  35.992  1.00  0.00     0.155 HD
ENDBRANCH  10  11
ENDBRANCH   1  10
TORSDOF 2
ENDMDL