MODEL 1
REMARK VINA RESULT: -6.359052079      0.000      0.000
REMARK  3 active torsions:
REMARK  status: ('A' for Active; 'I' for Inactive)
REMARK    1  A    between atoms: C2_2  and  C3_3
REMARK    2  A    between atoms: C3_3  and  N1_4
REMARK    3  A    between atoms: C3_3  and  C4_8
ROOT
HETATM    1  C4  UNL     1      34.781  -0.436  34.973  1.00  0.00     0.020 C
HETATM    2  C5  UNL     1      35.045  -0.962  36.382  1.00  0.00     0.007 C
HETATM    3  C6  UNL     1      34.095  -0.204  37.296  1.00  0.00     0.000 C
HETATM    4  C7  UNL     1      32.799  -0.922  37.339  1.00  0.00     0.000 C
HETATM    5  C8  UNL     1      31.812  -0.548  36.301  1.00  0.00     0.000 C
HETATM    6  C9  UNL     1      32.361  -0.188  34.975  1.00  0.00     0.000 C
HETATM    7  C10 UNL     1      33.501  -1.030  34.504  1.00  0.00     0.007 C
ENDROOT
BRANCH   1   8
HETATM    8  C3  UNL     1      35.976  -0.803  34.139  1.00  0.00     0.209 C
BRANCH   8   9
HETATM    9  C2  UNL     1      37.206  -0.111  34.502  1.00  0.00    -0.004 C
HETATM   10  C1  UNL     1      37.295   1.197  34.385  1.00  0.00     0.009 C
ENDBRANCH   8   9
BRANCH   8  11
HETATM   11  N1  UNL     1      35.710  -0.646  32.741  1.00  0.00    -0.071 N
ATOM     12  H13 UNL     1      36.388  -0.030  32.292  1.00  0.00     0.275 HD
ATOM     13  H12 UNL     1      35.910  -1.498  32.219  1.00  0.00     0.275 HD
ATOM     14  H11 UNL     1      34.752  -0.327  32.595  1.00  0.00     0.275 HD
ENDBRANCH   8  11
ENDBRANCH   1   8
TORSDOF 3
ENDMDL