MODEL 2
REMARK VINA RESULT: -6.376644488      2.956      4.495
REMARK  2 active torsions:
REMARK  status: ('A' for Active; 'I' for Inactive)
REMARK    1  A    between atoms: C4_4  and  C5_5
REMARK    2  A    between atoms: C5_5  and  C6_6
ROOT
HETATM    1  C5  UNL     1      34.622  -0.206  33.091  1.00  0.00     0.012 C
ENDROOT
BRANCH   1   2
HETATM    2  C4  UNL     1      34.169  -0.225  34.528  1.00  0.00    -0.014 C
HETATM    3  C3  UNL     1      34.017   1.222  34.982  1.00  0.00     0.005 C
HETATM    4  C2  UNL     1      34.955   1.528  36.134  1.00  0.00     0.000 C
HETATM    5  C1  UNL     1      34.652   0.627  37.293  1.00  0.00     0.000 C
HETATM    6  C10 UNL     1      34.628  -0.802  36.854  1.00  0.00     0.000 C
HETATM    7  C9  UNL     1      35.095  -0.990  35.431  1.00  0.00     0.005 C
ENDBRANCH   1   2
BRANCH   1   8
HETATM    8  C6  UNL     1      35.648   0.837  32.801  1.00  0.00     0.037 C
HETATM    9  C7  UNL     1      35.727   1.090  31.309  1.00  0.00     0.238 C
HETATM   10  N1  UNL     1      36.792   0.116  31.241  1.00  0.00    -0.074 N
HETATM   11  C8  UNL     1      37.059   0.389  32.641  1.00  0.00     0.238 C
ATOM     12  H12 UNL     1      36.614  -0.835  30.917  1.00  0.00     0.277 HD
ATOM     13  H11 UNL     1      37.531   0.194  30.541  1.00  0.00     0.277 HD
ENDBRANCH   1   8
TORSDOF 2
ENDMDL