MODEL 5
REMARK VINA RESULT: -6.119448522      1.109      4.547
REMARK  2 active torsions:
REMARK  status: ('A' for Active; 'I' for Inactive)
REMARK    1  A    between atoms: C4_4  and  N1_5
REMARK    2  A    between atoms: N1_5  and  C5_7
ROOT
HETATM    1  N1  UNL     1      34.689   1.230  35.149  1.00  0.00    -0.413 N
ATOM      2  H1  UNL     1      34.450   2.063  34.612  1.00  0.00     0.154 HD
ENDROOT
BRANCH   1   3
HETATM    3  C4  UNL     1      33.990   0.858  36.333  1.00  0.00     0.077 C
HETATM    4  C3  UNL     1      34.840  -0.115  37.141  1.00  0.00     0.024 C
HETATM    5  C2  UNL     1      33.975  -1.340  37.372  1.00  0.00     0.002 C
HETATM    6  C1  UNL     1      32.562  -0.749  37.240  1.00  0.00     0.002 C
HETATM    7  C10 UNL     1      32.765   0.044  35.949  1.00  0.00     0.024 C
ENDBRANCH   1   3
BRANCH   1   8
HETATM    8  C5  UNL     1      35.749   0.351  34.770  1.00  0.00     0.077 C
HETATM    9  C6  UNL     1      37.053   1.045  34.509  1.00  0.00     0.024 C
HETATM   10  C7  UNL     1      37.279   0.987  33.018  1.00  0.00     0.002 C
HETATM   11  C8  UNL     1      35.884   0.762  32.484  1.00  0.00     0.002 C
HETATM   12  C9  UNL     1      35.352  -0.288  33.441  1.00  0.00     0.024 C
ENDBRANCH   1   8
TORSDOF 2
ENDMDL