MODEL 2
REMARK VINA RESULT: -6.494910845      1.611      4.504
REMARK  2 active torsions:
REMARK  status: ('A' for Active; 'I' for Inactive)
REMARK    1  A    between atoms: C5_5  and  N1_6
REMARK    2  A    between atoms: N1_6  and  C6_8
ROOT
HETATM    1  C1  UNL     1      35.926   1.303  32.265  1.00  0.00     0.000 C
HETATM    2  C2  UNL     1      37.066   0.781  33.069  1.00  0.00     0.000 C
HETATM    3  C3  UNL     1      37.042   1.149  34.520  1.00  0.00     0.002 C
HETATM    4  C4  UNL     1      35.921   0.456  35.273  1.00  0.00     0.024 C
HETATM    5  C5  UNL     1      34.587   0.844  34.700  1.00  0.00     0.077 C
HETATM    6  C9  UNL     1      34.173  -0.004  33.539  1.00  0.00     0.024 C
HETATM    7  C10 UNL     1      34.811   0.302  32.249  1.00  0.00     0.002 C
ENDROOT
BRANCH   5   8
HETATM    8  N1  UNL     1      33.533   0.949  35.602  1.00  0.00    -0.413 N
ATOM      9  H1  UNL     1      32.750   1.552  35.352  1.00  0.00     0.154 HD
BRANCH   8  10
HETATM   10  C6  UNL     1      33.478   0.291  36.814  1.00  0.00     0.077 A
HETATM   11  C7  UNL     1      33.414  -1.128  37.099  1.00  0.00     0.027 A
HETATM   12  C8  UNL     1      32.123  -0.401  37.109  1.00  0.00     0.027 A
ENDBRANCH   8  10
ENDBRANCH   5   8
TORSDOF 2
ENDMDL