MODEL 3
REMARK VINA RESULT: -5.850758708      2.103      3.032
REMARK  3 active torsions:
REMARK  status: ('A' for Active; 'I' for Inactive)
REMARK    1  A    between atoms: C2_2  and  C3_3
REMARK    2  A    between atoms: C7_7  and  C8_8
REMARK    3  A    between atoms: C8_8  and  N1_9
ROOT
HETATM    1  C3  UNL     1      35.879   0.775  32.422  1.00  0.00     0.008 C
HETATM    2  C4  UNL     1      37.230   1.096  32.968  1.00  0.00     0.008 C
HETATM    3  C5  UNL     1      37.315   1.120  34.454  1.00  0.00     0.001 C
HETATM    4  C6  UNL     1      36.256   0.381  35.170  1.00  0.00     0.006 C
HETATM    5  C7  UNL     1      34.870   0.560  34.664  1.00  0.00     0.011 C
HETATM    6  C9  UNL     1      34.784   1.272  33.340  1.00  0.00     0.014 C
ENDROOT
BRANCH   5   7
HETATM    7  C8  UNL     1      33.964   1.234  35.678  1.00  0.00     0.234 C
BRANCH   7   8
HETATM    8  N1  UNL     1      34.795   1.690  36.788  1.00  0.00    -0.079 N
ATOM      9  H13 UNL     1      34.361   1.531  37.698  1.00  0.00     0.274 HD
ATOM     10  H12 UNL     1      35.622   1.109  36.929  1.00  0.00     0.274 HD
ATOM     11  H11 UNL     1      35.024   2.670  36.626  1.00  0.00     0.274 HD
ENDBRANCH   7   8
ENDBRANCH   5   7
BRANCH   1  12
HETATM   12  C2  UNL     1      35.753   1.450  31.097  1.00  0.00    -0.032 C
HETATM   13  C1  UNL     1      35.722   0.788  29.960  1.00  0.00     0.007 C
ENDBRANCH   1  12
TORSDOF 3
ENDMDL