MODEL 1
REMARK VINA RESULT: -6.478868581      0.000      0.000
REMARK  3 active torsions:
REMARK  status: ('A' for Active; 'I' for Inactive)
REMARK    1  A    between atoms: C2_2  and  C3_3
REMARK    2  A    between atoms: C2_2  and  C5_9
REMARK    3  A    between atoms: C3_3  and  N1_5
ROOT
HETATM    1  C1  UNL     1      34.059  -0.943  37.161  1.00  0.00     0.017 C
HETATM    2  C2  UNL     1      33.531  -0.530  36.022  1.00  0.00    -0.056 C
ENDROOT
BRANCH   2   3
HETATM    3  C3  UNL     1      32.061  -0.631  35.813  1.00  0.00     0.208 C
HETATM    4  C4  UNL     1      31.656  -2.052  35.596  1.00  0.00     0.044 C
BRANCH   3   5
HETATM    5  N1  UNL     1      31.381  -0.075  36.957  1.00  0.00    -0.072 N
ATOM      6  H13 UNL     1      30.372  -0.010  36.814  1.00  0.00     0.275 HD
ATOM      7  H12 UNL     1      31.373  -0.714  37.752  1.00  0.00     0.275 HD
ATOM      8  H11 UNL     1      31.798   0.827  37.189  1.00  0.00     0.275 HD
ENDBRANCH   3   5
ENDBRANCH   2   3
BRANCH   2   9
HETATM    9  C5  UNL     1      34.445  -0.026  34.958  1.00  0.00     0.016 C
HETATM   10  C6  UNL     1      35.480   0.852  35.640  1.00  0.00     0.009 C
HETATM   11  C7  UNL     1      36.761   0.875  34.806  1.00  0.00     0.001 C
HETATM   12  C8  UNL     1      37.355  -0.509  34.987  1.00  0.00     0.000 C
HETATM   13  C9  UNL     1      36.393  -1.591  34.576  1.00  0.00     0.001 C
HETATM   14  C10 UNL     1      35.065  -1.090  34.143  1.00  0.00     0.009 C
ENDBRANCH   2   9
TORSDOF 3
ENDMDL