MODEL 2
REMARK VINA RESULT: -6.230885580      1.155      4.536
REMARK  2 active torsions:
REMARK  status: ('A' for Active; 'I' for Inactive)
REMARK    1  A    between atoms: C4_4  and  N1_5
REMARK    2  A    between atoms: N1_5  and  C5_7
ROOT
HETATM    1  C1  UNL     1      32.054  -0.549  36.752  1.00  0.00     0.000 C
HETATM    2  C2  UNL     1      32.173  -0.526  35.266  1.00  0.00     0.002 C
HETATM    3  C3  UNL     1      33.377   0.337  34.885  1.00  0.00     0.024 C
HETATM    4  C4  UNL     1      34.644  -0.108  35.531  1.00  0.00     0.077 C
HETATM    5  C9  UNL     1      34.533  -0.545  36.957  1.00  0.00     0.024 C
HETATM    6  C10 UNL     1      33.286  -1.286  37.289  1.00  0.00     0.002 C
ENDROOT
BRANCH   4   7
HETATM    7  N1  UNL     1      35.355  -0.991  34.690  1.00  0.00    -0.413 N
ATOM      8  H1  UNL     1      35.005  -1.931  34.501  1.00  0.00     0.154 HD
BRANCH   7   9
HETATM    9  C5  UNL     1      36.565  -0.537  34.116  1.00  0.00     0.077 C
HETATM   10  C6  UNL     1      36.443   0.032  32.708  1.00  0.00     0.025 C
HETATM   11  C7  UNL     1      37.419   1.100  33.125  1.00  0.00     0.004 C
HETATM   12  C8  UNL     1      37.040   0.829  34.557  1.00  0.00     0.025 C
ENDBRANCH   7   9
ENDBRANCH   4   7
TORSDOF 2
ENDMDL