MODEL 4
REMARK VINA RESULT: -6.282540837      2.348      4.622
REMARK  2 active torsions:
REMARK  status: ('A' for Active; 'I' for Inactive)
REMARK    1  A    between atoms: C4_4  and  C5_5
REMARK    2  A    between atoms: C5_5  and  C6_6
ROOT
HETATM    1  C5  UNL     1      32.780   0.288  34.614  1.00  0.00     0.037 C
ENDROOT
BRANCH   1   2
HETATM    2  C4  UNL     1      34.213   0.432  34.162  1.00  0.00    -0.013 C
HETATM    3  C3  UNL     1      34.712  -0.801  33.467  1.00  0.00     0.005 C
HETATM    4  C2  UNL     1      35.824  -1.463  34.287  1.00  0.00     0.000 C
HETATM    5  C1  UNL     1      36.968  -0.464  34.315  1.00  0.00     0.000 C
HETATM    6  C10 UNL     1      36.541   0.872  34.831  1.00  0.00     0.000 C
HETATM    7  C9  UNL     1      35.101   0.862  35.289  1.00  0.00     0.005 C
ENDBRANCH   1   2
BRANCH   1   8
HETATM    8  C6  UNL     1      32.630  -0.485  35.875  1.00  0.00     0.188 C
HETATM    9  C7  UNL     1      31.827  -1.740  35.730  1.00  0.00     0.060 C
HETATM   10  C8  UNL     1      30.653  -0.856  36.080  1.00  0.00     0.235 C
HETATM   11  N1  UNL     1      31.578   0.041  36.747  1.00  0.00    -0.071 N
ATOM     12  H12 UNL     1      31.682   0.027  37.761  1.00  0.00     0.277 HD
ATOM     13  H11 UNL     1      31.392   1.042  36.799  1.00  0.00     0.277 HD
ENDBRANCH   1   8
TORSDOF 2
ENDMDL