MODEL 4
REMARK VINA RESULT: -6.375776481      1.669      4.038
REMARK  2 active torsions:
REMARK  status: ('A' for Active; 'I' for Inactive)
REMARK    1  A    between atoms: C4_4  and  C5_5
REMARK    2  A    between atoms: C5_5  and  C6_6
ROOT
HETATM    1  C1  UNL     1      32.338  -1.566  35.813  1.00  0.00     0.108 C
HETATM    2  C2  UNL     1      32.986  -1.055  37.150  1.00  0.00     0.040 C
HETATM    3  C3  UNL     1      33.341   0.397  37.087  1.00  0.00    -0.021 C
HETATM    4  C4  UNL     1      34.148   1.078  36.149  1.00  0.00    -0.065 C
HETATM    5  C9  UNL     1      33.701   1.460  34.752  1.00  0.00     0.162 C
HETATM    6  N1  UNL     1      33.038   0.364  33.988  1.00  0.00    -0.357 N
ATOM      7  H1  UNL     1      32.892   0.336  32.980  1.00  0.00     0.169 HD
HETATM    8  C10 UNL     1      32.669  -0.578  34.871  1.00  0.00    -0.075 C
ENDROOT
BRANCH   4   9
HETATM    9  C5  UNL     1      35.620   0.778  36.192  1.00  0.00     0.040 C
BRANCH   9  10
HETATM   10  C6  UNL     1      36.243   0.010  35.105  1.00  0.00    -0.011 A
HETATM   11  C7  UNL     1      37.611  -0.603  35.143  1.00  0.00     0.005 A
HETATM   12  C8  UNL     1      36.314  -1.447  35.095  1.00  0.00     0.005 A
ENDBRANCH   9  10
ENDBRANCH   4   9
TORSDOF 2
ENDMDL