MODEL 2
REMARK VINA RESULT: -6.360529887      1.627      4.278
REMARK  3 active torsions:
REMARK  status: ('A' for Active; 'I' for Inactive)
REMARK    1  A    between atoms: C2_2  and  C4_4
REMARK    2  A    between atoms: C4_4  and  N1_5
REMARK    3  A    between atoms: C4_4  and  C5_9
ROOT
HETATM    1  C4  UNL     1      35.670  -0.766  33.732  1.00  0.00     0.215 C
ENDROOT
BRANCH   1   2
HETATM    2  C2  UNL     1      36.636   0.276  33.448  1.00  0.00    -0.063 C
HETATM    3  C1  UNL     1      37.081   0.471  32.220  1.00  0.00     0.016 C
HETATM    4  C3  UNL     1      37.172   1.168  34.497  1.00  0.00     0.044 C
ENDBRANCH   1   2
BRANCH   1   5
HETATM    5  N1  UNL     1      34.788  -1.026  32.570  1.00  0.00    -0.071 N
ATOM      6  H13 UNL     1      34.797  -0.246  31.914  1.00  0.00     0.275 HD
ATOM      7  H12 UNL     1      35.175  -1.749  31.964  1.00  0.00     0.275 HD
ATOM      8  H11 UNL     1      33.838  -1.255  32.862  1.00  0.00     0.275 HD
ENDBRANCH   1   5
BRANCH   1   9
HETATM    9  C5  UNL     1      34.764  -0.622  34.884  1.00  0.00     0.020 C
HETATM   10  C6  UNL     1      35.265  -1.185  36.175  1.00  0.00     0.007 C
HETATM   11  C7  UNL     1      34.628  -0.374  37.277  1.00  0.00     0.000 C
HETATM   12  C8  UNL     1      33.177  -0.210  37.085  1.00  0.00     0.000 C
HETATM   13  C9  UNL     1      32.511  -0.862  35.941  1.00  0.00     0.000 C
HETATM   14  C10 UNL     1      33.348  -1.065  34.713  1.00  0.00     0.007 C
ENDBRANCH   1   9
TORSDOF 3
ENDMDL