MODEL 5
REMARK VINA RESULT: -5.122294679      2.862      4.044
REMARK  0 active torsions:
REMARK  status: ('A' for Active; 'I' for Inactive)
ROOT
HETATM    1  C1  UNL     1      34.438  -0.904  37.101  1.00  0.00     0.001 C
HETATM    2  C2  UNL     1      35.052   0.294  36.516  1.00  0.00     0.005 C
HETATM    3  C3  UNL     1      34.164   1.400  36.096  1.00  0.00     0.044 C
HETATM    4  C4  UNL     1      33.813   1.360  34.608  1.00  0.00     0.060 C
HETATM    5  N1  UNL     1      33.135   0.215  34.196  1.00  0.00    -0.382 N
ATOM      6  H1  UNL     1      33.437  -0.294  33.365  1.00  0.00     0.163 HD
HETATM    7  C5  UNL     1      32.028  -0.230  34.944  1.00  0.00     0.060 C
HETATM    8  C6  UNL     1      32.409  -1.430  35.755  1.00  0.00     0.044 C
HETATM    9  C7  UNL     1      32.958  -0.994  37.094  1.00  0.00     0.005 C
ENDROOT
TORSDOF 0
ENDMDL