MODEL 3
REMARK VINA RESULT: -5.746019483      1.818      2.764
REMARK  1 active torsions:
REMARK  status: ('A' for Active; 'I' for Inactive)
REMARK    1  A    between atoms: N1_1  and  C1_5
ROOT
HETATM    1  C1  UNL     1      35.644  -0.470  34.232  1.00  0.00     0.127 C
HETATM    2  C2  UNL     1      35.736  -1.355  35.433  1.00  0.00     0.039 C
HETATM    3  C3  UNL     1      34.608  -1.019  36.412  1.00  0.00     0.002 C
HETATM    4  C4  UNL     1      34.951   0.388  36.913  1.00  0.00     0.001 C
HETATM    5  C5  UNL     1      34.757   1.321  35.763  1.00  0.00     0.007 C
HETATM    6  C6  UNL     1      35.458   0.971  34.522  1.00  0.00     0.021 C
HETATM    7  C7  UNL     1      36.985   1.079  34.635  1.00  0.00     0.009 C
HETATM    8  C8  UNL     1      37.018  -0.097  33.651  1.00  0.00     0.039 C
ENDROOT
BRANCH   1   9
HETATM    9  N1  UNL     1      34.847  -1.031  33.156  1.00  0.00    -0.070 N
ATOM     10  H13 UNL     1      35.037  -2.027  33.048  1.00  0.00     0.275 HD
ATOM     11  H12 UNL     1      33.863  -1.073  33.421  1.00  0.00     0.275 HD
ATOM     12  H11 UNL     1      34.960  -0.544  32.268  1.00  0.00     0.275 HD
ENDBRANCH   1   9
TORSDOF 1
ENDMDL