MODEL 4
REMARK VINA RESULT: -5.735472623      2.335      2.847
REMARK  0 active torsions:
REMARK  status: ('A' for Active; 'I' for Inactive)
ROOT
HETATM    1  C1  UNL     1      34.779   0.294  37.353  1.00  0.00     0.000 C
HETATM    2  C2  UNL     1      34.512   1.316  36.299  1.00  0.00     0.000 C
HETATM    3  C3  UNL     1      35.097   0.983  34.957  1.00  0.00     0.002 C
HETATM    4  C4  UNL     1      34.068   1.186  33.862  1.00  0.00     0.027 C
HETATM    5  C5  UNL     1      33.755  -0.184  33.260  1.00  0.00     0.232 C
HETATM    6  N1  UNL     1      33.793  -1.158  34.315  1.00  0.00    -0.075 N
ATOM      7  H11 UNL     1      34.664  -1.112  34.843  1.00  0.00     0.277 HD
ATOM      8  H12 UNL     1      33.885  -2.107  33.953  1.00  0.00     0.277 HD
HETATM    9  C6  UNL     1      32.633  -1.019  35.175  1.00  0.00     0.232 C
HETATM   10  C7  UNL     1      32.930  -1.237  36.620  1.00  0.00     0.027 C
HETATM   11  C8  UNL     1      34.376  -1.101  36.983  1.00  0.00     0.002 C
ENDROOT
TORSDOF 0
ENDMDL