MODEL 1
REMARK VINA RESULT: -5.183015457      0.000      0.000
REMARK  0 active torsions:
REMARK  status: ('A' for Active; 'I' for Inactive)
ROOT
HETATM    1  C1  UNL     1      34.288  -0.270  33.648  1.00  0.00     0.004 C
HETATM    2  C2  UNL     1      35.216  -1.288  34.174  1.00  0.00     0.025 C
HETATM    3  C3  UNL     1      36.680  -1.024  33.811  1.00  0.00     0.077 C
HETATM    4  C4  UNL     1      37.201  -0.038  34.869  1.00  0.00     0.027 C
HETATM    5  C5  UNL     1      37.124   1.333  34.183  1.00  0.00     0.027 C
HETATM    6  C6  UNL     1      36.323   1.008  32.910  1.00  0.00     0.077 C
HETATM    7  C7  UNL     1      34.856   1.032  33.250  1.00  0.00     0.025 C
HETATM    8  N1  UNL     1      36.721  -0.293  32.644  1.00  0.00    -0.413 N
ATOM      9  H1  UNL     1      36.998  -0.651  31.731  1.00  0.00     0.154 HD
ENDROOT
TORSDOF 0
ENDMDL