MODEL 4
REMARK VINA RESULT: -5.665714654      1.919      2.978
REMARK  0 active torsions:
REMARK  status: ('A' for Active; 'I' for Inactive)
ROOT
HETATM    1  C1  UNL     1      36.019   0.878  35.161  1.00  0.00     0.000 C
HETATM    2  C2  UNL     1      37.203   1.288  34.353  1.00  0.00     0.000 C
HETATM    3  C3  UNL     1      37.111   0.548  33.031  1.00  0.00     0.007 C
HETATM    4  C4  UNL     1      35.972   1.233  32.305  1.00  0.00     0.017 C
HETATM    5  C5  UNL     1      35.827   0.777  30.884  1.00  0.00     0.237 C
HETATM    6  N1  UNL     1      34.694  -0.113  30.831  1.00  0.00    -0.074 N
ATOM      7  H11 UNL     1      34.904  -0.987  30.349  1.00  0.00     0.277 HD
ATOM      8  H12 UNL     1      33.962   0.220  30.203  1.00  0.00     0.277 HD
HETATM    9  C6  UNL     1      34.224  -0.320  32.163  1.00  0.00     0.237 C
HETATM   10  C7  UNL     1      34.709   0.873  32.994  1.00  0.00     0.017 C
HETATM   11  C8  UNL     1      34.799   0.542  34.427  1.00  0.00     0.007 C
ENDROOT
TORSDOF 0
ENDMDL