MODEL 3
REMARK VINA RESULT: -5.413744131      1.926      2.877
REMARK  1 active torsions:
REMARK  status: ('A' for Active; 'I' for Inactive)
REMARK    1  A    between atoms: N1_1  and  N2_4
ROOT
HETATM    1  N2  UNL     1      36.250   0.491  32.064  1.00  0.00    -0.293 N
HETATM    2  C1  UNL     1      34.930   0.487  32.550  1.00  0.00     0.087 C
HETATM    3  C2  UNL     1      34.336  -0.860  32.787  1.00  0.00     0.046 C
HETATM    4  C3  UNL     1      33.996  -1.135  34.217  1.00  0.00     0.005 C
HETATM    5  C4  UNL     1      35.099  -0.972  35.181  1.00  0.00     0.001 C
HETATM    6  C5  UNL     1      36.475  -1.095  34.640  1.00  0.00     0.005 C
HETATM    7  C6  UNL     1      37.016   0.303  34.397  1.00  0.00     0.046 C
HETATM    8  C7  UNL     1      37.317   0.536  32.956  1.00  0.00     0.087 C
ENDROOT
BRANCH   1   9
HETATM    9  N1  UNL     1      36.466   0.089  30.790  1.00  0.00    -0.340 N
ATOM     10  H12 UNL     1      36.639   0.787  30.068  1.00  0.00     0.177 HD
ATOM     11  H11 UNL     1      36.721  -0.886  30.628  1.00  0.00     0.177 HD
ENDBRANCH   1   9
TORSDOF 1
ENDMDL