MODEL 5
REMARK VINA RESULT: -5.646106685      2.990      4.060
REMARK  0 active torsions:
REMARK  status: ('A' for Active; 'I' for Inactive)
ROOT
HETATM    1  C1  UNL     1      34.829  -1.205  37.054  1.00  0.00     0.002 C
HETATM    2  C2  UNL     1      35.456  -0.896  35.735  1.00  0.00     0.002 C
HETATM    3  C3  UNL     1      35.581   0.562  35.434  1.00  0.00     0.033 C
HETATM    4  C4  UNL     1      34.285   1.300  35.468  1.00  0.00     0.186 C
HETATM    5  C5  UNL     1      33.312   0.866  34.410  1.00  0.00     0.035 C
HETATM    6  C6  UNL     1      32.365  -0.033  35.137  1.00  0.00     0.035 C
HETATM    7  C7  UNL     1      32.732   0.099  36.608  1.00  0.00     0.186 C
HETATM    8  C8  UNL     1      33.333  -1.190  37.046  1.00  0.00     0.033 C
HETATM    9  N1  UNL     1      33.609   1.220  36.728  1.00  0.00    -0.067 N
ATOM     10  H11 UNL     1      33.139   2.084  37.000  1.00  0.00     0.278 HD
ATOM     11  H12 UNL     1      34.236   1.169  37.531  1.00  0.00     0.278 HD
ENDROOT
TORSDOF 0
ENDMDL