MODEL 2
REMARK VINA RESULT: -5.839982669      1.386      3.426
REMARK  1 active torsions:
REMARK  status: ('A' for Active; 'I' for Inactive)
REMARK    1  A    between atoms: N1_1  and  C1_5
ROOT
HETATM    1  C1  UNL     1      34.661   1.476  35.960  1.00  0.00     0.188 C
HETATM    2  C2  UNL     1      34.170   0.536  37.075  1.00  0.00     0.033 C
HETATM    3  C3  UNL     1      34.639  -0.868  36.662  1.00  0.00     0.007 C
HETATM    4  C4  UNL     1      35.128  -0.677  35.304  1.00  0.00    -0.008 C
HETATM    5  C5  UNL     1      36.313  -1.414  34.832  1.00  0.00     0.005 C
HETATM    6  C6  UNL     1      36.807  -0.484  33.710  1.00  0.00     0.001 C
HETATM    7  C7  UNL     1      36.203   0.895  34.025  1.00  0.00     0.007 C
HETATM    8  C8  UNL     1      35.786   0.718  35.422  1.00  0.00     0.020 C
ENDROOT
BRANCH   1   9
HETATM    9  N1  UNL     1      33.582   1.626  35.008  1.00  0.00    -0.075 N
ATOM     10  H13 UNL     1      32.826   0.958  35.157  1.00  0.00     0.274 HD
ATOM     11  H12 UNL     1      33.039   2.477  35.153  1.00  0.00     0.274 HD
ATOM     12  H11 UNL     1      33.986   1.568  34.073  1.00  0.00     0.274 HD
ENDBRANCH   1   9
TORSDOF 1
ENDMDL