MODEL 1
REMARK VINA RESULT: -5.776960734      0.000      0.000
REMARK  0 active torsions:
REMARK  status: ('A' for Active; 'I' for Inactive)
ROOT
HETATM    1  C1  UNL     1      34.366  -1.394  37.027  1.00  0.00     0.004 C
HETATM    2  C2  UNL     1      34.037  -1.338  35.528  1.00  0.00     0.033 C
HETATM    3  C3  UNL     1      32.818  -0.483  35.407  1.00  0.00     0.186 C
HETATM    4  C4  UNL     1      32.812   0.408  34.201  1.00  0.00     0.033 C
HETATM    5  C5  UNL     1      33.620   1.647  34.361  1.00  0.00     0.004 C
HETATM    6  C6  UNL     1      34.483   1.691  35.570  1.00  0.00     0.033 C
HETATM    7  C7  UNL     1      33.915   1.048  36.783  1.00  0.00     0.186 C
HETATM    8  C8  UNL     1      34.840   0.008  37.401  1.00  0.00     0.033 C
HETATM    9  N1  UNL     1      32.643   0.397  36.571  1.00  0.00    -0.067 N
ATOM     10  H11 UNL     1      32.294  -0.088  37.397  1.00  0.00     0.278 HD
ATOM     11  H12 UNL     1      31.865   1.050  36.471  1.00  0.00     0.278 HD
ENDROOT
TORSDOF 0
ENDMDL