MODEL 4
REMARK VINA RESULT: -5.171617205      2.932      4.628
REMARK  3 active torsions:
REMARK  status: ('A' for Active; 'I' for Inactive)
REMARK    1  A    between atoms: N2_3  and  C2_5
REMARK    2  A    between atoms: C3_9  and  C4_10
REMARK    3  A    between atoms: C4_10  and  C5_11
ROOT
HETATM    1  C2  UNL     1      27.581  33.178  22.466  1.00  0.00     0.316 A
HETATM    2  N3  UNL     1      26.494  32.425  21.727  1.00  0.00    -0.044 N
ATOM      3  H31 UNL     1      25.835  32.631  20.976  1.00  0.00     0.280 HD
ATOM      4  H32 UNL     1      25.562  32.074  21.946  1.00  0.00     0.280 HD
HETATM    5  C3  UNL     1      27.859  31.923  21.823  1.00  0.00     0.239 A
ENDROOT
BRANCH   1   6
HETATM    6  N2  UNL     1      27.814  34.463  21.885  1.00  0.00    -0.359 N
HETATM    7  C1  UNL     1      28.354  35.392  22.584  1.00  0.00     0.186 C
HETATM    8  N1  UNL     1      28.728  35.172  23.930  1.00  0.00    -0.097 NA
ATOM      9  H2  UNL     1      27.550  34.641  20.916  1.00  0.00     0.162 HD
ENDBRANCH   1   6
BRANCH   5  10
HETATM   10  C4  UNL     1      28.618  31.815  20.524  1.00  0.00     0.048 C
BRANCH  10  11
HETATM   11  C5  UNL     1      27.720  32.071  19.326  1.00  0.00     0.087 C
HETATM   12 BR1  UNL     1      27.252  30.332  18.598  1.00  0.00    -0.096 Br
ENDBRANCH  10  11
ENDBRANCH   5  10
TORSDOF 3
ENDMDL