MODEL 2
REMARK VINA RESULT: -4.545373240      1.206      1.368
REMARK  3 active torsions:
REMARK  status: ('A' for Active; 'I' for Inactive)
REMARK    1  A    between atoms: C1_2  and  C2_3
REMARK    2  A    between atoms: C2_3  and  N1_4
REMARK    3  A    between atoms: N1_4  and  C3_6
ROOT
HETATM    1  C3  UNL     1      27.611  31.383  20.172  1.00  0.00     0.127 C
HETATM    2  C4  UNL     1      26.796  32.233  19.266  1.00  0.00     0.258 C
HETATM    3  N2  UNL     1      27.699  31.829  18.170  1.00  0.00    -0.071 N
ATOM      4  H21 UNL     1      28.531  32.365  17.923  1.00  0.00     0.277 HD
ATOM      5  H22 UNL     1      27.428  31.892  17.189  1.00  0.00     0.277 HD
HETATM    6  C5  UNL     1      27.773  30.542  18.888  1.00  0.00     0.258 C
ENDROOT
BRANCH   1   7
HETATM    7  N1  UNL     1      28.857  31.839  20.659  1.00  0.00    -0.413 N
ATOM      8  H1  UNL     1      29.606  32.107  20.020  1.00  0.00     0.153 HD
BRANCH   7   9
HETATM    9  C2  UNL     1      29.033  31.911  22.063  1.00  0.00     0.125 C
BRANCH   9  10
HETATM   10  C1  UNL     1      27.825  32.577  22.693  1.00  0.00     0.104 C
HETATM   11 BR1  UNL     1      27.940  34.494  22.744  1.00  0.00    -0.095 Br
ENDBRANCH   9  10
ENDBRANCH   7   9
ENDBRANCH   1   7
TORSDOF 3
ENDMDL