MODEL 4
REMARK VINA RESULT: -4.496977811      1.393      2.302
REMARK  3 active torsions:
REMARK  status: ('A' for Active; 'I' for Inactive)
REMARK    1  A    between atoms: N1_2  and  C2_3
REMARK    2  A    between atoms: C2_3  and  C3_4
REMARK    3  A    between atoms: C7_12  and  N3_13
ROOT
HETATM    1  C1  UNL     1      28.386  30.804  20.956  1.00  0.00     0.277 C
HETATM    2  N1  UNL     1      27.958  32.063  20.372  1.00  0.00    -0.017 N
HETATM    3  C4  UNL     1      26.686  32.389  20.984  1.00  0.00     0.243 C
HETATM    4  C5  UNL     1      26.799  32.717  22.445  1.00  0.00     0.055 C
HETATM    5  C6  UNL     1      27.883  33.760  22.611  1.00  0.00     0.238 C
HETATM    6  N2  UNL     1      29.118  33.135  22.135  1.00  0.00    -0.021 N
ATOM      7  H21 UNL     1      29.324  32.245  22.588  1.00  0.00     0.281 HD
ATOM      8  H22 UNL     1      29.963  33.622  22.433  1.00  0.00     0.281 HD
HETATM    9  C7  UNL     1      28.983  33.035  20.693  1.00  0.00     0.582 C
ENDROOT
BRANCH   2  10
HETATM   10  C2  UNL     1      27.821  31.896  18.966  1.00  0.00     0.256 C
BRANCH  10  11
HETATM   11  C3  UNL     1      27.636  30.504  18.471  1.00  0.00     0.142 C
HETATM   12 CL1  UNL     1      25.931  30.056  18.329  1.00  0.00    -0.129 Cl
ENDBRANCH  10  11
ENDBRANCH   2  10
BRANCH   9  13
HETATM   13  N3  UNL     1      28.729  34.340  20.188  1.00  0.00    -0.025 N
ATOM     14  H33 UNL     1      28.402  34.291  19.223  1.00  0.00     0.278 HD
ATOM     15  H32 UNL     1      27.902  34.739  20.632  1.00  0.00     0.278 HD
ATOM     16  H31 UNL     1      29.519  34.980  20.263  1.00  0.00     0.278 HD
ENDBRANCH   9  13
TORSDOF 3
ENDMDL