MODEL 2
REMARK VINA RESULT: -3.288559166      0.101      1.180
REMARK  3 active torsions:
REMARK  status: ('A' for Active; 'I' for Inactive)
REMARK    1  A    between atoms: N1_2  and  C4_5
REMARK    2  A    between atoms: C4_5  and  C5_6
REMARK    3  A    between atoms: C9_13  and  N3_14
ROOT
HETATM    1  C5  UNL     1      28.025  33.350  21.325  1.00  0.00     0.068 C
HETATM    2  C6  UNL     1      28.113  32.780  22.721  1.00  0.00     0.240 C
HETATM    3  N2  UNL     1      28.632  33.784  23.664  1.00  0.00    -0.075 N
ATOM      4  H21 UNL     1      29.647  33.866  23.627  1.00  0.00     0.277 HD
ATOM      5  H22 UNL     1      28.551  33.485  24.636  1.00  0.00     0.277 HD
HETATM    6  C7  UNL     1      27.961  35.049  23.412  1.00  0.00     0.234 C
HETATM    7  C8  UNL     1      28.590  35.646  22.181  1.00  0.00     0.060 C
HETATM    8  C9  UNL     1      29.013  34.527  21.281  1.00  0.00     0.192 C
ENDROOT
BRANCH   1   9
HETATM    9  C4  UNL     1      28.533  32.397  20.307  1.00  0.00     0.244 C
BRANCH   9  10
HETATM   10  N1  UNL     1      27.626  31.699  19.502  1.00  0.00    -0.078 N
HETATM   11  C1  UNL     1      27.661  30.290  19.919  1.00  0.00     0.271 C
HETATM   12  C2  UNL     1      28.047  31.680  18.103  1.00  0.00     0.271 C
HETATM   13  C3  UNL     1      26.257  32.099  19.529  1.00  0.00     0.271 C
ENDBRANCH   9  10
ENDBRANCH   1   9
BRANCH   8  14
HETATM   14  N3  UNL     1      29.124  34.990  19.918  1.00  0.00    -0.074 N
ATOM     15  H33 UNL     1      29.984  34.676  19.468  1.00  0.00     0.274 HD
ATOM     16  H32 UNL     1      28.462  34.527  19.294  1.00  0.00     0.274 HD
ATOM     17  H31 UNL     1      29.026  36.005  19.907  1.00  0.00     0.274 HD
ENDBRANCH   8  14
TORSDOF 3
ENDMDL