MODEL 1
REMARK VINA RESULT: -4.745338245      0.000      0.000
REMARK  3 active torsions:
REMARK  status: ('A' for Active; 'I' for Inactive)
REMARK    1  A    between atoms: N1_2  and  C3_5
REMARK    2  A    between atoms: C3_5  and  C4_6
REMARK    3  A    between atoms: C4_6  and  N2_7
ROOT
HETATM    1  N2  UNL     1      28.284  31.658  19.307  1.00  0.00     0.117 N
HETATM    2  C5  UNL     1      27.716  30.331  19.394  1.00  0.00     0.302 C
HETATM    3  C6  UNL     1      26.431  30.540  18.593  1.00  0.00     0.264 C
HETATM    4  N3  UNL     1      25.956  31.859  19.027  1.00  0.00    -0.047 N
ATOM      5  H31 UNL     1      25.391  31.864  19.877  1.00  0.00     0.279 HD
ATOM      6  H32 UNL     1      25.237  32.281  18.440  1.00  0.00     0.279 HD
HETATM    7  C7  UNL     1      27.201  32.587  19.105  1.00  0.00     0.502 C
ENDROOT
BRANCH   1   8
HETATM    8  C4  UNL     1      29.039  31.979  20.522  1.00  0.00     0.304 C
BRANCH   8   9
HETATM    9  C3  UNL     1      28.567  33.333  20.961  1.00  0.00     0.287 C
BRANCH   9  10
HETATM   10  N1  UNL     1      28.091  33.442  22.306  1.00  0.00     0.008 N
HETATM   11  C1  UNL     1      28.914  32.743  23.276  1.00  0.00     0.294 C
HETATM   12  C2  UNL     1      27.839  34.759  22.796  1.00  0.00     0.294 C
HETATM   13 CL1  UNL     1      26.545  32.595  22.340  1.00  0.00     0.117 Cl
ENDBRANCH   9  10
ENDBRANCH   8   9
ENDBRANCH   1   8
TORSDOF 3
ENDMDL