MODEL 5
REMARK VINA RESULT: -7.529190970      3.215      5.572
REMARK  9 active torsions:
REMARK  status: ('A' for Active; 'I' for Inactive)
REMARK    1  A    between atoms: N1_1  and  C1_4
REMARK    2  A    between atoms: N4_13  and  C5_14
REMARK    3  A    between atoms: C6_18  and  C7_19
REMARK    4  A    between atoms: C6_18  and  O3_22
REMARK    5  A    between atoms: C7_19  and  O2_20
REMARK    6  A    between atoms: O3_22  and  C8_23
REMARK    7  A    between atoms: C9_26  and  O5_27
REMARK    8  A    between atoms: C9_26  and  C10_29
REMARK    9  A    between atoms: C10_29  and  O6_30
ROOT
HETATM    1  C5  UNL     1       1.530   1.021  38.774  1.00  0.00     0.458 C
HETATM    2  N5  UNL     1       2.348   1.952  38.015  1.00  0.00     0.012 N
ATOM      3  H51 UNL     1       2.159   2.946  38.142  1.00  0.00     0.286 HD
ATOM      4  H52 UNL     1       2.194   1.991  37.008  1.00  0.00     0.286 HD
HETATM    5  C6  UNL     1       3.686   1.445  38.482  1.00  0.00     0.318 C
HETATM    6  C9  UNL     1       3.433  -0.000  38.174  1.00  0.00     0.249 C
HETATM    7  O7  UNL     1       2.130  -0.207  38.691  1.00  0.00    -0.298 OA
ENDROOT
BRANCH   1   8
HETATM    8  N4  UNL     1       0.154   1.028  38.328  1.00  0.00    -0.221 N
HETATM    9  N3  UNL     1      -0.570   2.042  37.910  1.00  0.00    -0.303 N
HETATM   10  C4  UNL     1      -1.798   1.649  37.585  1.00  0.00     0.128 A
ATOM     11  H3  UNL     1      -0.235   3.003  37.844  1.00  0.00     0.186 HD
HETATM   12  C3  UNL     1      -1.866   0.284  37.811  1.00  0.00     0.095 A
HETATM   13  C2  UNL     1      -2.869  -0.651  37.658  1.00  0.00     0.275 A
HETATM   14  C11 UNL     1      -0.607  -0.074  38.283  1.00  0.00     0.159 A
HETATM   15  N2  UNL     1      -2.583  -1.920  37.981  1.00  0.00    -0.155 N
HETATM   16  O1  UNL     1      -3.991  -0.289  37.229  1.00  0.00    -0.267 OA
HETATM   17  C1  UNL     1      -1.357  -2.246  38.436  1.00  0.00     0.680 A
ATOM     18  H2  UNL     1      -3.296  -2.643  37.882  1.00  0.00     0.187 HD
HETATM   19  N7  UNL     1      -0.367  -1.350  38.593  1.00  0.00    -0.174 N
ATOM     20  H7  UNL     1       0.546  -1.640  38.941  1.00  0.00     0.186 HD
BRANCH  17  21
HETATM   21  N1  UNL     1      -1.064  -3.477  38.754  1.00  0.00    -0.234 N
ATOM     22  H12 UNL     1      -0.423  -3.591  39.539  1.00  0.00     0.174 HD
ATOM     23  H11 UNL     1      -1.462  -4.261  38.239  1.00  0.00     0.174 HD
ENDBRANCH  17  21
ENDBRANCH   1   8
BRANCH   5  24
HETATM   24  C7  UNL     1       4.668   2.144  37.642  1.00  0.00     0.239 C
BRANCH  24  25
HETATM   25  O2  UNL     1       5.878   1.531  37.425  1.00  0.00    -0.396 OA
ATOM     26  H2  UNL     1       6.046   1.174  36.560  1.00  0.00     0.209 HD
ENDBRANCH  24  25
ENDBRANCH   5  24
BRANCH   5  27
HETATM   27  O3  UNL     1       3.642   1.664  39.825  1.00  0.00    -0.259 OA
BRANCH  27  28
HETATM   28  C8  UNL     1       4.594   1.757  40.784  1.00  0.00     0.375 C
HETATM   29  N6  UNL     1       5.385   0.624  41.160  1.00  0.00    -0.032 NA
HETATM   30  O4  UNL     1       4.737   2.869  41.311  1.00  0.00    -0.242 OA
ENDBRANCH  27  28
ENDBRANCH   5  27
BRANCH   6  31
HETATM   31  O5  UNL     1       4.266  -0.868  38.865  1.00  0.00    -0.360 OA
ATOM     32  H5  UNL     1       3.962  -1.768  38.864  1.00  0.00     0.213 HD
ENDBRANCH   6  31
BRANCH   6  33
HETATM   33  C10 UNL     1       3.342  -0.337  36.714  1.00  0.00     0.238 C
BRANCH  33  34
HETATM   34  O6  UNL     1       4.511  -0.867  36.213  1.00  0.00    -0.395 OA
ATOM     35  H6  UNL     1       4.681  -0.603  35.316  1.00  0.00     0.209 HD
ENDBRANCH  33  34
ENDBRANCH   6  33
TORSDOF 9
ENDMDL