MODEL 1
REMARK VINA RESULT: -8.136124943      0.000      0.000
REMARK  8 active torsions:
REMARK  status: ('A' for Active; 'I' for Inactive)
REMARK    1  A    between atoms: O1_2  and  C2_3
REMARK    2  A    between atoms: C2_3  and  C3_4
REMARK    3  A    between atoms: C4_9  and  C5_10
REMARK    4  A    between atoms: C5_10  and  O4_12
REMARK    5  A    between atoms: C7_14  and  O5_15
REMARK       I    between atoms: N3_20  and  C9_21
REMARK       I    between atoms: C9_21  and  N4_23
REMARK    6  A    between atoms: N4_23  and  N5_25
REMARK    7  A    between atoms: N5_25  and  N6_26
REMARK    8  A    between atoms: C10_30  and  O7_31
ROOT
HETATM    1  C2  UNL     1       3.441   1.577  37.375  1.00  0.00     0.267 C
HETATM    2  N1  UNL     1       2.115   1.390  37.663  1.00  0.00    -0.370 N
ATOM      3  H1  UNL     1       1.512   2.212  37.665  1.00  0.00     0.157 HD
HETATM    4  C4  UNL     1       1.527   0.158  37.954  1.00  0.00     0.144 C
HETATM    5  C7  UNL     1       2.281  -0.819  38.768  1.00  0.00     0.213 C
HETATM    6  C8  UNL     1       3.189  -0.249  39.751  1.00  0.00     0.151 A
HETATM    7  N2  UNL     1       3.581  -0.464  40.956  1.00  0.00    -0.259 N
ATOM      8  H2  UNL     1       3.341  -1.179  41.642  1.00  0.00     0.190 HD
HETATM    9  N3  UNL     1       4.469   0.647  40.994  1.00  0.00    -0.133 N
HETATM   10  C9  UNL     1       5.343   1.177  41.974  1.00  0.00     0.374 C
HETATM   11  O6  UNL     1       5.473   0.605  43.109  1.00  0.00    -0.242 OA
HETATM   12  N4  UNL     1       6.085   2.331  41.741  1.00  0.00    -0.233 N
ATOM     13  H4  UNL     1       6.003   2.814  40.846  1.00  0.00     0.189 HD
HETATM   14  N7  UNL     1       4.042   0.868  39.701  1.00  0.00    -0.216 N
HETATM   15  C10 UNL     1       4.263   1.765  38.626  1.00  0.00     0.311 C
ENDROOT
BRANCH  12  16
HETATM   16  N5  UNL     1       6.940   2.829  42.722  1.00  0.00    -0.026 NA
BRANCH  16  17
HETATM   17  N6  UNL     1       7.662   3.949  42.272  1.00  0.00    -0.329 N
ATOM     18  H62 UNL     1       7.555   4.344  41.337  1.00  0.00     0.174 HD
ATOM     19  H61 UNL     1       8.295   4.307  42.987  1.00  0.00     0.174 HD
ENDBRANCH  16  17
ENDBRANCH  12  16
BRANCH  15  20
HETATM   20  O7  UNL     1       5.646   1.767  38.278  1.00  0.00    -0.370 OA
ATOM     21  H7  UNL     1       6.114   1.179  38.859  1.00  0.00     0.212 HD
ENDBRANCH  15  20
BRANCH   5  22
HETATM   22  O5  UNL     1       2.955  -1.753  38.000  1.00  0.00    -0.386 OA
ATOM     23  H5  UNL     1       3.544  -2.295  38.511  1.00  0.00     0.210 HD
ENDBRANCH   5  22
BRANCH   1  24
HETATM   24  O1  UNL     1       3.987   0.597  36.559  1.00  0.00    -0.353 OA
HETATM   25  C1  UNL     1       3.895   0.818  35.214  1.00  0.00     0.205 C
ENDBRANCH   1  24
BRANCH   1  26
HETATM   26  C3  UNL     1       3.586   2.924  36.667  1.00  0.00     0.236 C
HETATM   27  O2  UNL     1       2.727   3.783  36.906  1.00  0.00    -0.644 OA
HETATM   28  O3  UNL     1       4.630   3.160  35.807  1.00  0.00    -0.644 OA
ENDBRANCH   1  26
BRANCH   4  29
HETATM   29  C5  UNL     1       0.184   0.533  38.643  1.00  0.00     0.139 C
HETATM   30  C6  UNL     1      -0.772  -0.597  38.653  1.00  0.00     0.041 C
BRANCH  29  31
HETATM   31  O4  UNL     1      -0.399   1.627  38.021  1.00  0.00    -0.394 OA
ATOM     32  H4  UNL     1      -1.007   2.063  38.607  1.00  0.00     0.210 HD
ENDBRANCH  29  31
ENDBRANCH   4  29
TORSDOF 8
ENDMDL