MODEL 4
REMARK VINA RESULT: -8.213797545      1.112      2.234
REMARK  8 active torsions:
REMARK  status: ('A' for Active; 'I' for Inactive)
REMARK    1  A    between atoms: C4_8  and  O2_9
REMARK    2  A    between atoms: O2_9  and  C5_10
REMARK    3  A    between atoms: C7_12  and  N3_13
REMARK    4  A    between atoms: C8_17  and  O3_18
REMARK    5  A    between atoms: C8_17  and  C9_20
REMARK    6  A    between atoms: C9_20  and  O4_21
REMARK    7  A    between atoms: C10_25  and  N5_26
REMARK    8  A    between atoms: C10_25  and  O5_30
ROOT
HETATM    1  C5  UNL     1       3.695   0.825  38.642  1.00  0.00     0.217 C
HETATM    2  C6  UNL     1       4.746   1.845  38.286  1.00  0.00     0.077 C
HETATM    3  C7  UNL     1       4.720   2.205  36.822  1.00  0.00     0.243 C
HETATM    4  C8  UNL     1       4.791   1.037  35.906  1.00  0.00     0.181 C
HETATM    5  N4  UNL     1       4.542  -0.187  36.580  1.00  0.00    -0.332 N
ATOM      6  H4  UNL     1       5.091  -1.025  36.384  1.00  0.00     0.161 HD
HETATM    7  C10 UNL     1       3.491  -0.194  37.543  1.00  0.00     0.327 C
ENDROOT
BRANCH   1   8
HETATM    8  O2  UNL     1       3.971   0.218  39.858  1.00  0.00    -0.322 OA
BRANCH   8   9
HETATM    9  C4  UNL     1       3.097  -0.052  40.870  1.00  0.00     0.163 A
HETATM   10  C3  UNL     1       3.086   0.785  41.968  1.00  0.00     0.130 A
HETATM   11  C2  UNL     1       3.786   1.916  42.339  1.00  0.00     0.278 A
HETATM   12  C12 UNL     1       2.210   0.539  43.015  1.00  0.00     0.143 A
HETATM   13  N2  UNL     1       3.359   2.336  43.547  1.00  0.00    -0.262 N
HETATM   14  O1  UNL     1       4.683   2.491  41.685  1.00  0.00    -0.266 OA
HETATM   15  N1  UNL     1       2.411   1.507  43.951  1.00  0.00    -0.277 N
ATOM     16  H2  UNL     1       3.705   3.148  44.058  1.00  0.00     0.190 HD
HETATM   17  C1  UNL     1       1.640   1.544  45.200  1.00  0.00     0.179 C
HETATM   18  N7  UNL     1       1.374  -0.510  42.960  1.00  0.00    -0.336 N
HETATM   19  C11 UNL     1       1.376  -1.331  41.896  1.00  0.00     0.184 A
ATOM     20  H7  UNL     1       0.732  -0.687  43.732  1.00  0.00     0.168 HD
HETATM   21  N6  UNL     1       2.226  -1.077  40.902  1.00  0.00    -0.332 N
ATOM     22  H6  UNL     1       2.214  -1.710  40.101  1.00  0.00     0.168 HD
ENDBRANCH   8   9
ENDBRANCH   1   8
BRANCH   7  23
HETATM   23  N5  UNL     1       2.167  -0.084  36.943  1.00  0.00    -0.025 N
ATOM     24  H53 UNL     1       1.432  -0.158  37.647  1.00  0.00     0.280 HD
ATOM     25  H52 UNL     1       1.983   0.865  36.620  1.00  0.00     0.280 HD
ATOM     26  H51 UNL     1       2.034  -0.763  36.195  1.00  0.00     0.280 HD
ENDBRANCH   7  23
BRANCH   7  27
HETATM   27  O5  UNL     1       3.506  -1.466  38.153  1.00  0.00    -0.347 OA
ATOM     28  H5  UNL     1       2.678  -1.884  37.942  1.00  0.00     0.214 HD
ENDBRANCH   7  27
BRANCH   3  29
HETATM   29  N3  UNL     1       3.516   2.971  36.488  1.00  0.00    -0.070 N
ATOM     30  H33 UNL     1       2.963   3.184  37.318  1.00  0.00     0.274 HD
ATOM     31  H32 UNL     1       3.744   3.925  36.204  1.00  0.00     0.274 HD
ATOM     32  H31 UNL     1       2.960   2.492  35.780  1.00  0.00     0.274 HD
ENDBRANCH   3  29
BRANCH   4  33
HETATM   33  O3  UNL     1       6.116   0.962  35.407  1.00  0.00    -0.367 OA
ATOM     34  H3  UNL     1       6.191   0.157  34.909  1.00  0.00     0.212 HD
ENDBRANCH   4  33
BRANCH   4  35
HETATM   35  C9  UNL     1       3.931   1.286  34.688  1.00  0.00     0.227 C
BRANCH  35  36
HETATM   36  O4  UNL     1       4.459   0.445  33.680  1.00  0.00    -0.396 OA
ATOM     37  H4  UNL     1       3.754   0.331  33.054  1.00  0.00     0.209 HD
ENDBRANCH  35  36
ENDBRANCH   4  35
TORSDOF 8
ENDMDL