MODEL 4
REMARK VINA RESULT: -8.447064611      4.379      5.324
REMARK  7 active torsions:
REMARK  status: ('A' for Active; 'I' for Inactive)
REMARK    1  A    between atoms: N1_2  and  C2_3
REMARK    2  A    between atoms: N1_2  and  S1_28
REMARK    3  A    between atoms: C3_6  and  N3_7
REMARK       I    between atoms: N3_7  and  C4_9
REMARK    4  A    between atoms: C4_9  and  C5_11
REMARK    5  A    between atoms: C5_11  and  O2_12
REMARK    6  A    between atoms: C6_18  and  O3_19
REMARK    7  A    between atoms: C7_21  and  O4_22
ROOT
HETATM    1  N3  UNL     1       1.864   0.013  37.339  1.00  0.00    -0.311 N
ATOM      2  H3  UNL     1       1.848  -0.690  36.600  1.00  0.00     0.170 HD
HETATM    3  C4  UNL     1       2.779   1.071  37.191  1.00  0.00     0.279 C
HETATM    4  O1  UNL     1       2.848   1.965  38.061  1.00  0.00    -0.268 OA
ENDROOT
BRANCH   1   5
HETATM    5  C3  UNL     1       0.963  -0.168  38.417  1.00  0.00     0.108 C
HETATM    6  N2  UNL     1      -0.277   0.181  38.480  1.00  0.00    -0.338 N
HETATM    7  C2  UNL     1      -0.881  -0.164  39.737  1.00  0.00     0.378 C
ATOM      8  H2  UNL     1      -0.773   0.649  37.722  1.00  0.00     0.164 HD
HETATM    9  N7  UNL     1      -0.005  -1.141  40.301  1.00  0.00    -0.034 N
HETATM   10  C8  UNL     1       1.286  -0.825  39.700  1.00  0.00     0.312 C
ATOM     11  H72 UNL     1      -0.001  -1.168  41.321  1.00  0.00     0.281 HD
ATOM     12  H71 UNL     1      -0.308  -2.106  40.171  1.00  0.00     0.281 HD
BRANCH   7  13
HETATM   13  N1  UNL     1      -2.136  -0.826  39.447  1.00  0.00    -0.169 NA
HETATM   14  C1  UNL     1      -1.938  -2.050  38.695  1.00  0.00     0.133 C
BRANCH  13  15
HETATM   15  S1  UNL     1      -3.259   0.225  38.680  1.00  0.00     0.210 S
HETATM   16  C9  UNL     1      -4.890   0.085  39.317  1.00  0.00     0.180 C
HETATM   17  O5  UNL     1      -2.821   1.658  38.760  1.00  0.00    -0.211 OA
HETATM   18  O6  UNL     1      -3.301  -0.144  37.218  1.00  0.00    -0.211 OA
ENDBRANCH  13  15
ENDBRANCH   7  13
ENDBRANCH   1   5
BRANCH   3  19
HETATM   19  C5  UNL     1       3.699   1.197  36.035  1.00  0.00     0.261 C
HETATM   20  N4  UNL     1       4.213   2.556  35.920  1.00  0.00    -0.076 NA
HETATM   21  N5  UNL     1       5.354   2.638  35.154  1.00  0.00    -0.244 N
HETATM   22  N6  UNL     1       5.580   1.564  34.322  1.00  0.00    -0.094 NA
ATOM     23  H5  UNL     1       5.986   3.437  35.199  1.00  0.00     0.199 HD
HETATM   24  C6  UNL     1       5.761   0.314  34.993  1.00  0.00     0.266 C
HETATM   25  C7  UNL     1       4.923   0.305  36.254  1.00  0.00     0.227 C
BRANCH  19  26
HETATM   26  O2  UNL     1       3.098   0.872  34.845  1.00  0.00    -0.363 OA
ATOM     27  H2  UNL     1       2.287   0.394  34.966  1.00  0.00     0.212 HD
ENDBRANCH  19  26
BRANCH  24  28
HETATM   28  O3  UNL     1       7.103   0.083  35.304  1.00  0.00    -0.375 OA
ATOM     29  H3  UNL     1       7.460  -0.643  34.806  1.00  0.00     0.211 HD
ENDBRANCH  24  28
BRANCH  25  30
HETATM   30  O4  UNL     1       4.495  -0.979  36.491  1.00  0.00    -0.386 OA
ATOM     31  H4  UNL     1       5.219  -1.481  36.845  1.00  0.00     0.210 HD
ENDBRANCH  25  30
ENDBRANCH   3  19
TORSDOF 7
ENDMDL