MODEL 5
REMARK VINA RESULT: -8.650273294      1.753      6.355
REMARK  8 active torsions:
REMARK  status: ('A' for Active; 'I' for Inactive)
REMARK       I    between atoms: N1_2  and  C2_3
REMARK       I    between atoms: N1_2  and  C3_6
REMARK       I    between atoms: C3_6  and  N3_7
REMARK       I    between atoms: C3_6  and  N4_11
REMARK    1  A    between atoms: N4_11  and  N5_13
REMARK    2  A    between atoms: N6_15  and  C4_17
REMARK    3  A    between atoms: C5_20  and  N8_21
REMARK    4  A    between atoms: N8_21  and  O2_23
REMARK    5  A    between atoms: O2_23  and  C6_24
REMARK    6  A    between atoms: C7_27  and  O3_28
REMARK    7  A    between atoms: C8_30  and  O4_31
REMARK    8  A    between atoms: C9_35  and  N11_36
ROOT
HETATM    1  C4  UNL     1       2.384  -0.762  39.655  1.00  0.00     0.727 A
HETATM    2  N7  UNL     1       1.091  -0.925  39.977  1.00  0.00    -0.018 N
ATOM      3  H7  UNL     1       0.522  -1.585  39.446  1.00  0.00     0.203 HD
HETATM    4  C5  UNL     1       0.535  -0.241  40.978  1.00  0.00     0.731 A
HETATM    5  N10 UNL     1       1.243   0.637  41.703  1.00  0.00    -0.020 N
ATOM      6  H10 UNL     1       0.804   1.154  42.466  1.00  0.00     0.203 HD
HETATM    7  C9  UNL     1       2.535   0.824  41.407  1.00  0.00     0.705 A
HETATM    8  N12 UNL     1       3.082   0.124  40.392  1.00  0.00    -0.020 N
ATOM      9  H12 UNL     1       4.066   0.271  40.173  1.00  0.00     0.203 HD
ENDROOT
BRANCH   1  10
HETATM   10  N6  UNL     1       2.962  -1.499  38.584  1.00  0.00    -0.117 N
HETATM   11  N5  UNL     1       3.187  -0.960  37.472  1.00  0.00    -0.230 N
ATOM     12  H5  UNL     1       3.602  -1.544  36.745  1.00  0.00     0.208 HD
ATOM     13  H6  UNL     1       3.196  -2.482  38.721  1.00  0.00     0.207 HD
BRANCH  11  14
HETATM   14  N4  UNL     1       2.920   0.362  37.150  1.00  0.00    -0.275 N
HETATM   15  C3  UNL     1       3.615   0.919  35.996  1.00  0.00     0.407 C
HETATM   16  N1  UNL     1       5.053   0.849  36.230  1.00  0.00    -0.296 N
HETATM   17  N3  UNL     1       3.227   2.285  35.733  1.00  0.00    -0.039 N
HETATM   18  C1  UNL     1       5.635   1.614  37.316  1.00  0.00     0.158 C
HETATM   19  C2  UNL     1       5.869   0.046  35.407  1.00  0.00     0.333 C
HETATM   20  N2  UNL     1       5.305  -0.706  34.340  1.00  0.00    -0.040 NA
HETATM   21  O1  UNL     1       7.106  -0.014  35.608  1.00  0.00    -0.251 OA
ATOM     22  H33 UNL     1       3.526   2.918  36.476  1.00  0.00     0.279 HD
ATOM     23  H32 UNL     1       3.760   2.694  34.966  1.00  0.00     0.279 HD
ATOM     24  H31 UNL     1       2.222   2.334  35.570  1.00  0.00     0.279 HD
ATOM     25  H4  UNL     1       2.265   0.920  37.697  1.00  0.00     0.185 HD
ENDBRANCH  11  14
ENDBRANCH   1  10
BRANCH   4  26
HETATM   26  N8  UNL     1      -0.714  -0.437  41.247  1.00  0.00    -0.088 N
ATOM     27  H8  UNL     1      -0.956  -1.035  42.037  1.00  0.00     0.213 HD
BRANCH  26  28
HETATM   28  O2  UNL     1      -1.728   0.128  40.513  1.00  0.00    -0.207 OA
BRANCH  28  29
HETATM   29  C6  UNL     1      -1.871  -0.143  39.138  1.00  0.00     0.178 A
HETATM   30  N9  UNL     1      -1.810   0.558  38.112  1.00  0.00    -0.341 N
HETATM   31  C7  UNL     1      -2.064  -0.499  37.228  1.00  0.00     0.256 A
ATOM     32  H9  UNL     1      -1.638   1.553  37.967  1.00  0.00     0.164 HD
HETATM   33  C8  UNL     1      -2.143  -1.365  38.403  1.00  0.00     0.243 A
BRANCH  31  34
HETATM   34  O3  UNL     1      -3.234  -0.369  36.461  1.00  0.00    -0.374 OA
ATOM     35  H3  UNL     1      -3.343  -1.019  35.777  1.00  0.00     0.212 HD
ENDBRANCH  31  34
BRANCH  33  36
HETATM   36  O4  UNL     1      -1.136  -2.345  38.484  1.00  0.00    -0.383 OA
ATOM     37  H4  UNL     1      -1.104  -2.821  39.305  1.00  0.00     0.210 HD
ENDBRANCH  33  36
ENDBRANCH  28  29
ENDBRANCH  26  28
ENDBRANCH   4  26
BRANCH   7  38
HETATM   38  N11 UNL     1       3.261   1.669  42.088  1.00  0.00    -0.234 N
ATOM     39 2H11 UNL     1       3.958   1.329  42.751  1.00  0.00     0.174 HD
ATOM     40 1H11 UNL     1       3.142   2.675  41.968  1.00  0.00     0.174 HD
ENDBRANCH   7  38
TORSDOF 8
ENDMDL