MODEL 4
REMARK VINA RESULT: -7.196663410      3.824      5.223
REMARK  7 active torsions:
REMARK  status: ('A' for Active; 'I' for Inactive)
REMARK       I    between atoms: C1_4  and  N3_6
REMARK    1  A    between atoms: N3_6  and  C2_8
REMARK    2  A    between atoms: C4_11  and  N4_12
REMARK    3  A    between atoms: C4_11  and  C5_16
REMARK       I    between atoms: C5_16  and  N5_18
REMARK       I    between atoms: N6_20  and  C6_22
REMARK       I    between atoms: C6_22  and  N8_27
REMARK    4  A    between atoms: N7_23  and  O3_25
REMARK    5  A    between atoms: N8_27  and  N9_29
REMARK    6  A    between atoms: C7_32  and  O6_33
REMARK    7  A    between atoms: C8_35  and  O7_36
ROOT
HETATM    1  C2  UNL     1      -0.249  -0.055  38.614  1.00  0.00     0.254 C
HETATM    2  O1  UNL     1      -1.073   0.840  39.231  1.00  0.00    -0.361 OA
HETATM    3  C3  UNL     1      -2.324   0.958  38.702  1.00  0.00     0.222 C
HETATM    4  C4  UNL     1      -3.106  -0.338  38.650  1.00  0.00     0.253 C
HETATM    5  C7  UNL     1      -2.234  -1.519  38.241  1.00  0.00     0.199 C
HETATM    6  C8  UNL     1      -0.955  -1.000  37.685  1.00  0.00     0.198 C
ENDROOT
BRANCH   4   7
HETATM    7  N4  UNL     1      -4.144  -0.213  37.724  1.00  0.00    -0.057 N
ATOM      8  H43 UNL     1      -4.641   0.673  37.816  1.00  0.00     0.276 HD
ATOM      9  H42 UNL     1      -3.800  -0.087  36.772  1.00  0.00     0.276 HD
ATOM     10  H41 UNL     1      -4.767  -1.016  37.806  1.00  0.00     0.276 HD
ENDBRANCH   4   7
BRANCH   4  11
HETATM   11  C5  UNL     1      -3.658  -0.687  39.984  1.00  0.00     0.277 C
HETATM   12  O2  UNL     1      -4.469  -1.650  40.022  1.00  0.00    -0.269 OA
HETATM   13  N5  UNL     1      -3.265   0.052  41.117  1.00  0.00    -0.253 N
HETATM   14  N6  UNL     1      -2.407  -0.260  41.961  1.00  0.00    -0.126 N
ATOM     15  H5  UNL     1      -3.738   0.944  41.262  1.00  0.00     0.190 HD
HETATM   16  C6  UNL     1      -1.621  -1.424  41.989  1.00  0.00     0.735 C
ATOM     17  H6  UNL     1      -2.256   0.405  42.719  1.00  0.00     0.206 HD
HETATM   18  N7  UNL     1      -2.073  -2.511  42.508  1.00  0.00    -0.096 N
HETATM   19  N8  UNL     1      -0.292  -1.481  41.457  1.00  0.00    -0.069 N
ATOM     20  H7  UNL     1      -1.465  -3.330  42.506  1.00  0.00     0.213 HD
ATOM     21  H8  UNL     1      -0.111  -2.102  40.668  1.00  0.00     0.212 HD
BRANCH  18  22
HETATM   22  O3  UNL     1      -3.318  -2.639  43.063  1.00  0.00    -0.276 OA
ATOM     23  H3  UNL     1      -3.482  -2.711  43.996  1.00  0.00     0.245 HD
ENDBRANCH  18  22
BRANCH  19  24
HETATM   24  N9  UNL     1       0.759  -0.732  41.961  1.00  0.00    -0.024 N
HETATM   25  O4  UNL     1       1.751  -1.360  42.423  1.00  0.00    -0.516 OA
HETATM   26  O5  UNL     1       0.720   0.646  41.956  1.00  0.00    -0.516 OA
ENDBRANCH  19  24
ENDBRANCH   4  11
BRANCH   5  27
HETATM   27  O6  UNL     1      -1.949  -2.353  39.314  1.00  0.00    -0.390 OA
ATOM     28  H6  UNL     1      -2.721  -2.810  39.625  1.00  0.00     0.210 HD
ENDBRANCH   5  27
BRANCH   6  29
HETATM   29  O7  UNL     1      -1.120  -0.354  36.450  1.00  0.00    -0.389 OA
ATOM     30  H7  UNL     1      -1.829  -0.785  35.985  1.00  0.00     0.210 HD
ENDBRANCH   6  29
BRANCH   1  31
HETATM   31  N3  UNL     1       0.835   0.602  37.922  1.00  0.00    -0.336 N
HETATM   32  C1  UNL     1       2.127   0.021  37.900  1.00  0.00     0.183 C
HETATM   33  N1  UNL     1       2.960   0.246  36.918  1.00  0.00    -0.374 N
HETATM   34  N2  UNL     1       2.594  -0.832  38.927  1.00  0.00    -0.064 NA
ATOM     35  H12 UNL     1       3.890  -0.173  36.902  1.00  0.00     0.158 HD
ATOM     36  H11 UNL     1       2.623   0.861  36.177  1.00  0.00     0.158 HD
ATOM     37  H3  UNL     1       0.670   1.489  37.447  1.00  0.00     0.164 HD
ENDBRANCH   1  31
TORSDOF 7
ENDMDL