MODEL 1
REMARK VINA RESULT: -8.123301460      0.000      0.000
REMARK  10 active torsions:
REMARK  status: ('A' for Active; 'I' for Inactive)
REMARK    1  A    between atoms: C2_2  and  N2_6
REMARK    2  A    between atoms: N2_6  and  N3_8
REMARK    3  A    between atoms: N3_8  and  C3_10
REMARK    4  A    between atoms: C4_13  and  O1_14
REMARK    5  A    between atoms: O1_14  and  C5_15
REMARK    6  A    between atoms: C6_17  and  C7_18
REMARK    7  A    between atoms: C7_18  and  O3_19
REMARK    8  A    between atoms: C7_18  and  O4_21
REMARK    9  A    between atoms: C8_26  and  O5_27
REMARK   10  A    between atoms: C9_29  and  N6_30
ROOT
HETATM    1  C5  UNL     1       2.120   0.507  38.918  1.00  0.00     0.345 C
HETATM    2  O2  UNL     1       2.523   1.723  38.381  1.00  0.00    -0.317 OA
HETATM    3  C6  UNL     1       3.684   1.661  37.662  1.00  0.00     0.382 C
HETATM    4  N5  UNL     1       4.870   1.457  38.434  1.00  0.00    -0.015 N
ATOM      5  H51 UNL     1       5.635   2.024  38.068  1.00  0.00     0.283 HD
ATOM      6  H52 UNL     1       5.248   0.525  38.266  1.00  0.00     0.283 HD
HETATM    7  C8  UNL     1       4.706   1.685  39.841  1.00  0.00     0.360 C
HETATM    8  C9  UNL     1       4.276   0.335  40.433  1.00  0.00     0.313 C
HETATM    9  C10 UNL     1       3.306  -0.246  39.465  1.00  0.00     0.216 C
HETATM   10  O6  UNL     1       3.428  -1.368  39.065  1.00  0.00    -0.290 OA
ENDROOT
BRANCH   1  11
HETATM   11  O1  UNL     1       1.402  -0.288  38.036  1.00  0.00    -0.281 OA
BRANCH  11  12
HETATM   12  C4  UNL     1       0.112   0.072  37.679  1.00  0.00     0.256 A
HETATM   13  N4  UNL     1      -0.605   1.117  38.169  1.00  0.00    -0.151 N
HETATM   14  C3  UNL     1      -1.814   1.161  37.593  1.00  0.00     0.714 A
ATOM     15  H4  UNL     1      -0.270   1.775  38.873  1.00  0.00     0.188 HD
HETATM   16  N8  UNL     1      -1.842   0.126  36.736  1.00  0.00    -0.128 N
HETATM   17  N7  UNL     1      -0.697  -0.533  36.777  1.00  0.00    -0.250 N
ATOM     18  H8  UNL     1      -2.633  -0.116  36.139  1.00  0.00     0.205 HD
ATOM     19  H7  UNL     1      -0.463  -1.358  36.223  1.00  0.00     0.191 HD
BRANCH  14  20
HETATM   20  N3  UNL     1      -2.773   2.022  37.813  1.00  0.00    -0.129 N
ATOM     21  H3  UNL     1      -2.834   2.880  37.265  1.00  0.00     0.205 HD
BRANCH  20  22
HETATM   22  N2  UNL     1      -3.711   1.748  38.811  1.00  0.00    -0.276 N
ATOM     23  H2  UNL     1      -3.724   0.813  39.219  1.00  0.00     0.189 HD
BRANCH  22  24
HETATM   24  C2  UNL     1      -4.646   2.702  39.287  1.00  0.00     0.086 C
HETATM   25  C1  UNL     1      -5.070   2.669  40.690  1.00  0.00     0.090 C
HETATM   26  N1  UNL     1      -5.122   3.597  38.489  1.00  0.00    -0.388 N
ATOM     27  H12 UNL     1      -5.795   4.283  38.831  1.00  0.00     0.157 HD
ATOM     28  H11 UNL     1      -4.827   3.620  37.512  1.00  0.00     0.157 HD
ENDBRANCH  22  24
ENDBRANCH  20  22
ENDBRANCH  14  20
ENDBRANCH  11  12
ENDBRANCH   1  11
BRANCH   3  29
HETATM   29  C7  UNL     1       3.844   3.001  36.939  1.00  0.00     0.310 C
BRANCH  29  30
HETATM   30  O3  UNL     1       4.669   2.898  35.840  1.00  0.00    -0.367 OA
ATOM     31  H3  UNL     1       4.343   3.402  35.103  1.00  0.00     0.212 HD
ENDBRANCH  29  30
BRANCH  29  32
HETATM   32  O4  UNL     1       2.564   3.480  36.598  1.00  0.00    -0.367 OA
ATOM     33  H4  UNL     1       2.283   4.093  37.267  1.00  0.00     0.212 HD
ENDBRANCH  29  32
ENDBRANCH   3  29
BRANCH   8  34
HETATM   34  N6  UNL     1       3.688   0.511  41.744  1.00  0.00    -0.064 N
ATOM     35  H63 UNL     1       3.871  -0.288  42.350  1.00  0.00     0.275 HD
ATOM     36  H62 UNL     1       4.176   1.227  42.283  1.00  0.00     0.275 HD
ATOM     37  H61 UNL     1       2.690   0.708  41.670  1.00  0.00     0.275 HD
ENDBRANCH   8  34
BRANCH   7  38
HETATM   38  O5  UNL     1       5.853   2.098  40.476  1.00  0.00    -0.368 OA
ATOM     39  H5  UNL     1       5.698   2.672  41.216  1.00  0.00     0.212 HD
ENDBRANCH   7  38
TORSDOF 10
ENDMDL