MODEL 5
REMARK VINA RESULT: -8.112505930      3.118      6.348
REMARK  9 active torsions:
REMARK  status: ('A' for Active; 'I' for Inactive)
REMARK    1  A    between atoms: N1_1  and  C1_4
REMARK    2  A    between atoms: N3_8  and  C3_9
REMARK    3  A    between atoms: C4_10  and  N4_11
REMARK    4  A    between atoms: C5_15  and  O1_16
REMARK    5  A    between atoms: C6_18  and  O2_19
REMARK    6  A    between atoms: C7_21  and  N5_22
REMARK    7  A    between atoms: C8_25  and  C9_26
REMARK       I    between atoms: C9_26  and  N6_28
REMARK    8  A    between atoms: N6_28  and  C10_30
REMARK    9  A    between atoms: C10_30  and  C11_31
ROOT
HETATM    1  C1  UNL     1       2.798   0.568  37.367  1.00  0.00     0.707 A
HETATM    2  N2  UNL     1       1.541   0.180  37.601  1.00  0.00    -0.018 N
ATOM      3  H2  UNL     1       0.852  -0.050  36.885  1.00  0.00     0.203 HD
HETATM    4  C2  UNL     1       1.327   0.140  38.916  1.00  0.00     0.738 A
HETATM    5  N3  UNL     1       0.235  -0.191  39.621  1.00  0.00    -0.153 N
HETATM    6  C7  UNL     1       0.365  -0.130  40.963  1.00  0.00     0.152 A
HETATM    7  C8  UNL     1       1.557   0.254  41.548  1.00  0.00     0.162 A
HETATM    8  N8  UNL     1       2.629   0.579  40.804  1.00  0.00    -0.256 N
ATOM      9  H8  UNL     1       3.511   0.862  41.231  1.00  0.00     0.190 HD
HETATM   10  N9  UNL     1       2.483   0.512  39.491  1.00  0.00    -0.004 N
HETATM   11  N10 UNL     1       3.389   0.776  38.552  1.00  0.00    -0.096 N
ATOM     12  H10 UNL     1       4.351   1.079  38.706  1.00  0.00     0.208 HD
ENDROOT
BRANCH   5  13
HETATM   13  C3  UNL     1      -1.012  -0.587  39.095  1.00  0.00     0.174 C
HETATM   14  C4  UNL     1      -1.109  -1.224  37.750  1.00  0.00     0.240 C
HETATM   15  C5  UNL     1      -2.539  -0.617  37.705  1.00  0.00     0.181 C
HETATM   16  C6  UNL     1      -1.894   0.535  38.510  1.00  0.00     0.175 C
BRANCH  14  17
HETATM   17  N4  UNL     1      -1.208  -2.648  37.694  1.00  0.00    -0.070 N
ATOM     18  H43 UNL     1      -0.401  -3.022  37.196  1.00  0.00     0.274 HD
ATOM     19  H42 UNL     1      -1.053  -3.032  38.626  1.00  0.00     0.274 HD
ATOM     20  H41 UNL     1      -2.061  -3.049  37.302  1.00  0.00     0.274 HD
ENDBRANCH  14  17
BRANCH  15  21
HETATM   21  O1  UNL     1      -2.964  -0.272  36.451  1.00  0.00    -0.391 OA
ATOM     22  H1  UNL     1      -3.787   0.201  36.435  1.00  0.00     0.210 HD
ENDBRANCH  15  21
BRANCH  16  23
HETATM   23  O2  UNL     1      -1.145   1.398  37.716  1.00  0.00    -0.391 OA
ATOM     24  H2  UNL     1      -1.675   2.122  37.401  1.00  0.00     0.210 HD
ENDBRANCH  16  23
ENDBRANCH   5  13
BRANCH   6  25
HETATM   25  N5  UNL     1      -0.581  -0.433  41.777  1.00  0.00    -0.383 N
ATOM     26  H52 UNL     1      -1.478   0.018  41.599  1.00  0.00     0.157 HD
ATOM     27  H51 UNL     1      -0.459  -1.070  42.564  1.00  0.00     0.157 HD
ENDBRANCH   6  25
BRANCH   7  28
HETATM   28  C9  UNL     1       1.707   0.324  43.010  1.00  0.00     0.273 C
HETATM   29  O3  UNL     1       1.485  -0.726  43.664  1.00  0.00    -0.266 OA
HETATM   30  N6  UNL     1       2.083   1.515  43.661  1.00  0.00    -0.347 N
ATOM     31  H6  UNL     1       2.260   2.358  43.115  1.00  0.00     0.163 HD
BRANCH  30  32
HETATM   32  C10 UNL     1       2.219   1.547  45.083  1.00  0.00     0.222 C
BRANCH  32  33
HETATM   33  C11 UNL     1       3.581   1.190  45.544  1.00  0.00     0.248 C
HETATM   34  N7  UNL     1       3.930   1.239  46.910  1.00  0.00    -0.061 NA
HETATM   35  O4  UNL     1       4.448   0.839  44.724  1.00  0.00    -0.275 OA
ENDBRANCH  32  33
ENDBRANCH  30  32
ENDBRANCH   7  28
BRANCH   1  36
HETATM   36  N1  UNL     1       3.403   0.734  36.233  1.00  0.00    -0.233 N
ATOM     37  H12 UNL     1       3.703   1.645  35.888  1.00  0.00     0.174 HD
ATOM     38  H11 UNL     1       3.668   0.036  35.538  1.00  0.00     0.174 HD
ENDBRANCH   1  36
TORSDOF 9
ENDMDL