MODEL 2
REMARK VINA RESULT: -9.399258068      3.410      6.066
REMARK  6 active torsions:
REMARK  status: ('A' for Active; 'I' for Inactive)
REMARK       I    between atoms: C1_4  and  N2_5
REMARK       I    between atoms: C1_4  and  N11_31
REMARK    1  A    between atoms: N2_5  and  C2_7
REMARK    2  A    between atoms: C3_10  and  N4_11
REMARK    3  A    between atoms: C4_19  and  C5_20
REMARK       I    between atoms: C5_20  and  N7_22
REMARK    4  A    between atoms: N7_22  and  C6_24
REMARK    5  A    between atoms: C6_24  and  N8_25
REMARK    6  A    between atoms: N11_31  and  N12_33
ROOT
HETATM    1  C2  UNL     1       3.904   1.622  38.744  1.00  0.00     0.102 C
HETATM    2  N3  UNL     1       2.942   1.073  38.053  1.00  0.00    -0.335 N
ATOM      3  H3  UNL     1       3.124   0.832  37.079  1.00  0.00     0.164 HD
HETATM    4  C3  UNL     1       1.628   0.787  38.600  1.00  0.00     0.402 C
HETATM    5  N5  UNL     1       1.740   0.050  39.846  1.00  0.00    -0.289 N
ATOM      6  H5  UNL     1       1.234  -0.834  39.889  1.00  0.00     0.184 HD
HETATM    7  N6  UNL     1       2.457   0.403  40.992  1.00  0.00    -0.300 N
ATOM      8  H6  UNL     1       2.179  -0.088  41.842  1.00  0.00     0.186 HD
HETATM    9  C4  UNL     1       3.399   1.239  41.139  1.00  0.00     0.100 C
HETATM   10  C9  UNL     1       4.015   2.089  40.123  1.00  0.00     0.141 C
ENDROOT
BRANCH   1  11
HETATM   11  N2  UNL     1       5.075   1.783  37.953  1.00  0.00    -0.179 N
HETATM   12  C1  UNL     1       5.049   1.950  36.547  1.00  0.00     0.696 C
HETATM   13  N1  UNL     1       4.502   2.980  36.020  1.00  0.00    -0.233 N
HETATM   14  N11 UNL     1       5.631   0.977  35.693  1.00  0.00    -0.072 N
ATOM     15  H12 UNL     1       4.084   3.679  36.633  1.00  0.00     0.174 HD
ATOM     16  H11 UNL     1       4.484   3.101  35.007  1.00  0.00     0.174 HD
ATOM     17  H11 UNL     1       6.268   1.269  34.952  1.00  0.00     0.212 HD
ATOM     18  H2  UNL     1       5.980   1.777  38.422  1.00  0.00     0.185 HD
BRANCH  14  19
HETATM   19  N12 UNL     1       5.337  -0.377  35.864  1.00  0.00    -0.024 N
HETATM   20  O2  UNL     1       6.189  -1.214  35.508  1.00  0.00    -0.516 OA
HETATM   21  O3  UNL     1       4.149  -0.796  36.409  1.00  0.00    -0.516 OA
ENDBRANCH  14  19
ENDBRANCH   1  11
BRANCH   4  22
HETATM   22  N4  UNL     1       0.783   0.094  37.681  1.00  0.00    -0.039 N
ATOM     23  H43 UNL     1       0.048   0.707  37.328  1.00  0.00     0.279 HD
ATOM     24  H42 UNL     1       1.273  -0.097  36.807  1.00  0.00     0.279 HD
ATOM     25  H41 UNL     1       0.388  -0.761  38.073  1.00  0.00     0.279 HD
ENDBRANCH   4  22
BRANCH   9  26
HETATM   26  C5  UNL     1       3.979   1.405  42.505  1.00  0.00     0.270 C
HETATM   27  O1  UNL     1       5.019   2.118  42.608  1.00  0.00    -0.266 OA
HETATM   28  N7  UNL     1       3.314   0.753  43.543  1.00  0.00    -0.317 N
ATOM     29  H7  UNL     1       2.489   0.203  43.307  1.00  0.00     0.170 HD
BRANCH  28  30
HETATM   30  C6  UNL     1       3.708   0.803  44.910  1.00  0.00     0.200 C
BRANCH  30  31
HETATM   31  N8  UNL     1       3.029   1.598  45.820  1.00  0.00    -0.274 N
HETATM   32  C7  UNL     1       2.117   2.592  45.519  1.00  0.00     0.164 C
HETATM   33  C8  UNL     1       2.145   3.434  46.824  1.00  0.00     0.153 C
HETATM   34  N9  UNL     1       3.543   3.228  47.238  1.00  0.00    -0.124 NA
HETATM   35  N10 UNL     1       3.728   1.887  46.966  1.00  0.00    -0.028 NA
ENDBRANCH  30  31
ENDBRANCH  28  30
ENDBRANCH   9  26
TORSDOF 6
ENDMDL