MODEL 3
REMARK VINA RESULT: -7.741262063      1.238      1.256
REMARK  10 active torsions:
REMARK  status: ('A' for Active; 'I' for Inactive)
REMARK    1  A    between atoms: C5_8  and  N3_9
REMARK    2  A    between atoms: N3_9  and  O2_10
REMARK    3  A    between atoms: N3_9  and  O3_12
REMARK    4  A    between atoms: C6_14  and  O4_15
REMARK    5  A    between atoms: C9_20  and  N4_21
REMARK    6  A    between atoms: N4_21  and  N5_22
REMARK    7  A    between atoms: C10_25  and  C11_26
REMARK    8  A    between atoms: C11_26  and  C12_27
REMARK    9  A    between atoms: C12_27  and  N6_28
REMARK   10  A    between atoms: N6_28  and  N7_29
ROOT
HETATM    1  C1  UNL     1       2.376   2.045  44.896  1.00  0.00     0.163 C
HETATM    2  N1  UNL     1       2.294   1.538  43.537  1.00  0.00    -0.281 N
HETATM    3  C2  UNL     1       3.274   1.879  42.685  1.00  0.00     0.294 A
HETATM    4  O1  UNL     1       4.241   2.608  43.021  1.00  0.00    -0.264 OA
HETATM    5  C3  UNL     1       3.170   1.377  41.382  1.00  0.00     0.179 A
HETATM    6  N2  UNL     1       2.128   0.602  41.053  1.00  0.00    -0.286 N
HETATM    7  C4  UNL     1       1.919   0.064  39.865  1.00  0.00     0.071 A
HETATM    8  C5  UNL     1       0.730  -0.685  39.893  1.00  0.00     0.126 A
HETATM    9  C6  UNL     1       0.263  -0.550  41.177  1.00  0.00     0.127 A
HETATM   10  C7  UNL     1       1.153   0.260  41.890  1.00  0.00     0.145 A
HETATM   11  C8  UNL     1       1.240   0.745  43.177  1.00  0.00     0.280 A
HETATM   12  O5  UNL     1       0.332   0.438  43.989  1.00  0.00    -0.265 OA
HETATM   13  C9  UNL     1       2.881   0.274  38.787  1.00  0.00     0.173 A
HETATM   14  C10 UNL     1       4.035   1.214  39.148  1.00  0.00     0.111 A
HETATM   15  N8  UNL     1       4.026   1.650  40.488  1.00  0.00    -0.365 N
ATOM     16  H8  UNL     1       4.797   2.255  40.771  1.00  0.00     0.161 HD
ENDROOT
BRANCH  14  17
HETATM   17  C11 UNL     1       4.102   2.336  38.142  1.00  0.00     0.045 C
BRANCH  17  18
HETATM   18  C12 UNL     1       4.634   2.009  36.820  1.00  0.00     0.136 C
BRANCH  18  19
HETATM   19  N6  UNL     1       5.519   0.908  36.669  1.00  0.00    -0.148 NA
BRANCH  19  20
HETATM   20  N7  UNL     1       6.043   0.867  35.337  1.00  0.00    -0.348 N
ATOM     21  H72 UNL     1       6.816   0.269  35.046  1.00  0.00     0.172 HD
ATOM     22  H71 UNL     1       5.534   1.514  34.735  1.00  0.00     0.172 HD
ENDBRANCH  19  20
ENDBRANCH  18  19
ENDBRANCH  17  18
ENDBRANCH  14  17
BRANCH  13  23
HETATM   23  N4  UNL     1       3.532  -0.983  38.392  1.00  0.00    -0.135 NA
BRANCH  23  24
HETATM   24  N5  UNL     1       3.156  -1.409  37.139  1.00  0.00    -0.348 N
ATOM     25  H52 UNL     1       3.014  -2.393  36.911  1.00  0.00     0.172 HD
ATOM     26  H51 UNL     1       3.039  -0.641  36.479  1.00  0.00     0.172 HD
ENDBRANCH  23  24
ENDBRANCH  13  23
BRANCH   8  27
HETATM   27  N3  UNL     1       0.181  -1.396  38.780  1.00  0.00    -0.031 NA
BRANCH  27  28
HETATM   28  O2  UNL     1      -1.109  -1.765  39.040  1.00  0.00    -0.284 OA
ATOM     29  H2  UNL     1      -1.653  -1.633  38.273  1.00  0.00     0.240 HD
ENDBRANCH  27  28
BRANCH  27  30
HETATM   30  O3  UNL     1       0.834  -2.554  38.539  1.00  0.00    -0.284 OA
ATOM     31  H3  UNL     1       1.714  -2.554  38.896  1.00  0.00     0.240 HD
ENDBRANCH  27  30
ENDBRANCH   8  27
BRANCH   9  32
HETATM   32  O4  UNL     1      -0.866  -1.088  41.719  1.00  0.00    -0.356 OA
ATOM     33  H4  UNL     1      -1.134  -1.085  42.629  1.00  0.00     0.218 HD
ENDBRANCH   9  32
TORSDOF 10
ENDMDL