MODEL 2
REMARK VINA RESULT: -7.184260187      0.867      1.286
REMARK  9 active torsions:
REMARK  status: ('A' for Active; 'I' for Inactive)
REMARK    1  A    between atoms: O1_2  and  C2_3
REMARK    2  A    between atoms: C2_3  and  C3_4
REMARK    3  A    between atoms: C3_4  and  N1_5
REMARK    4  A    between atoms: N1_5  and  C4_7
REMARK    5  A    between atoms: C4_7  and  N2_9
REMARK    6  A    between atoms: N2_9  and  C5_10
REMARK    7  A    between atoms: N2_9  and  C11_19
REMARK    8  A    between atoms: C5_10  and  C6_11
REMARK    9  A    between atoms: C11_19  and  C12_20
ROOT
HETATM    1  N2  UNL     1      16.774 -13.487  20.842  1.00  0.00    -0.347 N
ENDROOT
BRANCH   1   2
HETATM    2  C4  UNL     1      15.521 -14.093  21.094  1.00  0.00     0.170 C
HETATM    3  S1  UNL     1      15.220 -15.560  20.387  1.00  0.00    -0.041 SA
BRANCH   2   4
HETATM    4  N1  UNL     1      14.503 -13.495  21.875  1.00  0.00    -0.365 N
ATOM      5  H1  UNL     1      14.734 -13.196  22.822  1.00  0.00     0.161 HD
BRANCH   4   6
HETATM    6  C3  UNL     1      13.158 -13.289  21.404  1.00  0.00     0.148 C
BRANCH   6   7
HETATM    7  C2  UNL     1      12.729 -11.884  21.670  1.00  0.00     0.186 C
BRANCH   7   8
HETATM    8  O1  UNL     1      13.799 -11.033  21.882  1.00  0.00    -0.394 OA
HETATM    9  C1  UNL     1      13.508  -9.703  21.696  1.00  0.00     0.201 C
ENDBRANCH   7   8
ENDBRANCH   6   7
ENDBRANCH   4   6
ENDBRANCH   2   4
ENDBRANCH   1   2
BRANCH   1  10
HETATM   10  C5  UNL     1      16.790 -12.076  20.464  1.00  0.00     0.182 C
BRANCH  10  11
HETATM   11  C6  UNL     1      16.234 -11.827  19.122  1.00  0.00     0.027 A
HETATM   12  C7  UNL     1      17.160 -11.908  18.079  1.00  0.00     0.028 A
HETATM   13  C8  UNL     1      16.793 -11.706  16.770  1.00  0.00     0.022 A
HETATM   14  C9  UNL     1      15.469 -11.418  16.512  1.00  0.00     0.026 A
HETATM   15 BR1  UNL     1      14.939 -11.135  14.706  1.00  0.00    -0.050 Br
HETATM   16  C10 UNL     1      14.594 -11.349  17.567  1.00  0.00     0.107 A
HETATM   17  N3  UNL     1      14.966 -11.548  18.844  1.00  0.00    -0.366 N
ATOM     18  H3  UNL     1      14.277 -11.486  19.594  1.00  0.00     0.165 HD
ENDBRANCH  10  11
ENDBRANCH   1  10
BRANCH   1  19
HETATM   19  C11 UNL     1      18.066 -14.105  20.968  1.00  0.00     0.182 C
BRANCH  19  20
HETATM   20  C12 UNL     1      18.664 -13.987  22.323  1.00  0.00     0.028 A
HETATM   21  C13 UNL     1      19.630 -13.160  22.837  1.00  0.00     0.040 A
HETATM   22  C14 UNL     1      19.863 -13.412  24.174  1.00  0.00    -0.008 A
HETATM   23  C15 UNL     1      20.695 -12.897  25.148  1.00  0.00     0.014 A
HETATM   24  C19 UNL     1      18.994 -14.445  24.483  1.00  0.00     0.042 A
HETATM   25  C16 UNL     1      20.709 -13.364  26.446  1.00  0.00     0.001 A
HETATM   26  C17 UNL     1      19.837 -14.395  26.743  1.00  0.00     0.002 A
HETATM   27  C18 UNL     1      18.999 -14.921  25.783  1.00  0.00     0.030 A
HETATM   28  N4  UNL     1      18.298 -14.770  23.386  1.00  0.00    -0.357 N
ATOM     29  H4  UNL     1      17.589 -15.503  23.347  1.00  0.00     0.166 HD
ENDBRANCH  19  20
ENDBRANCH   1  19
TORSDOF 9
ENDMDL