MODEL 2
REMARK VINA RESULT: -8.310313822      1.853      5.600
REMARK  9 active torsions:
REMARK  status: ('A' for Active; 'I' for Inactive)
REMARK    1  A    between atoms: C4_5  and  C5_6
REMARK    2  A    between atoms: N1_8  and  C7_9
REMARK    3  A    between atoms: C7_9  and  C8_10
REMARK    4  A    between atoms: C8_10  and  N2_11
REMARK    5  A    between atoms: N2_11  and  C9_13
REMARK    6  A    between atoms: C10_16  and  N4_17
REMARK    7  A    between atoms: N4_17  and  C11_19
REMARK    8  A    between atoms: C11_19  and  C12_20
REMARK    9  A    between atoms: C12_20  and  C13_21
ROOT
HETATM    1  C9  UNL     1      15.923 -14.890  21.476  1.00  0.00     0.680 A
HETATM    2  N3  UNL     1      15.318 -13.681  21.582  1.00  0.00    -0.176 N
ATOM      3  H3  UNL     1      14.343 -13.606  21.869  1.00  0.00     0.186 HD
HETATM    4  C10 UNL     1      16.035 -12.595  21.302  1.00  0.00     0.129 A
HETATM    5  C19 UNL     1      17.354 -12.694  20.915  1.00  0.00     0.035 A
HETATM    6  C20 UNL     1      18.107 -11.589  20.623  1.00  0.00     0.017 A
HETATM    7  C21 UNL     1      19.436 -11.723  20.236  1.00  0.00     0.001 A
HETATM    8  C22 UNL     1      19.993 -12.996  20.148  1.00  0.00     0.002 A
HETATM    9  C23 UNL     1      19.244 -14.096  20.439  1.00  0.00     0.031 A
HETATM   10  C24 UNL     1      17.934 -13.931  20.818  1.00  0.00     0.063 A
HETATM   11  N5  UNL     1      17.190 -15.016  21.107  1.00  0.00    -0.191 N
ATOM     12  H5  UNL     1      17.606 -15.945  21.040  1.00  0.00     0.184 HD
ENDROOT
BRANCH   1  13
HETATM   13  N2  UNL     1      15.230 -15.921  21.743  1.00  0.00    -0.224 N
ATOM     14  H2  UNL     1      14.216 -15.818  21.781  1.00  0.00     0.177 HD
BRANCH  13  15
HETATM   15  C8  UNL     1      15.784 -17.228  21.997  1.00  0.00     0.168 C
BRANCH  15  16
HETATM   16  C7  UNL     1      15.776 -17.420  23.498  1.00  0.00     0.292 C
BRANCH  16  17
HETATM   17  N1  UNL     1      16.913 -16.781  24.066  1.00  0.00     0.091 N
HETATM   18  C6  UNL     1      17.278 -17.116  25.416  1.00  0.00     0.283 C
HETATM   19  C5  UNL     1      18.720 -16.948  25.037  1.00  0.00     0.075 C
HETATM   20  C25 UNL     1      18.215 -17.190  23.631  1.00  0.00     0.283 C
BRANCH  19  21
HETATM   21  C4  UNL     1      19.308 -15.605  25.162  1.00  0.00    -0.050 A
HETATM   22  C3  UNL     1      19.707 -15.140  26.411  1.00  0.00     0.011 A
HETATM   23  C2  UNL     1      20.257 -13.897  26.617  1.00  0.00     0.043 A
HETATM   24  C1  UNL     1      20.431 -13.052  25.547  1.00  0.00     0.116 A
HETATM   25  F1  UNL     1      20.975 -11.812  25.724  1.00  0.00    -0.206 F
HETATM   26  C27 UNL     1      20.052 -13.474  24.301  1.00  0.00     0.043 A
HETATM   27  C26 UNL     1      19.494 -14.745  24.117  1.00  0.00     0.011 A
ENDBRANCH  19  21
ENDBRANCH  16  17
ENDBRANCH  15  16
ENDBRANCH  13  15
ENDBRANCH   1  13
BRANCH   4  28
HETATM   28  N4  UNL     1      15.542 -11.426  21.379  1.00  0.00    -0.375 N
ATOM     29  H4  UNL     1      16.052 -10.730  21.924  1.00  0.00     0.161 HD
BRANCH  28  30
HETATM   30  C11 UNL     1      14.324 -11.023  20.756  1.00  0.00     0.126 C
BRANCH  30  31
HETATM   31  C12 UNL     1      13.834  -9.703  21.300  1.00  0.00     0.058 C
BRANCH  31  32
HETATM   32  C13 UNL     1      12.830 -10.025  22.354  1.00  0.00    -0.057 A
HETATM   33  C14 UNL     1      12.477  -9.124  23.336  1.00  0.00     0.007 A
HETATM   34  C15 UNL     1      11.541  -9.478  24.290  1.00  0.00     0.001 A
HETATM   35  C16 UNL     1      10.957 -10.713  24.273  1.00  0.00     0.000 A
HETATM   36  C17 UNL     1      11.330 -11.603  23.275  1.00  0.00     0.001 A
HETATM   37  C18 UNL     1      12.253 -11.276  22.321  1.00  0.00     0.007 A
ENDBRANCH  31  32
ENDBRANCH  30  31
ENDBRANCH  28  30
ENDBRANCH   4  28
TORSDOF 9
ENDMDL