MODEL 4
REMARK VINA RESULT: -6.232590467      3.456      7.727
REMARK  8 active torsions:
REMARK  status: ('A' for Active; 'I' for Inactive)
REMARK    1  A    between atoms: C2_2  and  C3_3
REMARK    2  A    between atoms: C11_12  and  O1_13
REMARK    3  A    between atoms: C12_15  and  C13_16
REMARK    4  A    between atoms: C13_16  and  C14_17
REMARK    5  A    between atoms: C14_17  and  N1_18
REMARK    6  A    between atoms: N1_18  and  C15_19
REMARK    7  A    between atoms: N1_18  and  C18_22
REMARK    8  A    between atoms: C21_25  and  C22_26
ROOT
HETATM    1  C3  UNL     1      21.895 -14.899  24.878  1.00  0.00    -0.004 C
HETATM    2  C4  UNL     1      22.747 -15.054  26.165  1.00  0.00     0.021 C
HETATM    3  C5  UNL     1      22.018 -16.193  24.151  1.00  0.00     0.004 A
HETATM    4  C6  UNL     1      22.362 -17.410  24.977  1.00  0.00     0.006 A
HETATM    5  C7  UNL     1      20.970 -17.940  24.699  1.00  0.00     0.007 A
HETATM    6  C8  UNL     1      20.685 -16.717  23.857  1.00  0.00     0.012 A
HETATM    7  C9  UNL     1      19.518 -15.965  24.373  1.00  0.00     0.044 C
HETATM    8 BR1  UNL     1      17.976 -17.119  24.099  1.00  0.00    -0.083 Br
HETATM    9  C10 UNL     1      19.655 -15.532  25.817  1.00  0.00     0.057 C
HETATM   10  C11 UNL     1      18.566 -14.570  25.533  1.00  0.00     0.140 C
HETATM   11  C12 UNL     1      19.437 -14.551  24.277  1.00  0.00     0.043 C
HETATM   12  C21 UNL     1      20.573 -14.483  25.326  1.00  0.00     0.082 C
ENDROOT
BRANCH  11  13
HETATM   13  C13 UNL     1      19.338 -13.536  23.342  1.00  0.00     0.006 C
BRANCH  13  14
HETATM   14  C14 UNL     1      19.477 -13.757  21.914  1.00  0.00     0.088 C
BRANCH  14  15
HETATM   15  N1  UNL     1      18.365 -13.817  21.031  1.00  0.00    -0.358 N
BRANCH  15  16
HETATM   16  C15 UNL     1      17.321 -14.762  20.996  1.00  0.00    -0.002 C
HETATM   17  C16 UNL     1      17.546 -16.016  20.696  1.00  0.00     0.038 C
HETATM   18  C17 UNL     1      15.942 -14.377  21.351  1.00  0.00     0.067 C
ENDBRANCH  15  16
BRANCH  15  19
HETATM   19  C18 UNL     1      18.349 -12.825  19.936  1.00  0.00     0.081 C
HETATM   20  C19 UNL     1      19.738 -12.663  19.338  1.00  0.00     0.032 C
HETATM   21  C20 UNL     1      17.858 -11.523  20.473  1.00  0.00     0.032 C
ENDBRANCH  15  19
ENDBRANCH  14  15
ENDBRANCH  13  14
ENDBRANCH  11  13
BRANCH  10  22
HETATM   22  O1  UNL     1      17.275 -15.025  25.401  1.00  0.00    -0.394 OA
ATOM     23  H1  UNL     1      16.566 -14.556  25.826  1.00  0.00     0.210 HD
ENDBRANCH  10  22
BRANCH  12  24
HETATM   24  C22 UNL     1      20.665 -13.254  26.118  1.00  0.00     0.184 C
HETATM   25  O2  UNL     1      20.475 -13.399  27.383  1.00  0.00    -0.647 OA
HETATM   26  O3  UNL     1      20.924 -11.985  25.712  1.00  0.00    -0.647 OA
ENDBRANCH  12  24
BRANCH   1  27
HETATM   27  C2  UNL     1      22.600 -13.851  24.108  1.00  0.00    -0.026 C
HETATM   28  C1  UNL     1      23.948 -13.778  24.164  1.00  0.00     0.008 C
ENDBRANCH   1  27
TORSDOF 8
ENDMDL