MODEL 4
REMARK VINA RESULT: -8.858889961      0.885      1.958
REMARK  8 active torsions:
REMARK  status: ('A' for Active; 'I' for Inactive)
REMARK    1  A    between atoms: C2_2  and  C3_3
REMARK    2  A    between atoms: C3_3  and  C4_4
REMARK    3  A    between atoms: C7_7  and  C8_8
REMARK    4  A    between atoms: C10_10  and  N1_11
REMARK    5  A    between atoms: N1_11  and  C11_13
REMARK    6  A    between atoms: C11_13  and  C12_14
REMARK    7  A    between atoms: C14_18  and  C15_19
REMARK    8  A    between atoms: C15_19  and  C16_21
ROOT
HETATM    1  N1  UNL     1      16.495 -11.608  18.658  1.00  0.00    -0.369 N
ATOM      2  H1  UNL     1      16.342 -10.633  18.400  1.00  0.00     0.161 HD
ENDROOT
BRANCH   1   3
HETATM    3  C10 UNL     1      17.641 -11.992  19.093  1.00  0.00     0.104 A
HETATM    4  C9  UNL     1      17.815 -12.428  20.389  1.00  0.00     0.078 A
HETATM    5  C8  UNL     1      19.055 -12.840  20.842  1.00  0.00     0.046 A
HETATM    6  N5  UNL     1      20.101 -12.800  19.963  1.00  0.00    -0.352 N
HETATM    7  C23 UNL     1      19.933 -12.378  18.714  1.00  0.00     0.182 A
ATOM      8  H5  UNL     1      21.027 -13.098  20.271  1.00  0.00     0.166 HD
HETATM    9  N4  UNL     1      18.706 -11.975  18.278  1.00  0.00    -0.339 N
ATOM     10  H4  UNL     1      18.596 -11.655  17.316  1.00  0.00     0.168 HD
BRANCH   5  11
HETATM   11  C7  UNL     1      19.300 -13.318  22.197  1.00  0.00    -0.009 A
HETATM   12  C6  UNL     1      18.239 -13.636  23.009  1.00  0.00     0.014 A
HETATM   13  C5  UNL     1      18.406 -14.091  24.310  1.00  0.00     0.008 A
HETATM   14  C4  UNL     1      19.686 -14.227  24.797  1.00  0.00    -0.058 A
HETATM   15  C25 UNL     1      20.746 -13.907  23.980  1.00  0.00     0.008 A
HETATM   16  C24 UNL     1      20.574 -13.448  22.670  1.00  0.00     0.014 A
BRANCH  14  17
HETATM   17  C3  UNL     1      19.905 -14.714  26.199  1.00  0.00     0.038 C
BRANCH  17  18
HETATM   18  C2  UNL     1      21.191 -14.143  26.723  1.00  0.00     0.000 C
HETATM   19  C1  UNL     1      20.972 -12.692  27.115  1.00  0.00     0.005 C
ENDBRANCH  17  18
ENDBRANCH  14  17
ENDBRANCH   5  11
ENDBRANCH   1   3
BRANCH   1  20
HETATM   20  C11 UNL     1      15.432 -12.563  18.538  1.00  0.00     0.197 C
BRANCH  20  21
HETATM   21  C12 UNL     1      14.537 -12.632  19.722  1.00  0.00     0.101 A
HETATM   22  N2  UNL     1      14.553 -13.661  20.619  1.00  0.00    -0.352 N
HETATM   23  C13 UNL     1      13.627 -13.423  21.554  1.00  0.00     0.123 A
ATOM     24  H2  UNL     1      15.168 -14.474  20.583  1.00  0.00     0.166 HD
HETATM   25  C14 UNL     1      12.994 -12.216  21.258  1.00  0.00     0.102 A
HETATM   26  N3  UNL     1      13.589 -11.786  20.141  1.00  0.00    -0.335 N
HETATM   27  C22 UNL     1      13.272 -10.540  19.495  1.00  0.00     0.158 C
BRANCH  25  28
HETATM   28  C15 UNL     1      11.946 -11.677  22.091  1.00  0.00     0.210 C
HETATM   29  O1  UNL     1      10.819 -12.296  22.130  1.00  0.00    -0.285 OA
BRANCH  28  30
HETATM   30  C16 UNL     1      12.012 -10.492  22.908  1.00  0.00     0.017 A
HETATM   31  C17 UNL     1      11.229 -10.364  24.044  1.00  0.00     0.018 A
HETATM   32  C18 UNL     1      11.254  -9.230  24.826  1.00  0.00     0.043 A
HETATM   33  C19 UNL     1      12.074  -8.181  24.484  1.00  0.00     0.116 A
HETATM   34  F1  UNL     1      12.129  -7.040  25.229  1.00  0.00    -0.206 F
HETATM   35  C20 UNL     1      12.868  -8.274  23.357  1.00  0.00     0.043 A
HETATM   36  C21 UNL     1      12.816  -9.414  22.606  1.00  0.00     0.018 A
ENDBRANCH  28  30
ENDBRANCH  25  28
ENDBRANCH  20  21
ENDBRANCH   1  20
TORSDOF 8
ENDMDL