MODEL 2
REMARK VINA RESULT: -8.907022389      1.320      1.547
REMARK  10 active torsions:
REMARK  status: ('A' for Active; 'I' for Inactive)
REMARK    1  A    between atoms: C2_2  and  N1_4
REMARK    2  A    between atoms: N1_4  and  C4_5
REMARK    3  A    between atoms: N1_4  and  C11_13
REMARK    4  A    between atoms: C4_5  and  C5_6
REMARK    5  A    between atoms: C11_13  and  N2_15
REMARK    6  A    between atoms: N2_15  and  N3_17
REMARK    7  A    between atoms: C12_19  and  C13_20
REMARK    8  A    between atoms: C12_19  and  C19_26
REMARK    9  A    between atoms: N4_29  and  C22_30
REMARK   10  A    between atoms: C22_30  and  O1_31
ROOT
HETATM    1  N3  UNL     1      15.847 -13.475  20.497  1.00  0.00    -0.297 N
ATOM      2  H3  UNL     1      16.541 -13.738  19.797  1.00  0.00     0.187 HD
HETATM    3  C12 UNL     1      15.079 -12.507  20.133  1.00  0.00     0.068 C
ENDROOT
BRANCH   1   4
HETATM    4  N2  UNL     1      15.907 -14.210  21.632  1.00  0.00    -0.276 N
ATOM      5  H2  UNL     1      15.047 -14.351  22.163  1.00  0.00     0.189 HD
BRANCH   4   6
HETATM    6  C11 UNL     1      17.130 -14.808  22.133  1.00  0.00     0.189 C
HETATM    7  S1  UNL     1      17.134 -16.431  22.121  1.00  0.00    -0.039 SA
BRANCH   6   8
HETATM    8  N1  UNL     1      18.234 -14.067  22.577  1.00  0.00    -0.349 N
BRANCH   8   9
HETATM    9  C2  UNL     1      19.064 -13.238  21.787  1.00  0.00     0.079 C
HETATM   10  C1  UNL     1      18.639 -11.850  21.456  1.00  0.00     0.032 C
HETATM   11  C3  UNL     1      19.620 -13.904  20.524  1.00  0.00     0.032 C
ENDBRANCH   8   9
BRANCH   8  12
HETATM   12  C4  UNL     1      18.494 -14.179  24.029  1.00  0.00     0.167 C
BRANCH  12  13
HETATM   13  C5  UNL     1      19.916 -14.014  24.360  1.00  0.00    -0.002 A
HETATM   14  C6  UNL     1      20.364 -12.926  25.073  1.00  0.00     0.012 A
HETATM   15  C7  UNL     1      21.720 -12.763  25.358  1.00  0.00     0.001 A
HETATM   16  C8  UNL     1      22.639 -13.682  24.934  1.00  0.00     0.003 A
HETATM   17  C9  UNL     1      22.224 -14.780  24.219  1.00  0.00     0.043 A
HETATM   18  C10 UNL     1      20.882 -14.922  23.949  1.00  0.00     0.124 A
HETATM   19  F1  UNL     1      20.474 -16.021  23.234  1.00  0.00    -0.205 F
ENDBRANCH  12  13
ENDBRANCH   8  12
ENDBRANCH   6   8
ENDBRANCH   4   6
ENDBRANCH   1   4
BRANCH   3  20
HETATM   20  C13 UNL     1      15.383 -12.007  18.785  1.00  0.00    -0.007 A
HETATM   21  C14 UNL     1      14.438 -11.640  17.871  1.00  0.00     0.014 A
HETATM   22  C15 UNL     1      14.762 -11.228  16.565  1.00  0.00     0.001 A
HETATM   23  C16 UNL     1      16.083 -11.187  16.179  1.00  0.00     0.000 A
HETATM   24  C17 UNL     1      17.056 -11.553  17.096  1.00  0.00     0.001 A
HETATM   25  C18 UNL     1      16.715 -11.952  18.363  1.00  0.00     0.014 A
ENDBRANCH   3  20
BRANCH   3  26
HETATM   26  C19 UNL     1      14.048 -11.900  20.941  1.00  0.00    -0.005 A
HETATM   27  C20 UNL     1      14.157 -10.582  21.302  1.00  0.00     0.031 A
HETATM   28  C21 UNL     1      13.255 -10.012  22.173  1.00  0.00     0.093 A
HETATM   29  N4  UNL     1      12.244 -10.714  22.695  1.00  0.00    -0.345 N
HETATM   30  C23 UNL     1      12.118 -12.005  22.355  1.00  0.00     0.093 A
HETATM   31  C24 UNL     1      13.008 -12.620  21.481  1.00  0.00     0.031 A
BRANCH  29  32
HETATM   32  C22 UNL     1      11.297 -10.086  23.618  1.00  0.00     0.294 C
BRANCH  32  33
HETATM   33  O1  UNL     1      10.512 -11.018  24.266  1.00  0.00    -0.382 OA
ATOM     34  H1  UNL     1      10.413 -10.819  25.189  1.00  0.00     0.211 HD
ENDBRANCH  32  33
ENDBRANCH  29  32
ENDBRANCH   3  26
TORSDOF 10
ENDMDL