MODEL 1
REMARK VINA RESULT: -6.958557102      0.000      0.000
REMARK  8 active torsions:
REMARK  status: ('A' for Active; 'I' for Inactive)
REMARK    1  A    between atoms: C2_2  and  C4_4
REMARK    2  A    between atoms: C4_4  and  N1_5
REMARK    3  A    between atoms: N1_5  and  C5_6
REMARK    4  A    between atoms: N1_5  and  S1_24
REMARK    5  A    between atoms: C5_6  and  C6_7
REMARK    6  A    between atoms: C6_7  and  C7_8
REMARK    7  A    between atoms: C7_8  and  N2_9
REMARK    8  A    between atoms: N2_9  and  C8_11
ROOT
HETATM    1  N2  UNL     1      13.319 -14.059  20.508  1.00  0.00    -0.389 N
ATOM      2  H2  UNL     1      12.564 -14.260  21.163  1.00  0.00     0.159 HD
ENDROOT
BRANCH   1   3
HETATM    3  C7  UNL     1      14.255 -15.129  20.229  1.00  0.00     0.121 C
BRANCH   3   4
HETATM    4  C6  UNL     1      15.425 -14.935  21.200  1.00  0.00     0.040 C
BRANCH   4   5
HETATM    5  C5  UNL     1      16.579 -14.340  20.449  1.00  0.00     0.142 C
BRANCH   5   6
HETATM    6  N1  UNL     1      17.311 -13.348  21.143  1.00  0.00    -0.290 N
BRANCH   6   7
HETATM    7  C4  UNL     1      17.281 -13.336  22.537  1.00  0.00     0.079 C
BRANCH   7   8
HETATM    8  C2  UNL     1      18.320 -14.130  23.278  1.00  0.00     0.017 C
HETATM    9  C1  UNL     1      19.691 -13.476  23.153  1.00  0.00     0.015 C
HETATM   10  C3  UNL     1      17.989 -14.535  24.668  1.00  0.00     0.015 C
ENDBRANCH   7   8
ENDBRANCH   6   7
BRANCH   6  11
HETATM   11  S1  UNL     1      17.463 -11.930  20.261  1.00  0.00     0.228 S
HETATM   12  C17 UNL     1      17.485 -12.140  18.523  1.00  0.00     0.186 C
HETATM   13  O1  UNL     1      18.680 -11.117  20.721  1.00  0.00    -0.206 OA
HETATM   14  O2  UNL     1      16.293 -10.983  20.556  1.00  0.00    -0.206 OA
ENDBRANCH   6  11
ENDBRANCH   5   6
ENDBRANCH   4   5
ENDBRANCH   3   4
ENDBRANCH   1   3
BRANCH   1  15
HETATM   15  C8  UNL     1      13.357 -12.890  20.008  1.00  0.00     0.043 A
HETATM   16  C9  UNL     1      13.872 -12.552  18.778  1.00  0.00     0.075 A
HETATM   17  C10 UNL     1      13.872 -11.254  18.312  1.00  0.00     0.118 A
HETATM   18  N3  UNL     1      14.394 -10.878  17.053  1.00  0.00    -0.083 NA
HETATM   19  N4  UNL     1      13.343 -10.295  19.104  1.00  0.00    -0.344 N
HETATM   20  C11 UNL     1      12.829 -10.545  20.302  1.00  0.00     0.046 A
ATOM     21  H4  UNL     1      13.340  -9.333  18.766  1.00  0.00     0.167 HD
HETATM   22  C12 UNL     1      12.301  -9.510  21.065  1.00  0.00     0.032 A
HETATM   23  C16 UNL     1      12.832 -11.859  20.766  1.00  0.00     0.018 A
HETATM   24  C13 UNL     1      11.772  -9.807  22.308  1.00  0.00     0.021 A
HETATM   25  C14 UNL     1      11.775 -11.092  22.767  1.00  0.00     0.011 A
HETATM   26 BR1  UNL     1      11.035 -11.450  24.485  1.00  0.00    -0.051 Br
HETATM   27  C15 UNL     1      12.297 -12.103  22.005  1.00  0.00     0.035 A
ENDBRANCH   1  15
TORSDOF 8
ENDMDL