MODEL 2
REMARK VINA RESULT: -8.219153229      1.285      1.500
REMARK  9 active torsions:
REMARK  status: ('A' for Active; 'I' for Inactive)
REMARK    1  A    between atoms: C1_2  and  C2_3
REMARK       I    between atoms: C1_2  and  N1_20
REMARK    2  A    between atoms: C2_3  and  C3_4
REMARK    3  A    between atoms: C3_4  and  O2_5
REMARK    4  A    between atoms: C3_4  and  C4_7
REMARK    5  A    between atoms: C3_4  and  C10_13
REMARK    6  A    between atoms: N1_20  and  C16_22
REMARK    7  A    between atoms: C16_22  and  C17_23
REMARK    8  A    between atoms: C17_23  and  C18_24
REMARK    9  A    between atoms: N2_29  and  O3_30
ROOT
HETATM    1  C3  UNL     1      17.354 -14.151  22.705  1.00  0.00     0.121 C
ENDROOT
BRANCH   1   2
HETATM    2  C2  UNL     1      16.572 -15.235  22.096  1.00  0.00     0.150 C
BRANCH   2   3
HETATM    3  C1  UNL     1      15.529 -14.808  21.128  1.00  0.00     0.221 C
HETATM    4  O1  UNL     1      15.745 -15.073  19.908  1.00  0.00    -0.273 OA
HETATM    5  N1  UNL     1      14.353 -14.145  21.487  1.00  0.00    -0.361 N
ATOM      6  H1  UNL     1      14.193 -13.939  22.473  1.00  0.00     0.162 HD
BRANCH   5   7
HETATM    7  C16 UNL     1      13.357 -13.738  20.529  1.00  0.00     0.128 C
BRANCH   7   8
HETATM    8  C17 UNL     1      12.073 -13.259  21.102  1.00  0.00     0.079 C
BRANCH   8   9
HETATM    9  C18 UNL     1      12.312 -11.879  21.654  1.00  0.00     0.041 A
HETATM   10  C19 UNL     1      13.291 -11.073  21.118  1.00  0.00     0.027 A
HETATM   11  C20 UNL     1      13.545  -9.812  21.587  1.00  0.00     0.003 A
HETATM   12  C21 UNL     1      12.781  -9.335  22.644  1.00  0.00     0.020 A
HETATM   13  C22 UNL     1      11.806 -10.146  23.174  1.00  0.00     0.123 A
HETATM   14  N2  UNL     1      11.590 -11.386  22.677  1.00  0.00    -0.240 N
BRANCH  14  15
HETATM   15  O3  UNL     1      10.614 -12.160  23.230  1.00  0.00    -0.283 OA
ATOM     16  H3  UNL     1       9.729 -11.819  23.281  1.00  0.00     0.245 HD
ENDBRANCH  14  15
ENDBRANCH   8   9
ENDBRANCH   7   8
ENDBRANCH   5   7
ENDBRANCH   2   3
ENDBRANCH   1   2
BRANCH   1  17
HETATM   17  O2  UNL     1      16.417 -13.106  23.013  1.00  0.00    -0.380 OA
ATOM     18  H2  UNL     1      16.581 -12.411  22.387  1.00  0.00     0.211 HD
ENDBRANCH   1  17
BRANCH   1  19
HETATM   19  C4  UNL     1      18.087 -14.388  23.922  1.00  0.00    -0.019 A
HETATM   20  C5  UNL     1      19.153 -13.691  24.424  1.00  0.00     0.010 A
HETATM   21  C6  UNL     1      19.781 -14.025  25.601  1.00  0.00     0.001 A
HETATM   22  C7  UNL     1      19.341 -15.110  26.340  1.00  0.00     0.000 A
HETATM   23  C8  UNL     1      18.276 -15.830  25.869  1.00  0.00     0.001 A
HETATM   24  C9  UNL     1      17.665 -15.483  24.695  1.00  0.00     0.010 A
ENDBRANCH   1  19
BRANCH   1  25
HETATM   25  C10 UNL     1      18.250 -13.546  21.653  1.00  0.00    -0.002 A
HETATM   26  C11 UNL     1      18.112 -12.194  21.320  1.00  0.00     0.012 A
HETATM   27  C12 UNL     1      18.919 -11.652  20.377  1.00  0.00     0.001 A
HETATM   28  C13 UNL     1      19.894 -12.366  19.709  1.00  0.00     0.001 A
HETATM   29  C14 UNL     1      20.038 -13.679  20.022  1.00  0.00     0.020 A
HETATM   30  C15 UNL     1      19.217 -14.267  20.992  1.00  0.00     0.020 A
HETATM   31 BR1  UNL     1      19.526 -16.102  21.316  1.00  0.00    -0.050 Br
ENDBRANCH   1  25
TORSDOF 9
ENDMDL