MODEL 4
REMARK VINA RESULT: -7.402473369      3.253      5.093
REMARK  10 active torsions:
REMARK  status: ('A' for Active; 'I' for Inactive)
REMARK    1  A    between atoms: C2_2  and  C3_3
REMARK    2  A    between atoms: C3_3  and  C4_4
REMARK    3  A    between atoms: C3_3  and  N1_6
REMARK    4  A    between atoms: N1_6  and  C6_7
REMARK    5  A    between atoms: N1_6  and  C8_9
REMARK    6  A    between atoms: C8_9  and  C9_10
REMARK    7  A    between atoms: C9_10  and  C10_11
REMARK    8  A    between atoms: C10_11  and  N2_12
REMARK    9  A    between atoms: N2_12  and  C11_14
REMARK   10  A    between atoms: C12_17  and  N4_18
REMARK       I    between atoms: N4_18  and  C13_20
ROOT
HETATM    1  C11 UNL     1      13.946 -11.557  18.790  1.00  0.00     0.680 A
HETATM    2  N3  UNL     1      13.462 -12.732  19.233  1.00  0.00    -0.176 N
ATOM      3  H3  UNL     1      13.594 -13.544  18.630  1.00  0.00     0.186 HD
HETATM    4  C12 UNL     1      12.825 -12.934  20.391  1.00  0.00     0.136 A
HETATM    5  C15 UNL     1      12.649 -11.811  21.206  1.00  0.00     0.037 A
HETATM    6  C16 UNL     1      11.994 -11.970  22.414  1.00  0.00     0.036 A
HETATM    7  C17 UNL     1      11.810 -10.882  23.238  1.00  0.00     0.012 A
HETATM    8 BR1  UNL     1      10.928 -11.030  24.929  1.00  0.00    -0.051 Br
HETATM    9  C18 UNL     1      12.288  -9.650  22.832  1.00  0.00     0.021 A
HETATM   10  C19 UNL     1      12.933  -9.531  21.623  1.00  0.00     0.032 A
HETATM   11  C20 UNL     1      13.130 -10.610  20.781  1.00  0.00     0.063 A
HETATM   12  N5  UNL     1      13.768 -10.499  19.589  1.00  0.00    -0.191 N
ATOM     13  H5  UNL     1      14.120  -9.588  19.295  1.00  0.00     0.184 HD
ENDROOT
BRANCH   1  14
HETATM   14  N2  UNL     1      14.544 -11.470  17.658  1.00  0.00    -0.226 N
ATOM     15  H2  UNL     1      14.156 -10.785  17.010  1.00  0.00     0.177 HD
BRANCH  14  16
HETATM   16  C10 UNL     1      15.661 -12.188  17.184  1.00  0.00     0.143 C
BRANCH  16  17
HETATM   17  C9  UNL     1      16.968 -11.844  17.855  1.00  0.00     0.065 C
BRANCH  17  18
HETATM   18  C8  UNL     1      17.276 -12.812  18.951  1.00  0.00     0.065 C
BRANCH  18  19
HETATM   19  N1  UNL     1      17.787 -12.276  20.148  1.00  0.00    -0.370 N
BRANCH  19  20
HETATM   20  C3  UNL     1      19.067 -12.683  20.522  1.00  0.00     0.087 C
BRANCH  20  21
HETATM   21  C2  UNL     1      20.173 -11.877  19.950  1.00  0.00     0.021 C
HETATM   22  C1  UNL     1      20.468 -12.006  18.505  1.00  0.00     0.007 C
ENDBRANCH  20  21
BRANCH  20  23
HETATM   23  C4  UNL     1      19.373 -14.161  20.435  1.00  0.00     0.021 C
HETATM   24  C5  UNL     1      19.572 -14.664  21.877  1.00  0.00     0.007 C
ENDBRANCH  20  23
ENDBRANCH  19  20
BRANCH  19  25
HETATM   25  C6  UNL     1      16.899 -11.778  21.117  1.00  0.00     0.059 C
HETATM   26  C7  UNL     1      16.093 -12.774  21.900  1.00  0.00     0.055 C
ENDBRANCH  19  25
ENDBRANCH  18  19
ENDBRANCH  17  18
ENDBRANCH  16  17
ENDBRANCH  14  16
ENDBRANCH   1  14
BRANCH   4  27
HETATM   27  N4  UNL     1      12.388 -14.043  20.833  1.00  0.00    -0.312 N
HETATM   28  C13 UNL     1      12.626 -15.351  20.383  1.00  0.00     0.219 C
HETATM   29  C14 UNL     1      13.426 -16.306  21.202  1.00  0.00     0.117 C
HETATM   30  O1  UNL     1      12.155 -15.699  19.283  1.00  0.00    -0.274 OA
ATOM     31  H4  UNL     1      11.767 -13.971  21.640  1.00  0.00     0.170 HD
ENDBRANCH   4  27
TORSDOF 10
ENDMDL