MODEL 2
REMARK VINA RESULT: -8.374475729      0.576      1.043
REMARK  8 active torsions:
REMARK  status: ('A' for Active; 'I' for Inactive)
REMARK    1  A    between atoms: N1_2  and  C2_3
REMARK    2  A    between atoms: N1_2  and  C20_29
REMARK    3  A    between atoms: C2_3  and  C3_4
REMARK       I    between atoms: C3_4  and  N2_6
REMARK    4  A    between atoms: N2_6  and  C4_8
REMARK    5  A    between atoms: C10_14  and  C11_15
REMARK    6  A    between atoms: C11_15  and  C12_16
REMARK    7  A    between atoms: C12_16  and  N3_17
REMARK    8  A    between atoms: C20_29  and  C21_30
ROOT
HETATM    1  C4  UNL     1      17.633 -13.930  22.134  1.00  0.00     0.035 A
HETATM    2  C5  UNL     1      17.596 -15.112  21.413  1.00  0.00     0.032 A
HETATM    3  C6  UNL     1      18.578 -16.032  21.551  1.00  0.00     0.033 A
HETATM    4  C7  UNL     1      19.631 -15.790  22.425  1.00  0.00     0.045 A
HETATM    5  C8  UNL     1      19.687 -14.625  23.150  1.00  0.00     0.000 A
HETATM    6  C9  UNL     1      18.677 -13.711  22.988  1.00  0.00     0.043 A
HETATM    7  C10 UNL     1      20.766 -14.448  23.990  1.00  0.00    -0.032 A
HETATM    8  C13 UNL     1      21.769 -15.389  24.117  1.00  0.00    -0.002 A
HETATM    9  C14 UNL     1      22.825 -15.171  24.967  1.00  0.00     0.014 A
HETATM   10  C15 UNL     1      23.826 -16.117  25.089  1.00  0.00     0.001 A
HETATM   11  C16 UNL     1      23.741 -17.265  24.351  1.00  0.00     0.002 A
HETATM   12  C17 UNL     1      22.659 -17.481  23.486  1.00  0.00     0.030 A
HETATM   13  C18 UNL     1      21.657 -16.553  23.353  1.00  0.00     0.045 A
HETATM   14  N4  UNL     1      20.603 -16.749  22.521  1.00  0.00    -0.350 N
HETATM   15  C19 UNL     1      20.463 -17.939  21.746  1.00  0.00     0.156 C
ENDROOT
BRANCH   1  16
HETATM   16  N2  UNL     1      16.568 -13.036  21.945  1.00  0.00    -0.323 N
HETATM   17  C3  UNL     1      16.595 -12.005  21.001  1.00  0.00     0.261 C
HETATM   18  O1  UNL     1      17.596 -11.843  20.264  1.00  0.00    -0.267 OA
ATOM     19  H2  UNL     1      15.735 -13.144  22.524  1.00  0.00     0.169 HD
BRANCH  17  20
HETATM   20  C2  UNL     1      15.496 -11.029  20.769  1.00  0.00     0.160 C
BRANCH  20  21
HETATM   21  N1  UNL     1      14.380 -11.495  20.063  1.00  0.00    -0.386 N
HETATM   22  C1  UNL     1      14.539 -12.522  19.109  1.00  0.00     0.149 C
BRANCH  21  23
HETATM   23  C20 UNL     1      13.210 -10.709  20.017  1.00  0.00     0.160 C
BRANCH  23  24
HETATM   24  C21 UNL     1      12.593 -10.636  21.382  1.00  0.00    -0.040 A
HETATM   25  C22 UNL     1      11.932 -11.742  21.910  1.00  0.00     0.012 A
HETATM   26  C23 UNL     1      11.349 -11.733  23.153  1.00  0.00     0.043 A
HETATM   27  C24 UNL     1      11.408 -10.594  23.927  1.00  0.00     0.116 A
HETATM   28  F1  UNL     1      10.821 -10.600  25.167  1.00  0.00    -0.206 F
HETATM   29  C25 UNL     1      12.060  -9.484  23.422  1.00  0.00     0.043 A
HETATM   30  C26 UNL     1      12.639  -9.510  22.172  1.00  0.00     0.012 A
ENDBRANCH  23  24
ENDBRANCH  21  23
ENDBRANCH  20  21
ENDBRANCH  17  20
ENDBRANCH   1  16
BRANCH   7  31
HETATM   31  C11 UNL     1      20.817 -13.210  24.774  1.00  0.00     0.067 C
BRANCH  31  32
HETATM   32  C12 UNL     1      20.309 -13.505  26.192  1.00  0.00     0.234 C
BRANCH  32  33
HETATM   33  N3  UNL     1      21.069 -12.653  27.088  1.00  0.00    -0.079 N
ATOM     34  H33 UNL     1      21.706 -12.022  26.601  1.00  0.00     0.274 HD
ATOM     35  H32 UNL     1      20.503 -11.937  27.542  1.00  0.00     0.274 HD
ATOM     36  H31 UNL     1      21.541 -13.272  27.747  1.00  0.00     0.274 HD
ENDBRANCH  32  33
ENDBRANCH  31  32
ENDBRANCH   7  31
TORSDOF 8
ENDMDL