MODEL 3
REMARK VINA RESULT: -8.240992673      1.676      2.256
REMARK  7 active torsions:
REMARK  status: ('A' for Active; 'I' for Inactive)
REMARK    1  A    between atoms: C2_2  and  C3_3
REMARK    2  A    between atoms: C3_3  and  C4_4
REMARK    3  A    between atoms: C4_4  and  O1_5
REMARK    4  A    between atoms: C4_4  and  C20_26
REMARK    5  A    between atoms: O1_5  and  C5_6
REMARK    6  A    between atoms: C11_14  and  C12_15
REMARK    7  A    between atoms: C16_20  and  O2_21
ROOT
HETATM    1  C5  UNL     1      20.449 -13.126  21.970  1.00  0.00     0.072 A
HETATM    2  C6  UNL     1      20.498 -12.524  20.734  1.00  0.00     0.039 A
HETATM    3  C7  UNL     1      19.394 -12.252  19.953  1.00  0.00     0.035 A
HETATM    4  C8  UNL     1      18.166 -12.609  20.451  1.00  0.00     0.062 A
HETATM    5  C9  UNL     1      18.050 -13.210  21.672  1.00  0.00     0.063 A
HETATM    6  C10 UNL     1      19.175 -13.474  22.439  1.00  0.00     0.068 A
HETATM    7  N1  UNL     1      16.740 -13.434  21.878  1.00  0.00    -0.340 N
ATOM      8  H1  UNL     1      16.351 -13.874  22.712  1.00  0.00     0.167 HD
HETATM    9  C11 UNL     1      16.002 -12.992  20.819  1.00  0.00     0.118 A
HETATM   10  N2  UNL     1      16.878 -12.495  19.960  1.00  0.00    -0.335 N
HETATM   11  C19 UNL     1      16.596 -11.923  18.671  1.00  0.00     0.158 C
ENDROOT
BRANCH   9  12
HETATM   12  C12 UNL     1      14.555 -13.139  20.779  1.00  0.00     0.012 A
HETATM   13  C13 UNL     1      13.890 -14.145  20.132  1.00  0.00     0.034 A
HETATM   14  C14 UNL     1      12.490 -14.219  20.184  1.00  0.00     0.014 A
HETATM   15 BR1  UNL     1      11.673 -15.662  19.248  1.00  0.00    -0.051 Br
HETATM   16  C15 UNL     1      11.772 -13.290  20.879  1.00  0.00     0.055 A
HETATM   17  C16 UNL     1      12.396 -12.258  21.545  1.00  0.00     0.070 A
HETATM   18  C18 UNL     1      13.757 -12.206  21.482  1.00  0.00     0.052 A
BRANCH  17  19
HETATM   19  O2  UNL     1      11.678 -11.328  22.240  1.00  0.00    -0.356 OA
HETATM   20  C17 UNL     1      12.216 -10.057  22.579  1.00  0.00     0.210 C
ENDBRANCH  17  19
ENDBRANCH   9  12
BRANCH   1  21
HETATM   21  O1  UNL     1      21.557 -13.397  22.751  1.00  0.00    -0.337 OA
BRANCH  21  22
HETATM   22  C4  UNL     1      21.604 -13.938  24.019  1.00  0.00     0.221 C
BRANCH  22  23
HETATM   23  C3  UNL     1      22.116 -12.916  25.036  1.00  0.00     0.068 C
BRANCH  23  24
HETATM   24  C2  UNL     1      21.001 -12.497  25.917  1.00  0.00    -0.034 C
HETATM   25  C1  UNL     1      20.714 -13.204  26.987  1.00  0.00     0.007 C
ENDBRANCH  23  24
ENDBRANCH  22  23
BRANCH  22  26
HETATM   26  C20 UNL     1      22.409 -15.189  24.095  1.00  0.00     0.261 C
HETATM   27  N3  UNL     1      22.067 -16.302  23.294  1.00  0.00    -0.060 NA
HETATM   28  O3  UNL     1      23.397 -15.273  24.865  1.00  0.00    -0.274 OA
ENDBRANCH  22  26
ENDBRANCH  21  22
ENDBRANCH   1  21
TORSDOF 7
ENDMDL