MODEL 1
REMARK VINA RESULT: -4.980299906      0.000      0.000
REMARK  6 active torsions:
REMARK  status: ('A' for Active; 'I' for Inactive)
REMARK    1  A    between atoms: N1_2  and  C2_3
REMARK    2  A    between atoms: N1_2  and  C4_8
REMARK    3  A    between atoms: C2_3  and  C3_4
REMARK    4  A    between atoms: C4_8  and  C5_9
REMARK    5  A    between atoms: C5_9  and  C6_10
REMARK    6  A    between atoms: N3_11  and  N4_13
ROOT
HETATM    1  C5  UNL     1      29.002  14.084 -58.703  1.00  0.00     0.066 C
ENDROOT
BRANCH   1   2
HETATM    2  C4  UNL     1      27.815  14.870 -58.193  1.00  0.00     0.126 C
BRANCH   2   3
HETATM    3  N1  UNL     1      27.740  14.947 -56.770  1.00  0.00    -0.394 N
HETATM    4  C1  UNL     1      28.057  16.058 -56.218  1.00  0.00     0.115 C
BRANCH   3   5
HETATM    5  C2  UNL     1      27.331  13.861 -55.937  1.00  0.00     0.165 C
BRANCH   5   6
HETATM    6  C3  UNL     1      27.355  14.334 -54.522  1.00  0.00     0.072 C
HETATM    7  N2  UNL     1      26.331  14.398 -53.763  1.00  0.00    -0.410 N
ATOM      8  H22 UNL     1      25.443  14.103 -54.168  1.00  0.00     0.155 HD
ATOM      9  H21 UNL     1      26.348  14.721 -52.796  1.00  0.00     0.155 HD
ENDBRANCH   5   6
ENDBRANCH   3   5
ENDBRANCH   2   3
ENDBRANCH   1   2
BRANCH   1  10
HETATM   10  C6  UNL     1      29.648  14.925 -59.740  1.00  0.00     0.083 C
HETATM   11  N3  UNL     1      30.817  14.622 -60.182  1.00  0.00    -0.302 N
ATOM     12  H3  UNL     1      31.247  15.208 -60.897  1.00  0.00     0.187 HD
BRANCH  11  13
HETATM   13  N4  UNL     1      31.509  13.511 -59.708  1.00  0.00    -0.250 N
HETATM   14  N5  UNL     1      32.414  13.009 -60.421  1.00  0.00    -0.331 N
ATOM     15  H52 UNL     1      32.625  13.422 -61.329  1.00  0.00     0.178 HD
ATOM     16  H51 UNL     1      32.920  12.195 -60.073  1.00  0.00     0.178 HD
ATOM     17  H4  UNL     1      31.284  13.110 -58.797  1.00  0.00     0.207 HD
ENDBRANCH  11  13
ENDBRANCH   1  10
TORSDOF 6
ENDMDL