MODEL 2
REMARK VINA RESULT: -4.253608528      1.762      2.594
REMARK  5 active torsions:
REMARK  status: ('A' for Active; 'I' for Inactive)
REMARK    1  A    between atoms: N1_2  and  C2_3
REMARK    2  A    between atoms: C2_3  and  C3_4
REMARK    3  A    between atoms: C3_4  and  N2_5
REMARK    4  A    between atoms: N2_5  and  C4_7
REMARK    5  A    between atoms: N3_8  and  N4_10
ROOT
HETATM    1  N2  UNL     1      28.339  14.378 -58.756  1.00  0.00    -0.383 N
ATOM      2  H2  UNL     1      27.541  14.024 -59.285  1.00  0.00     0.160 HD
ENDROOT
BRANCH   1   3
HETATM    3  C3  UNL     1      28.071  14.952 -57.460  1.00  0.00     0.148 C
BRANCH   3   4
HETATM    4  C2  UNL     1      28.452  16.394 -57.498  1.00  0.00     0.256 C
BRANCH   4   5
HETATM    5  N1  UNL     1      28.264  17.145 -56.309  1.00  0.00    -0.066 N
HETATM    6  C1  UNL     1      28.202  16.469 -55.002  1.00  0.00     0.272 C
HETATM    7  C6  UNL     1      27.670  18.459 -56.303  1.00  0.00     0.265 A
HETATM    8  C7  UNL     1      29.140  18.340 -56.268  1.00  0.00     0.265 A
ENDBRANCH   4   5
ENDBRANCH   3   4
ENDBRANCH   1   3
BRANCH   1   9
HETATM    9  C4  UNL     1      29.616  14.265 -59.357  1.00  0.00     0.192 C
HETATM   10  N3  UNL     1      30.284  13.183 -59.236  1.00  0.00    -0.296 N
ATOM     11  H3  UNL     1      29.914  12.390 -58.711  1.00  0.00     0.187 HD
BRANCH  10  12
HETATM   12  N4  UNL     1      31.553  13.122 -59.855  1.00  0.00    -0.298 N
HETATM   13  C5  UNL     1      31.759  13.836 -60.933  1.00  0.00     0.206 C
HETATM   14  N5  UNL     1      32.979  13.858 -61.630  1.00  0.00    -0.095 NA
ATOM     15  H4  UNL     1      32.292  12.534 -59.470  1.00  0.00     0.187 HD
ENDBRANCH  10  12
ENDBRANCH   1   9
TORSDOF 5
ENDMDL