MODEL 5
REMARK VINA RESULT: -5.141434452      2.498      3.273
REMARK  5 active torsions:
REMARK  status: ('A' for Active; 'I' for Inactive)
REMARK    1  A    between atoms: C2_2  and  C3_3
REMARK    2  A    between atoms: C3_3  and  N1_4
REMARK    3  A    between atoms: C5_9  and  C6_10
REMARK    4  A    between atoms: C6_10  and  N3_11
REMARK    5  A    between atoms: N3_11  and  N4_13
ROOT
HETATM    1  N1  UNL     1      28.127  16.244 -55.592  1.00  0.00    -0.375 N
ATOM      2  H1  UNL     1      28.362  16.095 -54.611  1.00  0.00     0.161 HD
HETATM    3  C4  UNL     1      28.258  17.422 -56.064  1.00  0.00     0.098 A
HETATM    4  N2  UNL     1      28.652  18.793 -55.727  1.00  0.00    -0.365 N
ATOM      5  H2  UNL     1      28.987  19.482 -55.055  1.00  0.00     0.161 HD
HETATM    6  C5  UNL     1      28.196  18.429 -57.105  1.00  0.00     0.169 A
ENDROOT
BRANCH   6   7
HETATM    7  C6  UNL     1      29.281  18.594 -58.115  1.00  0.00     0.173 C
BRANCH   7   8
HETATM    8  N3  UNL     1      30.079  17.407 -58.333  1.00  0.00    -0.320 N
ATOM      9  H3  UNL     1      30.958  17.255 -57.840  1.00  0.00     0.181 HD
BRANCH   8  10
HETATM   10  N4  UNL     1      29.584  16.479 -59.251  1.00  0.00    -0.254 N
HETATM   11  N5  UNL     1      30.288  15.606 -59.839  1.00  0.00    -0.331 N
ATOM     12  H52 UNL     1      31.283  15.593 -59.614  1.00  0.00     0.178 HD
ATOM     13  H51 UNL     1      29.927  14.928 -60.510  1.00  0.00     0.178 HD
ATOM     14  H4  UNL     1      28.587  16.507 -59.464  1.00  0.00     0.207 HD
ENDBRANCH   8  10
ENDBRANCH   7   8
ENDBRANCH   6   7
BRANCH   1  15
HETATM   15  C3  UNL     1      27.670  15.112 -56.354  1.00  0.00     0.147 C
BRANCH  15  16
HETATM   16  C2  UNL     1      27.256  13.975 -55.518  1.00  0.00    -0.018 C
HETATM   17  C1  UNL     1      27.330  14.058 -54.203  1.00  0.00     0.008 C
ENDBRANCH  15  16
ENDBRANCH   1  15
TORSDOF 5
ENDMDL