MODEL 2
REMARK VINA RESULT: -4.878637007      1.671      2.389
REMARK  5 active torsions:
REMARK  status: ('A' for Active; 'I' for Inactive)
REMARK    1  A    between atoms: N2_4  and  N3_6
REMARK    2  A    between atoms: N3_6  and  C1_8
REMARK    3  A    between atoms: N4_9  and  C2_11
REMARK    4  A    between atoms: N5_12  and  C3_14
REMARK    5  A    between atoms: C3_14  and  C4_15
ROOT
HETATM    1  C1  UNL     1      29.963  15.741 -60.045  1.00  0.00     0.199 C
HETATM    2  N4  UNL     1      29.209  15.424 -59.052  1.00  0.00    -0.348 N
ATOM      3  H4  UNL     1      28.862  16.160 -58.439  1.00  0.00     0.167 HD
ENDROOT
BRANCH   2   4
HETATM    4  C2  UNL     1      28.847  14.074 -58.787  1.00  0.00     0.176 C
HETATM    5  N5  UNL     1      28.149  13.705 -57.779  1.00  0.00    -0.385 N
ATOM      6  H5  UNL     1      27.951  12.708 -57.692  1.00  0.00     0.160 HD
BRANCH   5   7
HETATM    7  C3  UNL     1      27.622  14.564 -56.766  1.00  0.00     0.135 C
BRANCH   7   8
HETATM    8  C4  UNL     1      27.426  13.820 -55.453  1.00  0.00     0.080 A
HETATM    9  C5  UNL     1      27.679  14.695 -54.330  1.00  0.00     0.071 A
HETATM   10  N6  UNL     1      26.521  14.644 -53.922  1.00  0.00    -0.381 N
HETATM   11  C6  UNL     1      26.068  13.807 -54.909  1.00  0.00     0.071 A
ATOM     12  H6  UNL     1      26.056  15.077 -53.122  1.00  0.00     0.164 HD
ENDBRANCH   7   8
ENDBRANCH   5   7
ENDBRANCH   2   4
BRANCH   1  13
HETATM   13  N3  UNL     1      30.447  14.723 -60.898  1.00  0.00    -0.282 N
ATOM     14  H3  UNL     1      29.803  14.235 -61.521  1.00  0.00     0.189 HD
BRANCH  13  15
HETATM   15  N2  UNL     1      31.808  14.379 -60.893  1.00  0.00    -0.248 N
HETATM   16  N1  UNL     1      32.269  13.456 -60.178  1.00  0.00    -0.331 N
ATOM     17  H12 UNL     1      31.615  12.946 -59.583  1.00  0.00     0.178 HD
ATOM     18  H11 UNL     1      33.258  13.206 -60.174  1.00  0.00     0.178 HD
ATOM     19  H2  UNL     1      32.447  14.899 -61.494  1.00  0.00     0.207 HD
ENDBRANCH  13  15
ENDBRANCH   1  13
TORSDOF 5
ENDMDL