MODEL 2
REMARK VINA RESULT: -4.890119480      1.462      1.962
REMARK  5 active torsions:
REMARK  status: ('A' for Active; 'I' for Inactive)
REMARK    1  A    between atoms: N2_4  and  N3_6
REMARK    2  A    between atoms: C1_8  and  N4_9
REMARK    3  A    between atoms: N4_9  and  C2_11
REMARK    4  A    between atoms: C2_11  and  C3_12
REMARK    5  A    between atoms: C3_12  and  N5_13
ROOT
HETATM    1  N3  UNL     1      32.318  13.711 -60.576  1.00  0.00    -0.283 N
ATOM      2  H3  UNL     1      32.997  13.329 -59.919  1.00  0.00     0.189 HD
HETATM    3  C1  UNL     1      31.073  13.670 -60.282  1.00  0.00     0.194 C
ENDROOT
BRANCH   3   4
HETATM    4  N4  UNL     1      30.637  13.100 -59.052  1.00  0.00    -0.384 N
ATOM      5  H4  UNL     1      31.324  12.762 -58.378  1.00  0.00     0.160 HD
BRANCH   4   6
HETATM    6  C2  UNL     1      29.221  12.997 -58.754  1.00  0.00     0.136 C
BRANCH   6   7
HETATM    7  C3  UNL     1      28.698  14.392 -58.599  1.00  0.00     0.129 C
BRANCH   7   8
HETATM    8  N5  UNL     1      27.867  14.666 -57.506  1.00  0.00    -0.232 NA
HETATM    9  C4  UNL     1      28.034  15.841 -56.735  1.00  0.00     0.127 C
HETATM   10  C5  UNL     1      27.715  14.920 -55.564  1.00  0.00     0.144 C
HETATM   11  N6  UNL     1      27.732  13.766 -56.477  1.00  0.00    -0.164 NA
ENDBRANCH   7   8
ENDBRANCH   6   7
ENDBRANCH   4   6
ENDBRANCH   3   4
BRANCH   1  12
HETATM   12  N2  UNL     1      32.762  14.258 -61.759  1.00  0.00    -0.248 N
HETATM   13  N1  UNL     1      31.970  14.305 -62.765  1.00  0.00    -0.331 N
ATOM     14  H12 UNL     1      31.023  13.937 -62.674  1.00  0.00     0.178 HD
ATOM     15  H11 UNL     1      32.299  14.711 -63.641  1.00  0.00     0.178 HD
ATOM     16  H2  UNL     1      33.712  14.623 -61.833  1.00  0.00     0.207 HD
ENDBRANCH   1  12
TORSDOF 5
ENDMDL