MODEL 3
REMARK VINA RESULT: -4.859968429      1.259      1.947
REMARK  5 active torsions:
REMARK  status: ('A' for Active; 'I' for Inactive)
REMARK    1  A    between atoms: C2_3  and  C3_4
REMARK    2  A    between atoms: C3_4  and  C4_5
REMARK    3  A    between atoms: C4_5  and  N2_6
REMARK    4  A    between atoms: N2_6  and  C5_8
REMARK    5  A    between atoms: N3_9  and  N4_11
ROOT
HETATM    1  N2  UNL     1      29.839  15.306 -60.543  1.00  0.00    -0.385 N
ATOM      2  H2  UNL     1      29.558  15.778 -61.403  1.00  0.00     0.160 HD
ENDROOT
BRANCH   1   3
HETATM    3  C4  UNL     1      29.187  15.616 -59.289  1.00  0.00     0.126 C
BRANCH   3   4
HETATM    4  C3  UNL     1      28.471  14.421 -58.721  1.00  0.00     0.073 C
BRANCH   4   5
HETATM    5  C2  UNL     1      27.989  14.693 -57.347  1.00  0.00     0.004 A
HETATM    6  N1  UNL     1      27.876  15.524 -56.314  1.00  0.00    -0.385 N
HETATM    7  C1  UNL     1      28.188  16.843 -55.814  1.00  0.00     0.149 C
HETATM    8  C6  UNL     1      27.277  14.229 -56.125  1.00  0.00     0.174 A
ENDBRANCH   4   5
ENDBRANCH   3   4
ENDBRANCH   1   3
BRANCH   1   9
HETATM    9  C5  UNL     1      30.872  14.341 -60.561  1.00  0.00     0.194 C
HETATM   10  N3  UNL     1      31.922  14.530 -61.278  1.00  0.00    -0.283 N
ATOM     11  H3  UNL     1      31.982  15.389 -61.824  1.00  0.00     0.189 HD
BRANCH  10  12
HETATM   12  N4  UNL     1      32.979  13.632 -61.350  1.00  0.00    -0.248 N
HETATM   13  N5  UNL     1      33.023  12.652 -60.560  1.00  0.00    -0.331 N
ATOM     14  H52 UNL     1      32.277  12.532 -59.874  1.00  0.00     0.178 HD
ATOM     15  H51 UNL     1      33.799  11.992 -60.613  1.00  0.00     0.178 HD
ATOM     16  H4  UNL     1      33.717  13.765 -62.042  1.00  0.00     0.207 HD
ENDBRANCH  10  12
ENDBRANCH   1   9
TORSDOF 5
ENDMDL