MODEL 4
REMARK VINA RESULT: -4.851586846      2.377      6.359
REMARK  5 active torsions:
REMARK  status: ('A' for Active; 'I' for Inactive)
REMARK    1  A    between atoms: N2_4  and  N3_6
REMARK    2  A    between atoms: C1_8  and  C2_9
REMARK    3  A    between atoms: C2_9  and  N4_10
REMARK    4  A    between atoms: N4_10  and  C3_12
REMARK    5  A    between atoms: C3_12  and  C4_13
ROOT
HETATM    1  C2  UNL     1      29.305  15.701 -59.098  1.00  0.00     0.160 C
ENDROOT
BRANCH   1   2
HETATM    2  C1  UNL     1      28.544  14.522 -58.568  1.00  0.00     0.100 C
HETATM    3  N3  UNL     1      27.884  14.581 -57.468  1.00  0.00    -0.300 N
ATOM      4  H3  UNL     1      27.385  13.749 -57.155  1.00  0.00     0.187 HD
BRANCH   3   5
HETATM    5  N2  UNL     1      27.818  15.737 -56.680  1.00  0.00    -0.250 N
HETATM    6  N1  UNL     1      27.838  15.711 -55.411  1.00  0.00    -0.331 N
ATOM      7  H12 UNL     1      27.904  14.799 -54.961  1.00  0.00     0.178 HD
ATOM      8  H11 UNL     1      27.790  16.553 -54.838  1.00  0.00     0.178 HD
ATOM      9  H2  UNL     1      27.752  16.641 -57.148  1.00  0.00     0.207 HD
ENDBRANCH   3   5
ENDBRANCH   1   2
BRANCH   1  10
HETATM   10  N4  UNL     1      30.044  15.320 -60.273  1.00  0.00    -0.412 N
ATOM     11  H4  UNL     1      30.089  15.926 -61.093  1.00  0.00     0.153 HD
BRANCH  10  12
HETATM   12  C3  UNL     1      30.705  14.074 -60.244  1.00  0.00     0.170 C
BRANCH  12  13
HETATM   13  C4  UNL     1      31.865  13.955 -61.225  1.00  0.00     0.020 A
HETATM   14  C5  UNL     1      33.065  13.459 -61.170  1.00  0.00     0.019 A
HETATM   15  C6  UNL     1      33.359  13.820 -62.535  1.00  0.00     0.148 A
HETATM   16  N5  UNL     1      32.028  14.312 -62.568  1.00  0.00    -0.389 N
ATOM     17  H5  UNL     1      31.437  14.746 -63.277  1.00  0.00     0.159 HD
ENDBRANCH  12  13
ENDBRANCH  10  12
ENDBRANCH   1  10
TORSDOF 5
ENDMDL