MODEL 5
REMARK VINA RESULT: -3.916116026     10.347     11.771
REMARK  6 active torsions:
REMARK  status: ('A' for Active; 'I' for Inactive)
REMARK    1  A    between atoms: N1_2  and  C2_3
REMARK    2  A    between atoms: C2_3  and  C3_4
REMARK    3  A    between atoms: C3_4  and  N2_5
REMARK    4  A    between atoms: N2_5  and  C4_7
REMARK    5  A    between atoms: N3_8  and  N4_10
REMARK    6  A    between atoms: N4_10  and  N5_11
ROOT
HETATM    1  N2  UNL     1      29.543  15.306 -60.146  1.00  0.00    -0.384 N
ATOM      2  H2  UNL     1      28.961  15.538 -60.950  1.00  0.00     0.160 HD
ENDROOT
BRANCH   1   3
HETATM    3  C3  UNL     1      29.169  15.835 -58.856  1.00  0.00     0.148 C
BRANCH   3   4
HETATM    4  C2  UNL     1      29.694  17.252 -58.764  1.00  0.00     0.256 C
BRANCH   4   5
HETATM    5  N1  UNL     1      29.243  17.934 -57.574  1.00  0.00    -0.066 N
HETATM    6  C1  UNL     1      28.356  17.193 -56.681  1.00  0.00     0.272 C
HETATM    7  C5  UNL     1      28.808  19.310 -57.812  1.00  0.00     0.265 A
HETATM    8  C6  UNL     1      30.030  19.012 -57.035  1.00  0.00     0.265 A
ENDBRANCH   4   5
ENDBRANCH   3   4
ENDBRANCH   1   3
BRANCH   1   9
HETATM    9  C4  UNL     1      30.671  14.485 -60.351  1.00  0.00     0.191 C
HETATM   10  N3  UNL     1      31.530  14.686 -61.282  1.00  0.00    -0.281 N
ATOM     11  H3  UNL     1      31.396  15.479 -61.909  1.00  0.00     0.185 HD
BRANCH  10  12
HETATM   12  N4  UNL     1      32.645  13.860 -61.473  1.00  0.00    -0.029 NA
BRANCH  12  13
HETATM   13  N5  UNL     1      32.759  12.861 -60.504  1.00  0.00    -0.329 N
ATOM     14  H52 UNL     1      33.516  12.843 -59.821  1.00  0.00     0.174 HD
ATOM     15  H51 UNL     1      32.015  12.165 -60.556  1.00  0.00     0.174 HD
ENDBRANCH  12  13
ENDBRANCH  10  12
ENDBRANCH   1   9
TORSDOF 6
ENDMDL