MODEL 5
REMARK VINA RESULT: -5.615436110      1.515      2.414
REMARK  1 active torsions:
REMARK  status: ('A' for Active; 'I' for Inactive)
REMARK    1  A    between atoms: C3_5  and  N1_6
ROOT
HETATM    1  F1  UNL     1      27.136  16.196   3.996  1.00  0.00    -0.199 F
HETATM    2  C1  UNL     1      27.770  16.638   5.144  1.00  0.00     0.312 C
HETATM    3  F2  UNL     1      28.873  15.901   5.453  1.00  0.00    -0.199 F
HETATM    4  C2  UNL     1      28.047  18.112   5.194  1.00  0.00     0.118 C
HETATM    5  C3  UNL     1      27.381  18.136   6.573  1.00  0.00     0.178 C
HETATM    6  C4  UNL     1      26.772  16.828   6.276  1.00  0.00     0.328 C
HETATM    7  F3  UNL     1      26.997  15.854   7.238  1.00  0.00    -0.197 F
HETATM    8  F4  UNL     1      25.454  16.806   5.891  1.00  0.00    -0.197 F
ENDROOT
BRANCH   5   9
HETATM    9  N1  UNL     1      26.557  19.278   6.681  1.00  0.00    -0.323 N
HETATM   10 CL1  UNL     1      27.227  20.764   7.000  1.00  0.00     0.006 Cl
ATOM     11  H1  UNL     1      25.548  19.191   6.563  1.00  0.00     0.174 HD
ENDBRANCH   5   9
TORSDOF 1
ENDMDL