MODEL 2
REMARK VINA RESULT: -5.779219122      1.251      2.415
REMARK  2 active torsions:
REMARK  status: ('A' for Active; 'I' for Inactive)
REMARK    1  A    between atoms: C2_3  and  C3_5
REMARK    2  A    between atoms: C3_5  and  C4_6
ROOT
HETATM    1  C3  UNL     1      27.321  16.878   5.098  1.00  0.00     0.231 A
HETATM    2  O1  UNL     1      27.372  15.577   4.688  1.00  0.00    -0.324 OA
HETATM    3  C5  UNL     1      26.208  16.232   4.270  1.00  0.00     0.356 A
HETATM    4  F5  UNL     1      25.034  16.022   4.939  1.00  0.00    -0.216 F
ENDROOT
BRANCH   1   5
HETATM    5  C2  UNL     1      27.009  17.207   6.507  1.00  0.00     0.166 C
HETATM    6  C1  UNL     1      26.926  18.467   6.861  1.00  0.00     0.229 C
HETATM    7  F1  UNL     1      26.642  18.798   8.139  1.00  0.00    -0.216 F
HETATM    8  F2  UNL     1      26.824  16.165   7.352  1.00  0.00    -0.205 F
ENDBRANCH   1   5
BRANCH   1   9
HETATM    9  C4  UNL     1      28.045  17.969   4.356  1.00  0.00     0.400 C
HETATM   10  F3  UNL     1      27.686  18.069   3.041  1.00  0.00    -0.210 F
HETATM   11  F4  UNL     1      29.417  17.869   4.485  1.00  0.00    -0.210 F
ENDBRANCH   1   9
TORSDOF 2
ENDMDL