MODEL 3
REMARK VINA RESULT: -6.147208558      1.407      2.499
REMARK  1 active torsions:
REMARK  status: ('A' for Active; 'I' for Inactive)
REMARK    1  A    between atoms: C1_2  and  C2_4
ROOT
HETATM    1  C2  UNL     1      27.177  17.731   6.189  1.00  0.00     0.255 C
HETATM    2  O1  UNL     1      25.923  17.094   6.160  1.00  0.00    -0.285 OA
HETATM    3  C3  UNL     1      26.123  16.162   5.149  1.00  0.00     0.491 C
HETATM    4  F3  UNL     1      24.942  15.664   4.687  1.00  0.00    -0.148 F
HETATM    5  F4  UNL     1      26.959  15.167   5.655  1.00  0.00    -0.148 F
HETATM    6  O2  UNL     1      26.734  16.871   4.130  1.00  0.00    -0.263 OA
HETATM    7  C4  UNL     1      27.434  17.921   4.713  1.00  0.00     0.350 C
HETATM    8  F5  UNL     1      28.757  17.775   4.381  1.00  0.00    -0.216 F
ENDROOT
BRANCH   1   9
HETATM    9  C1  UNL     1      26.967  19.029   6.920  1.00  0.00     0.387 C
HETATM   10  F1  UNL     1      28.063  19.836   6.757  1.00  0.00    -0.211 F
HETATM   11  F2  UNL     1      26.601  18.836   8.217  1.00  0.00    -0.211 F
ENDBRANCH   1   9
TORSDOF 1
ENDMDL