MODEL 1
REMARK VINA RESULT: -5.882480816      0.000      0.000
REMARK  2 active torsions:
REMARK  status: ('A' for Active; 'I' for Inactive)
REMARK    1  A    between atoms: C3_6  and  O1_8
REMARK    2  A    between atoms: O1_8  and  C4_9
ROOT
HETATM    1  F1  UNL     1      27.348  15.187   4.496  1.00  0.00    -0.236 F
HETATM    2  C1  UNL     1      28.024  16.374   4.259  1.00  0.00     0.322 A
HETATM    3  C2  UNL     1      27.299  17.492   3.543  1.00  0.00     0.342 A
HETATM    4  F2  UNL     1      27.981  18.334   2.718  1.00  0.00    -0.196 F
HETATM    5  F3  UNL     1      26.000  17.180   3.208  1.00  0.00    -0.196 F
HETATM    6  C3  UNL     1      27.668  17.571   5.024  1.00  0.00     0.312 A
HETATM    7  F4  UNL     1      28.720  18.419   5.342  1.00  0.00    -0.201 F
ENDROOT
BRANCH   6   8
HETATM    8  O1  UNL     1      26.550  17.622   5.849  1.00  0.00    -0.329 OA
BRANCH   8   9
HETATM    9  C4  UNL     1      26.933  18.216   7.050  1.00  0.00     0.286 C
HETATM   10 CL1  UNL     1      26.683  19.962   7.046  1.00  0.00    -0.102 Cl
ENDBRANCH   8   9
ENDBRANCH   6   8
TORSDOF 2
ENDMDL