MODEL 3
REMARK VINA RESULT: -6.645929038      1.096      2.222
REMARK  2 active torsions:
REMARK  status: ('A' for Active; 'I' for Inactive)
REMARK    1  A    between atoms: C1_2  and  C2_3
REMARK    2  A    between atoms: C2_3  and  C3_4
ROOT
HETATM    1  C3  UNL     1      27.521  17.101   5.752  1.00  0.00     0.248 A
HETATM    2  F2  UNL     1      27.343  16.238   6.824  1.00  0.00    -0.229 F
HETATM    3  C4  UNL     1      27.372  16.521   4.422  1.00  0.00     0.352 A
HETATM    4  F3  UNL     1      26.801  17.323   3.430  1.00  0.00    -0.195 F
HETATM    5  F4  UNL     1      27.027  15.189   4.280  1.00  0.00    -0.195 F
HETATM    6  C5  UNL     1      28.731  16.887   4.862  1.00  0.00     0.352 A
HETATM    7  F5  UNL     1      29.622  15.971   5.353  1.00  0.00    -0.195 F
HETATM    8  F6  UNL     1      29.320  17.979   4.264  1.00  0.00    -0.195 F
ENDROOT
BRANCH   1   9
HETATM    9  C2  UNL     1      27.246  18.534   6.075  1.00  0.00     0.088 C
BRANCH   9  10
HETATM   10  C1  UNL     1      26.595  18.681   7.448  1.00  0.00     0.225 C
HETATM   11  F1  UNL     1      25.725  19.766   7.342  1.00  0.00    -0.255 F
ENDBRANCH   9  10
ENDBRANCH   1   9
TORSDOF 2
ENDMDL