MODEL 4
REMARK VINA RESULT: -6.093369019      1.511      4.558
REMARK  1 active torsions:
REMARK  status: ('A' for Active; 'I' for Inactive)
REMARK    1  A    between atoms: C3_4  and  C4_5
ROOT
HETATM    1  F1  UNL     1      24.982  16.712   7.101  1.00  0.00    -0.203 F
HETATM    2  C1  UNL     1      26.113  17.314   6.644  1.00  0.00     0.161 A
HETATM    3  C2  UNL     1      26.989  16.652   5.804  1.00  0.00     0.076 A
HETATM    4  C3  UNL     1      28.130  17.299   5.359  1.00  0.00     0.079 A
HETATM    5  N1  UNL     1      28.345  18.546   5.760  1.00  0.00    -0.329 N
ATOM      6  H1  UNL     1      29.189  19.008   5.424  1.00  0.00     0.168 HD
HETATM    7  C5  UNL     1      27.539  19.245   6.571  1.00  0.00     0.230 A
HETATM    8  F4  UNL     1      27.829  20.516   6.933  1.00  0.00    -0.183 F
HETATM    9  C6  UNL     1      26.399  18.608   7.019  1.00  0.00     0.210 A
HETATM   10  F5  UNL     1      25.542  19.272   7.847  1.00  0.00    -0.198 F
ENDROOT
BRANCH   4  11
HETATM   11  C4  UNL     1      29.088  16.581   4.444  1.00  0.00     0.403 C
HETATM   12  F2  UNL     1      28.434  15.563   3.780  1.00  0.00    -0.207 F
HETATM   13  F3  UNL     1      30.029  15.994   5.270  1.00  0.00    -0.207 F
ENDBRANCH   4  11
TORSDOF 1
ENDMDL