MODEL 5
REMARK VINA RESULT: -5.521620491      0.922      2.113
REMARK  2 active torsions:
REMARK  status: ('A' for Active; 'I' for Inactive)
REMARK    1  A    between atoms: C2_4  and  O1_5
REMARK    2  A    between atoms: O1_5  and  C3_6
ROOT
HETATM    1  F1  UNL     1      26.967  15.149   4.788  1.00  0.00    -0.196 F
HETATM    2  C1  UNL     1      27.763  16.273   4.909  1.00  0.00     0.342 A
HETATM    3  F2  UNL     1      29.049  15.942   5.337  1.00  0.00    -0.196 F
HETATM    4  C2  UNL     1      27.091  17.465   5.467  1.00  0.00     0.280 A
HETATM    5  C4  UNL     1      27.617  17.414   3.995  1.00  0.00     0.342 A
HETATM    6  F3  UNL     1      28.771  18.123   3.728  1.00  0.00    -0.196 F
HETATM    7  F4  UNL     1      26.622  17.417   3.021  1.00  0.00    -0.196 F
ENDROOT
BRANCH   4   8
HETATM    8  O1  UNL     1      27.728  18.403   6.229  1.00  0.00    -0.359 OA
BRANCH   8   9
HETATM    9  C3  UNL     1      26.789  19.005   7.062  1.00  0.00     0.283 C
HETATM   10 CL1  UNL     1      26.717  20.764   6.832  1.00  0.00    -0.102 Cl
ENDBRANCH   8   9
ENDBRANCH   4   8
TORSDOF 2
ENDMDL