MODEL 2
REMARK VINA RESULT: -6.222728565      0.928      1.094
REMARK  2 active torsions:
REMARK  status: ('A' for Active; 'I' for Inactive)
REMARK    1  A    between atoms: C2_4  and  C3_5
REMARK    2  A    between atoms: C3_5  and  N1_6
ROOT
HETATM    1  F1  UNL     1      27.167  17.718   2.870  1.00  0.00    -0.199 F
HETATM    2  C1  UNL     1      27.375  17.006   4.090  1.00  0.00     0.319 A
HETATM    3  F2  UNL     1      26.627  15.799   4.024  1.00  0.00    -0.199 F
HETATM    4  C2  UNL     1      27.098  17.849   5.244  1.00  0.00     0.162 A
HETATM    5  C4  UNL     1      28.527  17.166   4.835  1.00  0.00     0.319 A
HETATM    6  F3  UNL     1      28.924  16.039   5.549  1.00  0.00    -0.199 F
HETATM    7  F4  UNL     1      29.516  18.040   4.562  1.00  0.00    -0.199 F
ENDROOT
BRANCH   4   8
HETATM    8  C3  UNL     1      26.953  17.361   6.744  1.00  0.00     0.150 C
BRANCH   8   9
HETATM    9  N1  UNL     1      26.614  18.635   7.376  1.00  0.00    -0.333 N
HETATM   10 CL1  UNL     1      27.383  19.983   6.898  1.00  0.00     0.005 Cl
ATOM     11  H1  UNL     1      25.904  18.676   8.107  1.00  0.00     0.173 HD
ENDBRANCH   8   9
ENDBRANCH   4   8
TORSDOF 2
ENDMDL