MODEL 2
REMARK VINA RESULT: -6.078056428      1.741      3.461
REMARK  1 active torsions:
REMARK  status: ('A' for Active; 'I' for Inactive)
REMARK    1  A    between atoms: C1_2  and  C2_4
ROOT
HETATM    1  C2  UNL     1      27.898  16.988   5.274  1.00  0.00     0.292 C
HETATM    2  F3  UNL     1      29.022  16.148   5.359  1.00  0.00    -0.203 F
HETATM    3  C3  UNL     1      26.802  16.346   6.008  1.00  0.00     0.312 C
HETATM    4  N1  UNL     1      25.996  17.177   6.833  1.00  0.00    -0.061 N
ATOM      5  H11 UNL     1      25.506  16.616   7.530  1.00  0.00     0.277 HD
ATOM      6  H12 UNL     1      25.201  17.535   6.305  1.00  0.00     0.277 HD
HETATM    7  C4  UNL     1      26.706  18.258   7.466  1.00  0.00     0.344 C
HETATM    8  C5  UNL     1      27.477  18.983   6.393  1.00  0.00     0.381 C
HETATM    9  F4  UNL     1      28.243  19.956   7.047  1.00  0.00    -0.174 F
HETATM   10  F5  UNL     1      26.565  19.651   5.587  1.00  0.00    -0.174 F
HETATM   11  O1  UNL     1      28.297  18.221   5.653  1.00  0.00    -0.276 OA
ENDROOT
BRANCH   1  12
HETATM   12  C1  UNL     1      27.585  17.043   3.770  1.00  0.00     0.421 C
HETATM   13  F1  UNL     1      28.046  18.262   3.289  1.00  0.00    -0.208 F
HETATM   14  F2  UNL     1      26.201  17.090   3.686  1.00  0.00    -0.208 F
ENDBRANCH   1  12
TORSDOF 1
ENDMDL