MODEL 1
REMARK VINA RESULT: -6.620668819      0.000      0.000
REMARK  1 active torsions:
REMARK  status: ('A' for Active; 'I' for Inactive)
REMARK    1  A    between atoms: C2_4  and  C3_5
ROOT
HETATM    1  F1  UNL     1      25.745  14.922   4.900  1.00  0.00    -0.174 F
HETATM    2  C1  UNL     1      26.402  16.072   5.220  1.00  0.00     0.272 A
HETATM    3  O1  UNL     1      26.030  17.037   6.020  1.00  0.00    -0.277 OA
HETATM    4  C2  UNL     1      26.927  17.988   6.082  1.00  0.00     0.162 A
HETATM    5  C4  UNL     1      27.963  17.605   5.257  1.00  0.00     0.195 A
HETATM    6  F4  UNL     1      29.090  18.326   5.048  1.00  0.00    -0.200 F
HETATM    7  C5  UNL     1      27.645  16.388   4.700  1.00  0.00     0.220 A
HETATM    8  F5  UNL     1      28.398  15.669   3.833  1.00  0.00    -0.197 F
ENDROOT
BRANCH   4   9
HETATM    9  C3  UNL     1      26.858  19.258   6.892  1.00  0.00     0.413 C
HETATM   10  F2  UNL     1      28.078  19.863   6.806  1.00  0.00    -0.207 F
HETATM   11  F3  UNL     1      26.588  18.874   8.207  1.00  0.00    -0.207 F
ENDBRANCH   4   9
TORSDOF 1
ENDMDL