MODEL 5
REMARK VINA RESULT: -7.141550825      1.706      1.858
REMARK  9 active torsions:
REMARK  status: ('A' for Active; 'I' for Inactive)
REMARK    1  A    between atoms: C2_2  and  C3_3
REMARK    2  A    between atoms: C3_3  and  C4_4
REMARK    3  A    between atoms: C6_6  and  C7_7
REMARK    4  A    between atoms: C8_8  and  C9_9
REMARK    5  A    between atoms: C9_9  and  C10_10
REMARK    6  A    between atoms: C10_10  and  N1_11
REMARK    7  A    between atoms: N1_11  and  C11_12
REMARK    8  A    between atoms: N1_11  and  C13_14
REMARK    9  A    between atoms: C22_31  and  C23_32
ROOT
HETATM    1  C4  UNL     1      19.675  42.975  -1.104  1.00  0.00    -0.027 A
HETATM    2  C5  UNL     1      19.986  43.771  -2.172  1.00  0.00     0.039 A
HETATM    3  C6  UNL     1      21.116  44.576  -2.165  1.00  0.00     0.034 A
HETATM    4  N2  UNL     1      21.949  44.592  -1.072  1.00  0.00    -0.349 N
HETATM    5  C15 UNL     1      23.035  45.523  -1.011  1.00  0.00     0.156 C
HETATM    6  C16 UNL     1      21.669  43.811  -0.007  1.00  0.00     0.068 A
HETATM    7  C17 UNL     1      20.526  43.000  -0.022  1.00  0.00     0.064 A
HETATM    8  N3  UNL     1      20.408  42.291   1.046  1.00  0.00    -0.363 N
ATOM      9  H3  UNL     1      19.668  41.615   1.239  1.00  0.00     0.162 HD
HETATM   10  C18 UNL     1      21.471  42.610   1.893  1.00  0.00     0.217 C
HETATM   11  N4  UNL     1      21.095  43.323   3.077  1.00  0.00    -0.336 N
ATOM     12  H4  UNL     1      20.180  43.770   3.016  1.00  0.00     0.164 HD
HETATM   13  C19 UNL     1      21.744  43.525   4.307  1.00  0.00     0.225 C
HETATM   14  O1  UNL     1      21.003  43.818   5.248  1.00  0.00    -0.273 OA
HETATM   15  C20 UNL     1      23.196  43.452   4.700  1.00  0.00     0.160 C
HETATM   16  C21 UNL     1      23.922  44.464   3.833  1.00  0.00     0.025 A
HETATM   17  N5  UNL     1      24.552  45.437   4.528  1.00  0.00    -0.355 N
ATOM     18  H5  UNL     1      24.567  45.531   5.544  1.00  0.00     0.166 HD
HETATM   19  C22 UNL     1      25.153  46.254   3.654  1.00  0.00     0.098 A
HETATM   20  C24 UNL     1      24.909  45.805   2.390  1.00  0.00     0.044 A
HETATM   21  C25 UNL     1      24.129  44.671   2.502  1.00  0.00    -0.029 A
HETATM   22  C26 UNL     1      23.731  43.973   1.257  1.00  0.00     0.081 C
HETATM   23  C27 UNL     1      22.378  43.533   1.072  1.00  0.00    -0.005 C
ENDROOT
BRANCH   3  24
HETATM   24  C7  UNL     1      21.495  45.380  -3.301  1.00  0.00     0.025 C
HETATM   25  C8  UNL     1      21.567  44.856  -4.509  1.00  0.00    -0.023 C
BRANCH  25  26
HETATM   26  C9  UNL     1      21.961  45.699  -5.693  1.00  0.00     0.046 C
BRANCH  26  27
HETATM   27  C10 UNL     1      22.032  47.167  -5.259  1.00  0.00     0.120 C
BRANCH  27  28
HETATM   28  N1  UNL     1      22.333  48.059  -6.311  1.00  0.00    -0.413 N
BRANCH  28  29
HETATM   29  C11 UNL     1      22.844  47.501  -7.515  1.00  0.00     0.112 C
HETATM   30  C12 UNL     1      22.218  48.153  -8.741  1.00  0.00     0.026 C
ENDBRANCH  28  29
BRANCH  28  31
HETATM   31  C13 UNL     1      22.882  49.312  -5.899  1.00  0.00     0.112 C
HETATM   32  C14 UNL     1      22.072  49.903  -4.760  1.00  0.00     0.026 C
ENDBRANCH  28  31
ENDBRANCH  27  28
ENDBRANCH  26  27
ENDBRANCH  25  26
ENDBRANCH   3  24
BRANCH   1  33
HETATM   33  C3  UNL     1      18.452  42.134  -1.155  1.00  0.00     0.040 C
BRANCH  33  34
HETATM   34  C2  UNL     1      18.574  40.905  -1.975  1.00  0.00     0.000 C
HETATM   35  C1  UNL     1      17.280  40.236  -2.302  1.00  0.00     0.005 C
ENDBRANCH  33  34
ENDBRANCH   1  33
BRANCH  19  36
HETATM   36  C23 UNL     1      25.938  47.435   4.064  1.00  0.00     0.281 C
HETATM   37  N6  UNL     1      26.526  47.521   5.342  1.00  0.00    -0.056 NA
HETATM   38  O2  UNL     1      26.104  48.400   3.278  1.00  0.00    -0.269 OA
ENDBRANCH  19  36
TORSDOF 9
ENDMDL