MODEL 5
REMARK VINA RESULT: -6.436601608      3.946      7.585
REMARK  11 active torsions:
REMARK  status: ('A' for Active; 'I' for Inactive)
REMARK    1  A    between atoms: C2_2  and  N1_3
REMARK    2  A    between atoms: N1_3  and  C3_4
REMARK    3  A    between atoms: C3_4  and  C4_5
REMARK    4  A    between atoms: C4_5  and  C5_6
REMARK    5  A    between atoms: C5_6  and  C6_7
REMARK    6  A    between atoms: C7_10  and  C8_11
REMARK    7  A    between atoms: C8_11  and  C9_12
REMARK    8  A    between atoms: C9_12  and  C10_13
REMARK    9  A    between atoms: C10_13  and  C11_14
REMARK   10  A    between atoms: C12_15  and  C13_16
REMARK   11  A    between atoms: C13_16  and  N3_17
ROOT
HETATM    1  C6  UNL     1      21.956  43.913   0.408  1.00  0.00    -0.016 C
HETATM    2  N2  UNL     1      20.745  43.798   0.081  1.00  0.00    -0.375 N
ATOM      3  H2  UNL     1      20.254  43.063   0.590  1.00  0.00     0.161 HD
HETATM    4  C7  UNL     1      19.929  44.482  -0.847  1.00  0.00     0.183 C
HETATM    5  N4  UNL     1      19.670  43.575  -1.991  1.00  0.00    -0.340 N
ATOM      6  H4  UNL     1      18.839  42.983  -1.970  1.00  0.00     0.164 HD
HETATM    7  C16 UNL     1      20.533  43.501  -3.111  1.00  0.00     0.219 C
HETATM    8  O2  UNL     1      20.608  42.402  -3.727  1.00  0.00    -0.274 OA
HETATM    9  C17 UNL     1      21.341  44.656  -3.577  1.00  0.00     0.103 C
HETATM   10  C18 UNL     1      22.819  44.293  -3.645  1.00  0.00     0.009 C
HETATM   11  C19 UNL     1      23.603  45.097  -2.613  1.00  0.00     0.001 C
HETATM   12  C20 UNL     1      23.673  44.305  -1.328  1.00  0.00     0.006 C
HETATM   13  C21 UNL     1      22.803  44.941  -0.242  1.00  0.00     0.052 C
ENDROOT
BRANCH   1  14
HETATM   14  C5  UNL     1      22.431  42.976   1.451  1.00  0.00     0.054 C
BRANCH  14  15
HETATM   15  C4  UNL     1      23.156  43.502   2.614  1.00  0.00     0.033 C
BRANCH  15  16
HETATM   16  C3  UNL     1      24.613  43.301   2.707  1.00  0.00     0.238 C
BRANCH  16  17
HETATM   17  N1  UNL     1      25.317  44.560   3.120  1.00  0.00    -0.065 N
HETATM   18  C22 UNL     1      25.648  45.200   1.888  1.00  0.00     0.257 C
HETATM   19  C23 UNL     1      25.652  46.705   1.919  1.00  0.00     0.150 C
HETATM   20  N5  UNL     1      26.166  47.274   3.125  1.00  0.00    -0.359 N
HETATM   21  C24 UNL     1      25.691  47.142   4.463  1.00  0.00     0.219 C
ATOM     22  H5  UNL     1      26.993  47.860   3.012  1.00  0.00     0.162 HD
HETATM   23  O3  UNL     1      26.173  47.863   5.368  1.00  0.00    -0.274 OA
HETATM   24  C25 UNL     1      24.635  46.187   4.885  1.00  0.00     0.130 C
HETATM   25  C26 UNL     1      24.237  45.219   3.836  1.00  0.00     0.246 C
BRANCH  17  26
HETATM   26  C2  UNL     1      26.367  44.112   3.951  1.00  0.00     0.233 C
HETATM   27  C1  UNL     1      27.442  43.255   3.457  1.00  0.00     0.035 C
ENDBRANCH  17  26
ENDBRANCH  16  17
ENDBRANCH  15  16
ENDBRANCH  14  15
ENDBRANCH   1  14
BRANCH   4  28
HETATM   28  C8  UNL     1      18.607  44.718  -0.157  1.00  0.00     0.047 C
BRANCH  28  29
HETATM   29  C9  UNL     1      17.745  43.563   0.107  1.00  0.00     0.016 C
BRANCH  29  30
HETATM   30  C10 UNL     1      17.010  43.492   1.402  1.00  0.00     0.094 C
BRANCH  30  31
HETATM   31  C11 UNL     1      18.029  43.496   2.490  1.00  0.00    -0.104 C
HETATM   32  C12 UNL     1      18.862  43.485   3.357  1.00  0.00    -0.070 C
BRANCH  32  33
HETATM   33  C13 UNL     1      19.868  43.454   4.432  1.00  0.00     0.404 C
BRANCH  33  34
HETATM   34  N3  UNL     1      20.061  44.838   4.846  1.00  0.00     0.015 N
HETATM   35  C14 UNL     1      21.101  44.942   5.857  1.00  0.00     0.357 C
HETATM   36  C15 UNL     1      18.830  45.297   5.427  1.00  0.00     0.357 C
HETATM   37  O1  UNL     1      20.440  45.543   3.771  1.00  0.00    -0.064 OA
ENDBRANCH  33  34
ENDBRANCH  32  33
ENDBRANCH  30  31
ENDBRANCH  29  30
ENDBRANCH  28  29
ENDBRANCH   4  28
TORSDOF 11
ENDMDL