MODEL 3
REMARK VINA RESULT: -6.308013255      0.903      1.427
REMARK  10 active torsions:
REMARK  status: ('A' for Active; 'I' for Inactive)
REMARK    1  A    between atoms: C3_3  and  N1_4
REMARK    2  A    between atoms: N1_4  and  C4_5
REMARK    3  A    between atoms: N1_4  and  C12_19
REMARK    4  A    between atoms: C4_5  and  C5_6
REMARK    5  A    between atoms: C5_6  and  C6_7
REMARK    6  A    between atoms: C6_7  and  C7_8
REMARK    7  A    between atoms: C12_19  and  C13_20
REMARK    8  A    between atoms: C13_20  and  C14_21
REMARK    9  A    between atoms: C14_21  and  C15_22
REMARK   10  A    between atoms: C14_21  and  C18_25
ROOT
HETATM    1  C1  UNL     1      25.713  45.830   1.902  1.00  0.00     0.013 C
HETATM    2  C2  UNL     1      24.818  45.494   1.144  1.00  0.00    -0.087 C
HETATM    3  C3  UNL     1      23.732  45.119   0.247  1.00  0.00     0.364 C
ENDROOT
BRANCH   3   4
HETATM    4  N1  UNL     1      24.174  43.947  -0.517  1.00  0.00     0.099 N
BRANCH   4   5
HETATM    5  C4  UNL     1      23.714  42.742   0.198  1.00  0.00     0.274 C
BRANCH   5   6
HETATM    6  C5  UNL     1      22.310  42.826   0.675  1.00  0.00     0.035 C
BRANCH   6   7
HETATM    7  C6  UNL     1      22.250  42.275   2.098  1.00  0.00     0.048 C
BRANCH   7   8
HETATM    8  C7  UNL     1      22.641  43.252   3.119  1.00  0.00     0.032 A
HETATM    9  C8  UNL     1      21.775  44.266   3.474  1.00  0.00     0.021 A
HETATM   10  C9  UNL     1      20.441  44.419   2.840  1.00  0.00     0.069 C
HETATM   11  N2  UNL     1      22.125  45.171   4.426  1.00  0.00    -0.312 N
HETATM   12  C10 UNL     1      23.312  45.074   5.018  1.00  0.00     0.327 A
ATOM     13  H2  UNL     1      21.482  45.918   4.685  1.00  0.00     0.170 HD
HETATM   14  O1  UNL     1      23.620  45.933   5.909  1.00  0.00    -0.247 OA
HETATM   15  N3  UNL     1      24.160  44.091   4.680  1.00  0.00    -0.275 N
HETATM   16  C11 UNL     1      23.869  43.170   3.748  1.00  0.00     0.257 A
ATOM     17  H3  UNL     1      25.063  44.042   5.149  1.00  0.00     0.173 HD
HETATM   18  O2  UNL     1      24.707  42.251   3.459  1.00  0.00    -0.267 OA
ENDBRANCH   7   8
ENDBRANCH   6   7
ENDBRANCH   5   6
ENDBRANCH   4   5
BRANCH   4  19
HETATM   19  C12 UNL     1      23.592  43.974  -1.846  1.00  0.00     0.275 C
BRANCH  19  20
HETATM   20  C13 UNL     1      23.338  45.332  -2.363  1.00  0.00     0.053 C
BRANCH  20  21
HETATM   21  C14 UNL     1      21.995  45.678  -2.883  1.00  0.00     0.118 C
BRANCH  21  22
HETATM   22  C15 UNL     1      20.905  45.052  -2.151  1.00  0.00    -0.096 C
HETATM   23  C16 UNL     1      19.994  44.543  -1.505  1.00  0.00    -0.110 C
HETATM   24  C17 UNL     1      18.911  43.953  -0.712  1.00  0.00     0.112 C
ENDBRANCH  21  22
BRANCH  21  25
HETATM   25  C18 UNL     1      21.852  45.504  -4.344  1.00  0.00     0.044 A
HETATM   26  C19 UNL     1      21.769  44.240  -4.878  1.00  0.00     0.117 A
HETATM   27  N4  UNL     1      21.643  44.000  -6.185  1.00  0.00    -0.356 N
HETATM   28  C20 UNL     1      21.556  42.652  -6.711  1.00  0.00     0.156 C
HETATM   29  C21 UNL     1      21.593  45.046  -7.033  1.00  0.00     0.078 A
HETATM   30  C22 UNL     1      21.673  46.337  -6.537  1.00  0.00     0.135 A
HETATM   31  C27 UNL     1      21.453  44.793  -8.470  1.00  0.00     0.036 A
HETATM   32  N5  UNL     1      21.803  46.538  -5.186  1.00  0.00    -0.337 N
HETATM   33  N6  UNL     1      21.621  47.439  -7.407  1.00  0.00    -0.341 N
HETATM   34  C23 UNL     1      21.893  47.894  -4.762  1.00  0.00     0.158 C
HETATM   35  C24 UNL     1      21.485  47.191  -8.818  1.00  0.00     0.024 A
ATOM     36  H6  UNL     1      21.678  48.392  -7.048  1.00  0.00     0.167 HD
HETATM   37  C25 UNL     1      21.439  48.230  -9.612  1.00  0.00     0.043 C
HETATM   38  C26 UNL     1      21.403  45.815  -9.306  1.00  0.00     0.031 A
ENDBRANCH  21  25
ENDBRANCH  20  21
ENDBRANCH  19  20
ENDBRANCH   4  19
ENDBRANCH   3   4
TORSDOF 10
ENDMDL