MODEL 5
REMARK VINA RESULT: -6.233562640      1.756      7.124
REMARK  11 active torsions:
REMARK  status: ('A' for Active; 'I' for Inactive)
REMARK    1  A    between atoms: C2_2  and  C3_3
REMARK    2  A    between atoms: C3_3  and  C4_4
REMARK    3  A    between atoms: C4_4  and  N1_5
REMARK       I    between atoms: C5_7  and  N3_9
REMARK    4  A    between atoms: N3_9  and  C6_11
REMARK    5  A    between atoms: C9_16  and  N5_17
REMARK    6  A    between atoms: N5_17  and  C10_19
REMARK    7  A    between atoms: C10_19  and  C11_20
REMARK    8  A    between atoms: C11_20  and  C12_21
REMARK    9  A    between atoms: C12_21  and  N6_22
REMARK   10  A    between atoms: C20_32  and  C22_34
REMARK   11  A    between atoms: C22_34  and  C23_35
ROOT
HETATM    1  C6  UNL     1      22.698  44.841  -0.046  1.00  0.00     0.686 A
HETATM    2  N4  UNL     1      21.906  44.570   1.000  1.00  0.00    -0.191 N
ATOM      3  H4  UNL     1      22.264  44.674   1.949  1.00  0.00     0.184 HD
HETATM    4  C7  UNL     1      20.619  44.153   0.800  1.00  0.00     0.059 A
HETATM    5  C8  UNL     1      20.116  44.005  -0.464  1.00  0.00     0.032 A
HETATM    6  C9  UNL     1      20.954  44.293  -1.533  1.00  0.00     0.129 A
HETATM    7  N7  UNL     1      22.202  44.696  -1.300  1.00  0.00    -0.176 N
ATOM      8  H7  UNL     1      22.807  44.904  -2.094  1.00  0.00     0.186 HD
HETATM    9  C19 UNL     1      18.893  43.575  -0.646  1.00  0.00     0.000 A
HETATM   10  C20 UNL     1      17.950  43.210   0.433  1.00  0.00    -0.022 A
HETATM   11  C21 UNL     1      16.710  44.086   0.143  1.00  0.00     0.020 C
HETATM   12  C25 UNL     1      18.477  43.460   1.774  1.00  0.00     0.042 A
HETATM   13  C26 UNL     1      19.866  43.909   1.838  1.00  0.00     0.005 A
ENDROOT
BRANCH   6  14
HETATM   14  N5  UNL     1      20.491  44.168  -2.714  1.00  0.00    -0.375 N
ATOM     15  H5  UNL     1      19.679  44.742  -2.942  1.00  0.00     0.161 HD
BRANCH  14  16
HETATM   16  C10 UNL     1      20.972  43.321  -3.756  1.00  0.00     0.126 C
BRANCH  16  17
HETATM   17  C11 UNL     1      21.374  44.054  -5.020  1.00  0.00     0.064 C
BRANCH  17  18
HETATM   18  C12 UNL     1      22.748  44.616  -4.860  1.00  0.00     0.059 C
BRANCH  18  19
HETATM   19  N6  UNL     1      22.916  45.992  -5.104  1.00  0.00    -0.393 N
HETATM   20  C13 UNL     1      21.831  46.839  -4.797  1.00  0.00     0.122 C
HETATM   21  C14 UNL     1      22.020  48.280  -5.004  1.00  0.00     0.020 C
HETATM   22  C15 UNL     1      22.758  48.757  -6.180  1.00  0.00     0.002 C
HETATM   23  C16 UNL     1      22.515  48.073  -7.471  1.00  0.00     0.002 C
HETATM   24  C17 UNL     1      22.574  46.577  -7.403  1.00  0.00     0.020 C
HETATM   25  C18 UNL     1      23.583  46.201  -6.347  1.00  0.00     0.122 C
ENDBRANCH  18  19
ENDBRANCH  17  18
ENDBRANCH  16  17
ENDBRANCH  14  16
ENDBRANCH   6  14
BRANCH   1  26
HETATM   26  N3  UNL     1      23.911  45.234   0.148  1.00  0.00    -0.163 N
HETATM   27  C5  UNL     1      24.574  44.858   1.344  1.00  0.00     0.202 C
HETATM   28  N1  UNL     1      24.526  45.604   2.392  1.00  0.00    -0.364 N
HETATM   29  N2  UNL     1      25.310  43.643   1.403  1.00  0.00    -0.063 NA
ATOM     30  H1  UNL     1      24.000  46.477   2.361  1.00  0.00     0.162 HD
ATOM     31  H3  UNL     1      24.387  45.807  -0.548  1.00  0.00     0.187 HD
BRANCH  28  32
HETATM   32  C4  UNL     1      25.204  45.227   3.614  1.00  0.00     0.122 C
BRANCH  32  33
HETATM   33  C3  UNL     1      25.298  46.435   4.519  1.00  0.00     0.019 C
BRANCH  33  34
HETATM   34  C2  UNL     1      25.971  47.564   3.774  1.00  0.00    -0.003 C
HETATM   35  C1  UNL     1      26.055  48.774   4.680  1.00  0.00     0.005 C
ENDBRANCH  33  34
ENDBRANCH  32  33
ENDBRANCH  28  32
ENDBRANCH   1  26
BRANCH  10  36
HETATM   36  C22 UNL     1      17.597  41.757   0.181  1.00  0.00     0.013 C
BRANCH  36  37
HETATM   37  C23 UNL     1      16.816  41.450  -1.027  1.00  0.00    -0.004 C
HETATM   38  C24 UNL     1      17.351  40.459  -1.989  1.00  0.00     0.005 C
ENDBRANCH  36  37
ENDBRANCH  10  36
TORSDOF 11
ENDMDL