MODEL 1
REMARK VINA RESULT: -6.082357528      0.000      0.000
REMARK  14 active torsions:
REMARK  status: ('A' for Active; 'I' for Inactive)
REMARK    1  A    between atoms: N1_2  and  C3_4
REMARK    2  A    between atoms: C3_4  and  C4_5
REMARK    3  A    between atoms: C4_5  and  C5_6
REMARK    4  A    between atoms: C5_6  and  N2_7
REMARK    5  A    between atoms: N2_7  and  C6_9
REMARK    6  A    between atoms: C7_12  and  N4_13
REMARK    7  A    between atoms: N4_13  and  C8_15
REMARK    8  A    between atoms: C8_15  and  C9_16
REMARK    9  A    between atoms: C9_16  and  C10_17
REMARK   10  A    between atoms: C10_17  and  C11_18
REMARK   11  A    between atoms: C11_18  and  C12_19
REMARK   12  A    between atoms: C12_19  and  C13_20
REMARK   13  A    between atoms: C13_20  and  C14_21
REMARK   14  A    between atoms: C17_24  and  N5_25
ROOT
HETATM    1  C6  UNL     1      23.835  46.955  -8.585  1.00  0.00     0.147 A
HETATM    2  N3  UNL     1      23.859  47.409  -7.321  1.00  0.00    -0.175 N
ATOM      3  H3  UNL     1      24.579  47.064  -6.687  1.00  0.00     0.186 HD
HETATM    4  C7  UNL     1      22.959  48.307  -6.862  1.00  0.00     0.682 A
HETATM    5  N6  UNL     1      22.020  48.744  -7.725  1.00  0.00    -0.174 N
ATOM      6  H6  UNL     1      21.336  49.422  -7.387  1.00  0.00     0.186 HD
HETATM    7  C23 UNL     1      21.931  48.340  -8.998  1.00  0.00     0.152 A
HETATM    8  N7  UNL     1      21.122  48.603 -10.041  1.00  0.00    -0.336 N
ATOM      9  H7  UNL     1      20.333  49.248 -10.016  1.00  0.00     0.168 HD
HETATM   10  C24 UNL     1      21.499  47.895 -11.119  1.00  0.00     0.184 A
HETATM   11  N8  UNL     1      22.580  47.160 -10.747  1.00  0.00    -0.341 N
HETATM   12  C25 UNL     1      23.326  46.242 -11.586  1.00  0.00     0.157 C
HETATM   13  C26 UNL     1      22.844  47.427  -9.464  1.00  0.00     0.125 A
ENDROOT
BRANCH   4  14
HETATM   14  N4  UNL     1      23.008  48.721  -5.647  1.00  0.00    -0.215 N
ATOM     15  H4  UNL     1      23.824  49.225  -5.300  1.00  0.00     0.178 HD
BRANCH  14  16
HETATM   16  C8  UNL     1      21.880  48.455  -4.782  1.00  0.00     0.232 C
BRANCH  16  17
HETATM   17  C9  UNL     1      21.889  47.040  -4.336  1.00  0.00    -0.086 C
BRANCH  17  18
HETATM   18  C10 UNL     1      21.919  45.890  -3.979  1.00  0.00    -0.105 C
BRANCH  18  19
HETATM   19  C11 UNL     1      21.955  44.480  -3.513  1.00  0.00     0.094 C
BRANCH  19  20
HETATM   20  C12 UNL     1      20.597  44.203  -2.909  1.00  0.00     0.017 C
BRANCH  20  21
HETATM   21  C13 UNL     1      20.527  44.420  -1.436  1.00  0.00     0.039 C
BRANCH  21  22
HETATM   22  C14 UNL     1      19.261  43.880  -0.911  1.00  0.00    -0.058 A
HETATM   23  C15 UNL     1      18.901  42.558  -1.126  1.00  0.00     0.009 A
HETATM   24  C16 UNL     1      17.702  42.113  -0.598  1.00  0.00     0.038 A
HETATM   25  C17 UNL     1      16.867  42.910   0.122  1.00  0.00     0.135 A
HETATM   26  C21 UNL     1      17.243  44.234   0.329  1.00  0.00     0.038 A
HETATM   27  C22 UNL     1      18.428  44.696  -0.188  1.00  0.00     0.009 A
BRANCH  25  28
HETATM   28  N5  UNL     1      15.632  42.463   0.675  1.00  0.00    -0.049 N
HETATM   29  C18 UNL     1      15.685  41.024   0.870  1.00  0.00     0.278 C
HETATM   30  C19 UNL     1      15.265  43.126   1.892  1.00  0.00     0.278 C
HETATM   31  C20 UNL     1      14.609  42.706  -0.354  1.00  0.00     0.278 C
ENDBRANCH  25  28
ENDBRANCH  21  22
ENDBRANCH  20  21
ENDBRANCH  19  20
ENDBRANCH  18  19
ENDBRANCH  17  18
ENDBRANCH  16  17
ENDBRANCH  14  16
ENDBRANCH   4  14
BRANCH   1  32
HETATM   32  N2  UNL     1      24.663  46.110  -9.049  1.00  0.00    -0.374 N
ATOM     33  H2  UNL     1      25.149  46.353  -9.912  1.00  0.00     0.161 HD
BRANCH  32  34
HETATM   34  C5  UNL     1      24.962  44.854  -8.459  1.00  0.00     0.123 C
BRANCH  34  35
HETATM   35  C4  UNL     1      23.719  43.968  -8.497  1.00  0.00     0.050 C
BRANCH  35  36
HETATM   36  C3  UNL     1      23.253  43.651  -7.090  1.00  0.00     0.273 C
BRANCH  36  37
HETATM   37  N1  UNL     1      21.821  43.832  -6.982  1.00  0.00     0.080 N
HETATM   38  C1  UNL     1      21.159  42.567  -6.639  1.00  0.00     0.309 C
HETATM   39  C2  UNL     1      21.333  44.224  -8.295  1.00  0.00     0.309 C
ENDBRANCH  36  37
ENDBRANCH  35  36
ENDBRANCH  34  35
ENDBRANCH  32  34
ENDBRANCH   1  32
TORSDOF 14
ENDMDL