MODEL 5
REMARK VINA RESULT: -5.926888013      3.778      7.273
REMARK  9 active torsions:
REMARK  status: ('A' for Active; 'I' for Inactive)
REMARK    1  A    between atoms: N1_6  and  C4_7
REMARK    2  A    between atoms: C4_7  and  C5_8
REMARK    3  A    between atoms: C5_8  and  N2_9
REMARK    4  A    between atoms: N2_9  and  C8_12
REMARK    5  A    between atoms: C8_12  and  C9_13
REMARK    6  A    between atoms: C9_13  and  C10_14
REMARK    7  A    between atoms: C10_14  and  N3_15
REMARK    8  A    between atoms: N3_15  and  C11_18
REMARK    9  A    between atoms: C21_31  and  C22_32
ROOT
HETATM    1  C1  UNL     1      20.096  48.193 -10.917  1.00  0.00     0.011 C
HETATM    2  C2  UNL     1      20.972  46.935 -11.070  1.00  0.00     0.008 C
HETATM    3  C3  UNL     1      22.372  47.325 -11.045  1.00  0.00     0.144 C
HETATM    4  S1  UNL     1      23.579  46.220 -10.381  1.00  0.00     0.210 S
HETATM    5  O1  UNL     1      24.118  45.218 -11.340  1.00  0.00    -0.229 OA
HETATM    6  N1  UNL     1      23.256  45.656  -8.794  1.00  0.00     0.013 N
HETATM    7  C17 UNL     1      22.305  44.635  -8.824  1.00  0.00     0.255 C
HETATM    8  C18 UNL     1      21.285  44.715  -9.925  1.00  0.00     0.043 C
HETATM    9  C19 UNL     1      20.490  45.945 -10.059  1.00  0.00     0.084 C
HETATM   10  C20 UNL     1      20.102  46.589  -8.777  1.00  0.00     0.223 C
HETATM   11  O2  UNL     1      18.919  47.077  -8.743  1.00  0.00    -0.273 OA
HETATM   12  N4  UNL     1      20.690  46.858  -7.516  1.00  0.00    -0.345 N
ATOM     13  H4  UNL     1      20.055  47.374  -6.907  1.00  0.00     0.163 HD
HETATM   14  C21 UNL     1      21.976  46.590  -6.854  1.00  0.00     0.212 C
HETATM   15  C23 UNL     1      22.960  46.825  -8.003  1.00  0.00     0.290 C
ENDROOT
BRANCH   6  16
HETATM   16  C4  UNL     1      24.490  45.168  -8.117  1.00  0.00     0.282 C
BRANCH  16  17
HETATM   17  C5  UNL     1      24.552  43.708  -8.121  1.00  0.00     0.265 C
BRANCH  17  18
HETATM   18  N2  UNL     1      24.989  43.212  -6.775  1.00  0.00    -0.073 N
HETATM   19  C6  UNL     1      26.302  42.767  -6.773  1.00  0.00     0.272 C
HETATM   20  C7  UNL     1      24.153  41.961  -6.588  1.00  0.00     0.272 C
BRANCH  18  21
HETATM   21  C8  UNL     1      24.498  44.102  -5.810  1.00  0.00     0.238 C
BRANCH  21  22
HETATM   22  C9  UNL     1      24.083  43.696  -4.450  1.00  0.00     0.055 C
BRANCH  22  23
HETATM   23  C10 UNL     1      24.323  44.719  -3.358  1.00  0.00     0.234 C
BRANCH  23  24
HETATM   24  N3  UNL     1      23.368  45.791  -3.474  1.00  0.00    -0.071 N
ATOM     25  H32 UNL     1      23.826  46.698  -3.392  1.00  0.00     0.277 HD
ATOM     26  H31 UNL     1      23.019  45.867  -4.430  1.00  0.00     0.277 HD
BRANCH  24  27
HETATM   27  C11 UNL     1      22.287  45.678  -2.544  1.00  0.00     0.185 C
HETATM   28  C12 UNL     1      21.055  45.008  -3.059  1.00  0.00     0.033 C
HETATM   29  C13 UNL     1      20.169  44.718  -1.855  1.00  0.00     0.002 C
HETATM   30  C14 UNL     1      20.884  43.674  -1.012  1.00  0.00     0.000 C
HETATM   31  C15 UNL     1      22.250  44.113  -0.587  1.00  0.00     0.002 C
HETATM   32  C16 UNL     1      22.657  45.441  -1.127  1.00  0.00     0.033 C
ENDBRANCH  24  27
ENDBRANCH  23  24
ENDBRANCH  22  23
ENDBRANCH  21  22
ENDBRANCH  18  21
ENDBRANCH  17  18
ENDBRANCH  16  17
ENDBRANCH   6  16
BRANCH  14  33
HETATM   33  C22 UNL     1      22.169  47.838  -6.034  1.00  0.00     0.198 C
HETATM   34  O3  UNL     1      22.992  48.708  -6.476  1.00  0.00    -0.646 OA
HETATM   35  O4  UNL     1      21.492  48.098  -4.856  1.00  0.00    -0.646 OA
ENDBRANCH  14  33
TORSDOF 9
ENDMDL