MODEL 4
REMARK VINA RESULT: -8.052375182      1.396      1.704
REMARK  9 active torsions:
REMARK  status: ('A' for Active; 'I' for Inactive)
REMARK    1  A    between atoms: C9_12  and  C10_13
REMARK    2  A    between atoms: C10_13  and  C11_14
REMARK    3  A    between atoms: C11_14  and  C12_15
REMARK    4  A    between atoms: C22_30  and  C23_31
REMARK    5  A    between atoms: C23_31  and  C24_32
REMARK    6  A    between atoms: C24_32  and  C25_33
REMARK    7  A    between atoms: C25_33  and  C26_34
REMARK    8  A    between atoms: C26_34  and  C27_35
REMARK    9  A    between atoms: C27_35  and  C28_36
ROOT
HETATM    1  C1  UNL     1      20.417  43.700   5.609  1.00  0.00     0.044 C
HETATM    2  C2  UNL     1      20.201  43.726   4.319  1.00  0.00     0.036 A
HETATM    3  N1  UNL     1      21.307  43.833   3.518  1.00  0.00    -0.354 N
ATOM      4  H1  UNL     1      22.229  43.885   3.950  1.00  0.00     0.166 HD
HETATM    5  C3  UNL     1      21.209  43.870   2.191  1.00  0.00     0.073 A
HETATM    6  C4  UNL     1      19.951  43.798   1.581  1.00  0.00     0.046 A
HETATM    7  C5  UNL     1      18.816  43.690   2.345  1.00  0.00     0.196 A
HETATM    8  O1  UNL     1      17.662  43.622   1.847  1.00  0.00    -0.287 OA
HETATM    9  C6  UNL     1      18.964  43.655   3.733  1.00  0.00     0.031 A
HETATM   10  C7  UNL     1      17.889  43.553   4.482  1.00  0.00     0.030 C
HETATM   11  C8  UNL     1      19.843  43.838   0.131  1.00  0.00     0.047 A
HETATM   12  C9  UNL     1      20.842  43.939  -0.705  1.00  0.00     0.030 A
HETATM   13  N3  UNL     1      22.160  44.013  -0.074  1.00  0.00    -0.355 N
ATOM     14  H3  UNL     1      22.973  44.092  -0.686  1.00  0.00     0.166 HD
HETATM   15  C21 UNL     1      22.389  43.984   1.304  1.00  0.00     0.056 A
HETATM   16  C22 UNL     1      23.592  44.059   1.840  1.00  0.00     0.005 C
ENDROOT
BRANCH  12  17
HETATM   17  C10 UNL     1      20.854  43.990  -2.128  1.00  0.00     0.007 C
BRANCH  17  18
HETATM   18  C11 UNL     1      20.829  45.133  -3.001  1.00  0.00     0.074 C
BRANCH  18  19
HETATM   19  C12 UNL     1      21.502  45.111  -4.314  1.00  0.00     0.026 A
HETATM   20  C13 UNL     1      21.920  46.264  -4.935  1.00  0.00     0.003 A
HETATM   21  C14 UNL     1      21.818  47.572  -4.511  1.00  0.00     0.021 A
HETATM   22  C19 UNL     1      22.475  45.921  -6.123  1.00  0.00     0.046 A
HETATM   23  C15 UNL     1      22.287  48.587  -5.301  1.00  0.00    -0.061 A
HETATM   24  C16 UNL     1      22.195  50.029  -4.875  1.00  0.00     0.048 C
HETATM   25  C17 UNL     1      22.857  48.270  -6.514  1.00  0.00     0.009 A
HETATM   26  C18 UNL     1      22.955  46.963  -6.931  1.00  0.00     0.031 A
HETATM   27  N2  UNL     1      22.471  44.673  -6.356  1.00  0.00    -0.322 N
HETATM   28  C20 UNL     1      21.844  44.053  -5.206  1.00  0.00     0.253 A
ATOM     29  H2  UNL     1      22.835  44.203  -7.184  1.00  0.00     0.169 HD
HETATM   30  O2  UNL     1      21.682  42.830  -5.102  1.00  0.00    -0.268 OA
ENDBRANCH  18  19
ENDBRANCH  17  18
ENDBRANCH  12  17
BRANCH  16  31
HETATM   31  C23 UNL     1      24.880  44.176   1.111  1.00  0.00     0.029 C
BRANCH  31  32
HETATM   32  C24 UNL     1      25.909  44.882   1.993  1.00  0.00     0.004 C
BRANCH  32  33
HETATM   33  C25 UNL     1      25.647  46.329   2.127  1.00  0.00     0.001 C
BRANCH  33  34
HETATM   34  C26 UNL     1      25.651  46.969   3.449  1.00  0.00     0.010 C
BRANCH  34  35
HETATM   35  C27 UNL     1      25.634  46.148   4.682  1.00  0.00     0.113 C
BRANCH  35  36
HETATM   36  C28 UNL     1      24.338  45.857   5.269  1.00  0.00     0.172 C
HETATM   37  O3  UNL     1      24.283  45.506   6.502  1.00  0.00    -0.648 OA
HETATM   38  O4  UNL     1      23.127  45.913   4.628  1.00  0.00    -0.648 OA
ENDBRANCH  35  36
ENDBRANCH  34  35
ENDBRANCH  33  34
ENDBRANCH  32  33
ENDBRANCH  31  32
ENDBRANCH  16  31
TORSDOF 9
ENDMDL