MODEL 4
REMARK VINA RESULT: -6.253338302      1.280      1.976
REMARK  8 active torsions:
REMARK  status: ('A' for Active; 'I' for Inactive)
REMARK    1  A    between atoms: C4_4  and  C5_5
REMARK    2  A    between atoms: C14_19  and  C15_20
REMARK    3  A    between atoms: C20_27  and  N4_28
REMARK    4  A    between atoms: N4_28  and  C21_30
REMARK    5  A    between atoms: C21_30  and  C22_31
REMARK    6  A    between atoms: C22_31  and  C23_32
REMARK    7  A    between atoms: C23_32  and  C24_33
REMARK    8  A    between atoms: C24_33  and  N5_34
ROOT
HETATM    1  C1  UNL     1      22.277  49.615  -4.958  1.00  0.00     0.050 C
HETATM    2  C2  UNL     1      22.100  48.127  -4.924  1.00  0.00    -0.034 A
HETATM    3  C3  UNL     1      22.189  47.437  -3.736  1.00  0.00     0.022 A
HETATM    4  C4  UNL     1      22.026  46.074  -3.708  1.00  0.00    -0.011 A
HETATM    5  C9  UNL     1      21.768  45.353  -4.865  1.00  0.00     0.028 A
HETATM    6  C10 UNL     1      21.675  46.019  -6.059  1.00  0.00     0.006 A
HETATM    7  C11 UNL     1      21.435  45.670  -7.394  1.00  0.00     0.026 A
HETATM    8  C12 UNL     1      21.457  46.817  -8.185  1.00  0.00     0.058 A
HETATM    9  N2  UNL     1      21.709  47.833  -7.328  1.00  0.00    -0.354 N
ATOM     10  H2  UNL     1      21.789  48.810  -7.608  1.00  0.00     0.166 HD
HETATM   11  C13 UNL     1      21.843  47.400  -6.066  1.00  0.00     0.050 A
HETATM   12  C14 UNL     1      21.205  46.799  -9.492  1.00  0.00     0.043 C
HETATM   13  C16 UNL     1      20.838  45.522 -10.174  1.00  0.00    -0.008 C
HETATM   14  C17 UNL     1      21.732  45.399 -11.396  1.00  0.00     0.021 C
HETATM   15  C18 UNL     1      19.410  45.645 -10.702  1.00  0.00     0.021 C
HETATM   16  C19 UNL     1      20.982  44.322  -9.355  1.00  0.00     0.071 C
HETATM   17  C20 UNL     1      21.202  44.467  -7.905  1.00  0.00     0.019 C
ENDROOT
BRANCH  17  18
HETATM   18  N4  UNL     1      21.127  43.315  -7.070  1.00  0.00    -0.392 N
ATOM     19  H4  UNL     1      20.349  43.300  -6.411  1.00  0.00     0.159 HD
BRANCH  18  20
HETATM   20  C21 UNL     1      21.987  42.180  -7.029  1.00  0.00     0.119 C
BRANCH  20  21
HETATM   21  C22 UNL     1      23.399  42.370  -7.477  1.00  0.00     0.021 C
BRANCH  21  22
HETATM   22  C23 UNL     1      24.318  42.980  -6.495  1.00  0.00     0.029 C
BRANCH  22  23
HETATM   23  C24 UNL     1      25.062  42.134  -5.550  1.00  0.00     0.236 C
BRANCH  23  24
HETATM   24  N5  UNL     1      25.024  42.462  -4.158  1.00  0.00    -0.079 N
HETATM   25  C25 UNL     1      23.660  42.113  -3.670  1.00  0.00     0.271 C
HETATM   26  C26 UNL     1      25.143  43.869  -3.928  1.00  0.00     0.271 C
HETATM   27  C27 UNL     1      25.896  41.653  -3.326  1.00  0.00     0.271 C
ENDBRANCH  23  24
ENDBRANCH  22  23
ENDBRANCH  21  22
ENDBRANCH  20  21
ENDBRANCH  18  20
ENDBRANCH  17  18
BRANCH  12  28
HETATM   28  C15 UNL     1      21.229  47.985 -10.318  1.00  0.00     0.264 C
HETATM   29  N3  UNL     1      20.124  48.784 -10.620  1.00  0.00    -0.057 NA
HETATM   30  O2  UNL     1      22.326  48.353 -10.822  1.00  0.00    -0.271 OA
ENDBRANCH  12  28
BRANCH   4  31
HETATM   31  C5  UNL     1      22.128  45.379  -2.418  1.00  0.00     0.035 A
HETATM   32  N1  UNL     1      22.930  45.460  -1.423  1.00  0.00    -0.329 N
HETATM   33  C6  UNL     1      22.332  44.467  -0.627  1.00  0.00     0.231 A
ATOM     34  H1  UNL     1      23.743  46.055  -1.260  1.00  0.00     0.168 HD
HETATM   35  O1  UNL     1      22.546  43.975   0.491  1.00  0.00    -0.272 OA
HETATM   36  C7  UNL     1      21.381  44.312  -1.717  1.00  0.00     0.125 A
HETATM   37  C8  UNL     1      19.962  44.763  -1.470  1.00  0.00     0.026 C
ENDBRANCH   4  31
TORSDOF 8
ENDMDL