MODEL 5
REMARK VINA RESULT: -7.006039525      1.990      3.325
REMARK  11 active torsions:
REMARK  status: ('A' for Active; 'I' for Inactive)
REMARK    1  A    between atoms: C4_4  and  C5_5
REMARK    2  A    between atoms: C5_5  and  C6_6
REMARK    3  A    between atoms: C10_10  and  C11_11
REMARK    4  A    between atoms: C11_11  and  C12_12
REMARK    5  A    between atoms: C12_12  and  C13_13
REMARK    6  A    between atoms: C13_13  and  C14_14
REMARK    7  A    between atoms: C21_21  and  S1_22
REMARK    8  A    between atoms: S1_22  and  N1_25
REMARK    9  A    between atoms: N1_25  and  C22_27
REMARK   10  A    between atoms: C22_27  and  C23_28
REMARK   11  A    between atoms: C23_28  and  O3_29
ROOT
HETATM    1  C1  UNL     1      18.591  44.329  -0.089  1.00  0.00     0.044 C
HETATM    2  C2  UNL     1      19.594  44.078   0.704  1.00  0.00     0.038 A
HETATM    3  C3  UNL     1      20.994  44.322   0.410  1.00  0.00     0.029 A
HETATM    4  C4  UNL     1      21.409  44.760  -0.817  1.00  0.00    -0.021 A
HETATM    5  C19 UNL     1      22.785  44.940  -1.022  1.00  0.00     0.014 A
HETATM    6  C20 UNL     1      23.713  44.699  -0.065  1.00  0.00     0.028 A
HETATM    7  C21 UNL     1      23.300  44.248   1.198  1.00  0.00     0.107 A
HETATM    8  C24 UNL     1      21.967  44.066   1.409  1.00  0.00     0.070 A
HETATM    9  N2  UNL     1      21.523  43.569   2.675  1.00  0.00    -0.350 N
ATOM     10  H2  UNL     1      22.204  43.374   3.409  1.00  0.00     0.166 HD
HETATM   11  C25 UNL     1      20.144  43.344   2.916  1.00  0.00     0.183 A
HETATM   12  N3  UNL     1      19.257  43.570   2.033  1.00  0.00    -0.347 N
HETATM   13  C26 UNL     1      17.880  43.309   2.377  1.00  0.00     0.157 C
ENDROOT
BRANCH   4  14
HETATM   14  C5  UNL     1      20.560  45.024  -1.960  1.00  0.00     0.024 C
BRANCH  14  15
HETATM   15  C6  UNL     1      20.971  44.772  -3.208  1.00  0.00    -0.025 A
HETATM   16  C7  UNL     1      21.456  45.805  -4.013  1.00  0.00     0.019 A
HETATM   17  C8  UNL     1      21.890  45.607  -5.308  1.00  0.00    -0.055 A
HETATM   18  C9  UNL     1      22.401  46.747  -6.141  1.00  0.00     0.049 C
HETATM   19  C10 UNL     1      21.852  44.353  -5.846  1.00  0.00    -0.051 A
HETATM   20  C16 UNL     1      21.380  43.319  -5.077  1.00  0.00     0.019 A
HETATM   21  C17 UNL     1      20.948  43.527  -3.783  1.00  0.00    -0.035 A
HETATM   22  C18 UNL     1      20.519  42.463  -3.140  1.00  0.00     0.024 C
BRANCH  19  23
HETATM   23  C11 UNL     1      22.312  44.065  -7.247  1.00  0.00     0.039 C
BRANCH  23  24
HETATM   24  C12 UNL     1      23.494  43.111  -7.245  1.00  0.00     0.005 C
BRANCH  24  25
HETATM   25  C13 UNL     1      24.731  43.791  -6.693  1.00  0.00    -0.000 C
BRANCH  25  26
HETATM   26  C14 UNL     1      25.170  43.080  -5.443  1.00  0.00    -0.005 C
HETATM   27  C15 UNL     1      25.057  43.922  -4.207  1.00  0.00     0.005 C
ENDBRANCH  25  26
ENDBRANCH  24  25
ENDBRANCH  23  24
ENDBRANCH  19  23
ENDBRANCH  14  15
ENDBRANCH   4  14
BRANCH   7  28
HETATM   28  S1  UNL     1      24.535  44.072   2.378  1.00  0.00     0.261 S
HETATM   29  O1  UNL     1      25.818  43.541   1.734  1.00  0.00    -0.200 OA
HETATM   30  O2  UNL     1      24.222  43.044   3.445  1.00  0.00    -0.200 OA
BRANCH  28  31
HETATM   31  N1  UNL     1      24.889  45.549   3.142  1.00  0.00    -0.313 N
ATOM     32  H1  UNL     1      24.514  45.778   4.062  1.00  0.00     0.172 HD
BRANCH  31  33
HETATM   33  C22 UNL     1      25.721  46.437   2.446  1.00  0.00     0.158 C
BRANCH  33  34
HETATM   34  C23 UNL     1      25.980  47.649   3.373  1.00  0.00     0.184 C
BRANCH  34  35
HETATM   35  O3  UNL     1      25.732  48.830   2.693  1.00  0.00    -0.399 OA
ATOM     36  H3  UNL     1      25.460  48.643   1.802  1.00  0.00     0.209 HD
ENDBRANCH  34  35
ENDBRANCH  33  34
ENDBRANCH  31  33
ENDBRANCH  28  31
ENDBRANCH   7  28
TORSDOF 11
ENDMDL