MODEL 3
REMARK VINA RESULT: -7.363123207      4.103      5.790
REMARK  10 active torsions:
REMARK  status: ('A' for Active; 'I' for Inactive)
REMARK    1  A    between atoms: C2_2  and  C3_3
REMARK    2  A    between atoms: N1_8  and  C8_9
REMARK    3  A    between atoms: C8_9  and  C9_10
REMARK    4  A    between atoms: C12_16  and  C13_17
REMARK    5  A    between atoms: C16_20  and  C17_21
REMARK    6  A    between atoms: C17_21  and  N3_22
REMARK    7  A    between atoms: C20_25  and  C21_26
REMARK    8  A    between atoms: C21_26  and  N4_27
REMARK    9  A    between atoms: C24_30  and  C25_31
REMARK   10  A    between atoms: N6_33  and  O2_35
ROOT
HETATM    1  C13 UNL     1      82.728  62.097  12.231  1.00  0.00    -0.020 A
HETATM    2  C14 UNL     1      82.366  63.141  13.052  1.00  0.00     0.013 A
HETATM    3  C15 UNL     1      81.402  64.050  12.660  1.00  0.00     0.010 A
HETATM    4  C16 UNL     1      80.766  63.955  11.439  1.00  0.00    -0.040 A
HETATM    5  C30 UNL     1      81.133  62.908  10.621  1.00  0.00     0.010 A
HETATM    6  C31 UNL     1      82.095  61.999  11.010  1.00  0.00     0.013 A
ENDROOT
BRANCH   4   7
HETATM    7  C17 UNL     1      79.726  64.938  11.017  1.00  0.00     0.166 C
BRANCH   7   8
HETATM    8  N3  UNL     1      78.485  64.757  11.766  1.00  0.00    -0.362 N
HETATM    9  C18 UNL     1      77.740  63.643  11.645  1.00  0.00     0.091 A
HETATM   10  C19 UNL     1      76.563  63.437  12.336  1.00  0.00     0.026 A
HETATM   11  C20 UNL     1      76.104  64.408  13.200  1.00  0.00    -0.037 A
HETATM   12  C28 UNL     1      76.863  65.554  13.329  1.00  0.00     0.026 A
HETATM   13  C29 UNL     1      78.032  65.705  12.613  1.00  0.00     0.091 A
BRANCH  11  14
HETATM   14  C21 UNL     1      74.832  64.224  13.967  1.00  0.00     0.166 C
BRANCH  14  15
HETATM   15  N4  UNL     1      75.118  64.155  15.396  1.00  0.00    -0.362 N
HETATM   16  C22 UNL     1      75.731  63.134  15.973  1.00  0.00     0.091 A
HETATM   17  C23 UNL     1      75.971  63.140  17.345  1.00  0.00     0.032 A
HETATM   18  C24 UNL     1      75.593  64.180  18.151  1.00  0.00     0.009 A
HETATM   19  C26 UNL     1      74.950  65.235  17.501  1.00  0.00     0.032 A
HETATM   20  C27 UNL     1      74.735  65.189  16.157  1.00  0.00     0.091 A
BRANCH  18  21
HETATM   21  C25 UNL     1      75.822  64.228  19.580  1.00  0.00     0.146 C
HETATM   22  N5  UNL     1      74.667  64.504  20.421  1.00  0.00    -0.080 NA
HETATM   23  N6  UNL     1      76.896  64.059  20.180  1.00  0.00    -0.255 N
ATOM     24  H6  UNL     1      76.797  64.143  21.192  1.00  0.00     0.195 HD
BRANCH  23  25
HETATM   25  O2  UNL     1      78.157  63.792  19.806  1.00  0.00    -0.288 OA
ATOM     26  H2  UNL     1      78.556  63.343  19.070  1.00  0.00     0.244 HD
ENDBRANCH  23  25
ENDBRANCH  18  21
ENDBRANCH  14  15
ENDBRANCH  11  14
ENDBRANCH   7   8
ENDBRANCH   4   7
BRANCH   1  27
HETATM   27  C12 UNL     1      83.754  61.101  12.609  1.00  0.00     0.043 A
HETATM   28  C11 UNL     1      83.389  59.851  13.060  1.00  0.00     0.256 A
HETATM   29  N2  UNL     1      84.291  58.925  13.408  1.00  0.00    -0.332 N
HETATM   30  O1  UNL     1      82.166  59.583  13.143  1.00  0.00    -0.267 OA
HETATM   31  C10 UNL     1      85.594  59.206  13.321  1.00  0.00     0.100 A
ATOM     32  H2  UNL     1      83.985  58.010  13.739  1.00  0.00     0.168 HD
HETATM   33  C9  UNL     1      86.036  60.451  12.872  1.00  0.00    -0.024 A
HETATM   34  C32 UNL     1      85.085  61.411  12.511  1.00  0.00     0.028 A
BRANCH  33  35
HETATM   35  C8  UNL     1      87.456  60.778  12.828  1.00  0.00     0.168 C
BRANCH  35  36
HETATM   36  N1  UNL     1      88.339  59.857  12.163  1.00  0.00    -0.356 N
HETATM   37  C3  UNL     1      88.340  59.678  10.843  1.00  0.00     0.011 A
HETATM   38  C4  UNL     1      89.260  58.788  10.255  1.00  0.00     0.025 A
HETATM   39  C5  UNL     1      90.151  58.104  11.016  1.00  0.00     0.003 A
HETATM   40  C6  UNL     1      90.128  58.307  12.369  1.00  0.00     0.017 A
HETATM   41  C7  UNL     1      89.243  59.165  12.948  1.00  0.00     0.091 A
BRANCH  37  42
HETATM   42  C2  UNL     1      87.425  60.424   9.911  1.00  0.00     0.053 C
HETATM   43  C1  UNL     1      86.339  59.564   9.351  1.00  0.00     0.011 C
ENDBRANCH  37  42
ENDBRANCH  35  36
ENDBRANCH  33  35
ENDBRANCH   1  27
TORSDOF 10
ENDMDL