MODEL 3
REMARK VINA RESULT: -5.729387544      6.338     12.745
REMARK  12 active torsions:
REMARK  status: ('A' for Active; 'I' for Inactive)
REMARK    1  A    between atoms: C2_2  and  C3_3
REMARK    2  A    between atoms: C5_5  and  O1_6
REMARK    3  A    between atoms: C6_8  and  C7_9
REMARK    4  A    between atoms: C8_10  and  C9_11
REMARK    5  A    between atoms: C9_11  and  C10_12
REMARK    6  A    between atoms: C10_12  and  C11_13
REMARK    7  A    between atoms: C12_14  and  C13_15
REMARK    8  A    between atoms: C19_24  and  C20_25
REMARK    9  A    between atoms: C20_25  and  O4_26
REMARK   10  A    between atoms: N2_32  and  C25_33
REMARK   11  A    between atoms: C25_33  and  C26_34
REMARK   12  A    between atoms: C26_34  and  N3_35
ROOT
HETATM    1  C3  UNL     1      85.136  59.031   9.933  1.00  0.00     0.145 A
HETATM    2  C4  UNL     1      84.342  58.693  10.989  1.00  0.00     0.070 A
HETATM    3  C5  UNL     1      84.112  59.469  12.245  1.00  0.00     0.085 C
HETATM    4  C6  UNL     1      82.795  59.023  12.680  1.00  0.00     0.113 C
HETATM    5  C14 UNL     1      82.258  58.123  11.567  1.00  0.00     0.138 C
HETATM    6  O3  UNL     1      81.721  57.109  11.751  1.00  0.00    -0.297 OA
HETATM    7  C15 UNL     1      82.464  58.622  10.125  1.00  0.00     0.091 C
HETATM    8  C16 UNL     1      83.731  59.540  10.094  1.00  0.00     0.006 A
HETATM    9  C17 UNL     1      83.491  60.711   9.395  1.00  0.00     0.019 C
HETATM   10  C18 UNL     1      85.386  59.221  12.929  1.00  0.00     0.068 C
HETATM   11  C19 UNL     1      85.989  60.527  13.377  1.00  0.00    -0.009 C
HETATM   12  C21 UNL     1      87.294  59.896  13.959  1.00  0.00     0.015 C
HETATM   13  C22 UNL     1      87.739  59.322  12.611  1.00  0.00     0.040 C
HETATM   14  C23 UNL     1      86.472  58.814  11.946  1.00  0.00     0.134 C
HETATM   15  C24 UNL     1      86.637  57.344  11.930  1.00  0.00     0.047 C
HETATM   16  N2  UNL     1      86.340  59.462  10.606  1.00  0.00    -0.046 N
HETATM   17  C30 UNL     1      86.518  60.843  10.882  1.00  0.00     0.240 C
HETATM   18  C31 UNL     1      86.430  61.387  12.269  1.00  0.00     0.040 C
ENDROOT
BRANCH   4  19
HETATM   19  C7  UNL     1      81.762  60.041  12.914  1.00  0.00    -0.011 C
HETATM   20  C8  UNL     1      80.608  59.669  13.434  1.00  0.00     0.005 C
BRANCH  20  21
HETATM   21  C9  UNL     1      79.547  60.688  13.676  1.00  0.00     0.055 C
BRANCH  21  22
HETATM   22  C10 UNL     1      79.566  61.884  13.801  1.00  0.00    -0.128 C
BRANCH  22  23
HETATM   23  C11 UNL     1      79.588  63.293  13.947  1.00  0.00     0.060 C
HETATM   24  C12 UNL     1      80.351  64.151  13.344  1.00  0.00     0.079 C
BRANCH  24  25
HETATM   25  C13 UNL     1      81.378  63.943  12.374  1.00  0.00     0.255 C
HETATM   26  N1  UNL     1      82.644  63.430  12.841  1.00  0.00    -0.058 NA
HETATM   27  O2  UNL     1      81.239  64.180  11.179  1.00  0.00    -0.272 OA
ENDBRANCH  24  25
ENDBRANCH  22  23
ENDBRANCH  21  22
ENDBRANCH  20  21
ENDBRANCH   4  19
BRANCH   3  28
HETATM   28  O1  UNL     1      83.967  60.822  12.110  1.00  0.00    -0.388 OA
ATOM     29  H1  UNL     1      84.343  61.360  12.796  1.00  0.00     0.210 HD
ENDBRANCH   3  28
BRANCH   1  30
HETATM   30  C2  UNL     1      85.083  58.585   8.503  1.00  0.00     0.036 C
HETATM   31  C1  UNL     1      85.204  57.141   8.178  1.00  0.00     0.007 C
ENDBRANCH   1  30
BRANCH  11  32
HETATM   32  C20 UNL     1      85.363  61.224  14.501  1.00  0.00     0.174 C
BRANCH  32  33
HETATM   33  O4  UNL     1      85.316  62.599  14.179  1.00  0.00    -0.400 OA
ATOM     34  H4  UNL     1      84.536  62.962  14.582  1.00  0.00     0.209 HD
ENDBRANCH  32  33
ENDBRANCH  11  32
BRANCH  16  35
HETATM   35  C25 UNL     1      87.507  58.918   9.923  1.00  0.00     0.267 C
BRANCH  35  36
HETATM   36  C26 UNL     1      88.432  59.731   9.137  1.00  0.00     0.264 C
BRANCH  36  37
HETATM   37  N3  UNL     1      89.849  59.467   9.444  1.00  0.00    -0.077 N
HETATM   38  C27 UNL     1      90.619  59.557   8.213  1.00  0.00     0.271 C
HETATM   39  C28 UNL     1      89.998  58.122   9.931  1.00  0.00     0.271 C
HETATM   40  C29 UNL     1      90.438  60.412  10.337  1.00  0.00     0.271 C
ENDBRANCH  36  37
ENDBRANCH  35  36
ENDBRANCH  16  35
TORSDOF 12
ENDMDL