MODEL 4
REMARK VINA RESULT: -7.436728520      2.718      6.435
REMARK  9 active torsions:
REMARK  status: ('A' for Active; 'I' for Inactive)
REMARK    1  A    between atoms: C2_2  and  C3_3
REMARK    2  A    between atoms: C3_3  and  C4_4
REMARK    3  A    between atoms: N1_7  and  C7_8
REMARK    4  A    between atoms: C7_8  and  C8_9
REMARK    5  A    between atoms: C8_9  and  C9_10
REMARK    6  A    between atoms: C11_12  and  C12_13
REMARK    7  A    between atoms: N5_28  and  C22_29
REMARK    8  A    between atoms: C22_29  and  C23_30
REMARK    9  A    between atoms: C30_40  and  O2_41
ROOT
HETATM    1  C9  UNL     1      80.347  61.427  13.725  1.00  0.00     0.017 A
HETATM    2  C10 UNL     1      79.313  61.836  14.595  1.00  0.00     0.057 A
HETATM    3  C11 UNL     1      78.933  63.140  14.695  1.00  0.00     0.062 A
HETATM    4  N4  UNL     1      79.573  64.029  13.938  1.00  0.00    -0.344 N
ATOM      5  H4  UNL     1      79.294  65.007  14.006  1.00  0.00     0.167 HD
HETATM    6  C20 UNL     1      80.582  63.707  13.075  1.00  0.00     0.080 A
HETATM    7  C21 UNL     1      81.167  64.796  12.274  1.00  0.00     0.089 C
HETATM    8  N5  UNL     1      80.925  62.402  13.014  1.00  0.00    -0.336 N
ENDROOT
BRANCH   1   9
HETATM    9  C8  UNL     1      80.713  59.998  13.743  1.00  0.00     0.085 C
BRANCH   9  10
HETATM   10  C7  UNL     1      80.085  59.222  12.687  1.00  0.00     0.243 C
BRANCH  10  11
HETATM   11  N1  UNL     1      80.732  58.484  11.706  1.00  0.00    -0.063 N
HETATM   12  C6  UNL     1      80.375  57.077  11.707  1.00  0.00     0.238 C
HETATM   13  C5  UNL     1      81.557  56.314  11.127  1.00  0.00     0.042 C
HETATM   14  C4  UNL     1      82.550  57.411  10.942  1.00  0.00     0.016 C
HETATM   15  C30 UNL     1      82.092  58.263   9.785  1.00  0.00     0.154 C
HETATM   16  C31 UNL     1      82.190  58.336  12.087  1.00  0.00     0.249 C
HETATM   17  C29 UNL     1      80.875  58.962  10.392  1.00  0.00     0.269 C
BRANCH  14  18
HETATM   18  C3  UNL     1      83.967  57.017  10.909  1.00  0.00     0.040 C
BRANCH  18  19
HETATM   19  C2  UNL     1      84.766  57.395  12.079  1.00  0.00    -0.036 C
HETATM   20  C1  UNL     1      86.105  57.280  12.028  1.00  0.00     0.007 C
ENDBRANCH  18  19
ENDBRANCH  14  18
BRANCH  15  21
HETATM   21  O2  UNL     1      83.037  59.235   9.510  1.00  0.00    -0.393 OA
ATOM     22  H2  UNL     1      83.577  58.964   8.777  1.00  0.00     0.210 HD
ENDBRANCH  15  21
ENDBRANCH  10  11
ENDBRANCH   9  10
ENDBRANCH   1   9
BRANCH   8  23
HETATM   23  C22 UNL     1      82.052  62.073  12.176  1.00  0.00     0.169 C
BRANCH  23  24
HETATM   24  C23 UNL     1      83.346  61.975  12.914  1.00  0.00    -0.033 A
HETATM   25  C24 UNL     1      83.610  62.451  14.148  1.00  0.00     0.033 A
HETATM   26  C25 UNL     1      84.855  62.331  14.725  1.00  0.00     0.009 A
HETATM   27  C26 UNL     1      85.113  62.874  16.107  1.00  0.00     0.068 C
HETATM   28  N6  UNL     1      85.828  61.720  14.031  1.00  0.00    -0.328 N
HETATM   29  C27 UNL     1      85.626  61.226  12.800  1.00  0.00     0.246 A
ATOM     30  H6  UNL     1      86.752  61.628  14.453  1.00  0.00     0.169 HD
HETATM   31  O1  UNL     1      86.595  60.655  12.187  1.00  0.00    -0.268 OA
HETATM   32  C28 UNL     1      84.388  61.346  12.225  1.00  0.00     0.083 A
ENDBRANCH  23  24
ENDBRANCH   8  23
BRANCH   3  33
HETATM   33  C12 UNL     1      77.853  63.504  15.600  1.00  0.00     0.061 A
HETATM   34  C13 UNL     1      77.527  62.926  16.814  1.00  0.00     0.047 A
HETATM   35  C14 UNL     1      76.442  63.609  17.307  1.00  0.00     0.010 A
HETATM   36  C15 UNL     1      75.728  63.439  18.479  1.00  0.00     0.017 A
HETATM   37  C19 UNL     1      76.098  64.593  16.421  1.00  0.00     0.117 A
HETATM   38  C16 UNL     1      74.669  64.257  18.759  1.00  0.00     0.018 A
HETATM   39  C17 UNL     1      74.358  65.232  17.838  1.00  0.00     0.092 A
HETATM   40  N2  UNL     1      75.056  65.391  16.702  1.00  0.00    -0.347 N
HETATM   41  C18 UNL     1      74.702  66.425  15.759  1.00  0.00     0.157 C
HETATM   42  N3  UNL     1      76.962  64.497  15.418  1.00  0.00    -0.340 N
ATOM     43  H3  UNL     1      76.952  65.108  14.601  1.00  0.00     0.167 HD
ENDBRANCH   3  33
TORSDOF 9
ENDMDL