MODEL 4
REMARK VINA RESULT: -6.473537325      2.843      4.348
REMARK  10 active torsions:
REMARK  status: ('A' for Active; 'I' for Inactive)
REMARK    1  A    between atoms: C2_2  and  C3_3
REMARK    2  A    between atoms: C3_3  and  N1_4
REMARK    3  A    between atoms: C5_6  and  C6_7
REMARK    4  A    between atoms: C6_7  and  C7_8
REMARK    5  A    between atoms: C7_8  and  C8_9
REMARK    6  A    between atoms: C8_9  and  C9_10
REMARK    7  A    between atoms: C12_16  and  N4_17
REMARK    8  A    between atoms: N4_17  and  C13_19
REMARK    9  A    between atoms: C13_19  and  C14_20
REMARK       I    between atoms: N5_23  and  C17_24
REMARK   10  A    between atoms: N8_31  and  O1_32
ROOT
HETATM    1  C9  UNL     1      78.256  66.479  12.730  1.00  0.00    -0.054 A
HETATM    2  C10 UNL     1      79.327  66.883  11.905  1.00  0.00     0.026 A
HETATM    3  C11 UNL     1      80.449  66.103  11.816  1.00  0.00     0.118 A
HETATM    4  N2  UNL     1      80.588  64.937  12.493  1.00  0.00    -0.252 N
HETATM    5  N3  UNL     1      81.681  64.208  12.394  1.00  0.00    -0.123 N
ATOM      6  H3  UNL     1      82.438  64.525  11.789  1.00  0.00     0.206 HD
HETATM    7  C12 UNL     1      81.825  63.034  13.085  1.00  0.00     0.723 A
HETATM    8  N8  UNL     1      80.831  62.616  13.878  1.00  0.00    -0.060 N
HETATM    9  C20 UNL     1      79.700  63.337  14.001  1.00  0.00     0.173 A
HETATM   10  C21 UNL     1      79.597  64.512  13.290  1.00  0.00     0.075 A
HETATM   11  C22 UNL     1      78.453  65.309  13.380  1.00  0.00     0.040 A
ENDROOT
BRANCH   1  12
HETATM   12  C8  UNL     1      77.054  67.338  12.841  1.00  0.00     0.039 C
BRANCH  12  13
HETATM   13  C7  UNL     1      75.783  66.648  13.102  1.00  0.00     0.005 C
BRANCH  13  14
HETATM   14  C6  UNL     1      75.048  66.852  14.343  1.00  0.00     0.012 C
BRANCH  14  15
HETATM   15  C5  UNL     1      74.678  65.722  15.219  1.00  0.00    -0.012 C
HETATM   16  C4  UNL     1      75.711  65.750  16.378  1.00  0.00     0.136 C
HETATM   17  N1  UNL     1      74.984  65.340  17.555  1.00  0.00    -0.348 N
HETATM   18  C28 UNL     1      73.609  65.600  17.386  1.00  0.00     0.225 C
HETATM   19  C27 UNL     1      73.389  65.626  15.886  1.00  0.00     0.088 C
HETATM   20  O2  UNL     1      72.744  65.775  18.280  1.00  0.00    -0.273 OA
HETATM   21  C26 UNL     1      72.659  64.298  15.526  1.00  0.00     0.015 C
HETATM   22  C25 UNL     1      73.475  63.122  15.976  1.00  0.00     0.001 C
HETATM   23  C24 UNL     1      74.828  63.218  15.328  1.00  0.00     0.001 C
HETATM   24  C23 UNL     1      74.988  64.415  14.460  1.00  0.00     0.012 C
BRANCH  17  25
HETATM   25  C3  UNL     1      75.591  64.752  18.727  1.00  0.00     0.152 C
BRANCH  25  26
HETATM   26  C2  UNL     1      75.947  63.324  18.569  1.00  0.00    -0.017 C
HETATM   27  C1  UNL     1      77.189  62.968  18.237  1.00  0.00     0.008 C
ENDBRANCH  25  26
ENDBRANCH  17  25
ENDBRANCH  14  15
ENDBRANCH  13  14
ENDBRANCH  12  13
ENDBRANCH   1  12
BRANCH   8  28
HETATM   28  O1  UNL     1      80.958  61.419  14.594  1.00  0.00    -0.270 OA
ATOM     29  H1  UNL     1      80.362  60.699  14.430  1.00  0.00     0.245 HD
ENDBRANCH   8  28
BRANCH   7  30
HETATM   30  N4  UNL     1      82.911  62.374  12.945  1.00  0.00    -0.202 N
ATOM     31  H4  UNL     1      83.678  62.671  13.547  1.00  0.00     0.183 HD
BRANCH  30  32
HETATM   32  C13 UNL     1      83.210  61.301  12.087  1.00  0.00     0.083 C
BRANCH  32  33
HETATM   33  C14 UNL     1      84.186  60.302  12.704  1.00  0.00     0.028 C
HETATM   34  C15 UNL     1      85.105  59.818  11.618  1.00  0.00     0.030 C
HETATM   35  C16 UNL     1      86.188  60.831  11.341  1.00  0.00     0.126 C
HETATM   36  N5  UNL     1      87.042  60.815  12.534  1.00  0.00    -0.356 N
HETATM   37  C17 UNL     1      88.435  60.945  12.354  1.00  0.00     0.183 C
HETATM   38  C18 UNL     1      86.427  60.663  13.824  1.00  0.00     0.126 C
HETATM   39  N6  UNL     1      89.206  60.903  13.378  1.00  0.00    -0.374 N
HETATM   40  N7  UNL     1      89.019  61.119  11.075  1.00  0.00    -0.064 NA
ATOM     41  H62 UNL     1      88.785  60.778  14.299  1.00  0.00     0.158 HD
ATOM     42  H61 UNL     1      90.213  60.997  13.247  1.00  0.00     0.158 HD
HETATM   43  C19 UNL     1      84.956  60.924  13.806  1.00  0.00     0.030 C
ENDBRANCH  32  33
ENDBRANCH  30  32
ENDBRANCH   7  30
TORSDOF 10
ENDMDL