MODEL 4
REMARK VINA RESULT: -7.912307506      3.485      9.265
REMARK  9 active torsions:
REMARK  status: ('A' for Active; 'I' for Inactive)
REMARK    1  A    between atoms: C3_3  and  C4_4
REMARK    2  A    between atoms: C4_4  and  C5_5
REMARK    3  A    between atoms: C6_8  and  C7_9
REMARK    4  A    between atoms: C7_9  and  C8_10
REMARK    5  A    between atoms: C8_10  and  C9_11
REMARK    6  A    between atoms: C9_11  and  C10_12
REMARK    7  A    between atoms: C10_12  and  C11_13
REMARK    8  A    between atoms: C13_15  and  C14_16
REMARK    9  A    between atoms: N2_17  and  C15_19
ROOT
HETATM    1  C11 UNL     1      83.290  60.083  11.619  1.00  0.00     0.012 A
HETATM    2  C12 UNL     1      82.523  61.229  11.596  1.00  0.00     0.040 A
HETATM    3  C13 UNL     1      82.669  62.245  12.532  1.00  0.00     0.010 A
HETATM    4  C21 UNL     1      83.645  62.042  13.509  1.00  0.00     0.071 A
HETATM    5  N4  UNL     1      84.062  62.767  14.538  1.00  0.00    -0.357 N
ATOM      6  H4  UNL     1      83.681  63.680  14.788  1.00  0.00     0.166 HD
HETATM    7  C22 UNL     1      85.060  62.142  15.220  1.00  0.00     0.008 A
HETATM    8  C23 UNL     1      85.743  62.708  16.434  1.00  0.00     0.068 C
HETATM    9  C24 UNL     1      85.280  60.955  14.579  1.00  0.00     0.056 A
HETATM   10  C25 UNL     1      84.395  60.879  13.500  1.00  0.00     0.064 A
HETATM   11  N5  UNL     1      84.224  59.910  12.569  1.00  0.00    -0.353 N
HETATM   12  C26 UNL     1      85.070  58.741  12.675  1.00  0.00     0.156 C
ENDROOT
BRANCH   1  13
HETATM   13  C10 UNL     1      83.086  59.023  10.608  1.00  0.00     0.057 C
BRANCH  13  14
HETATM   14  C9  UNL     1      82.177  57.915  11.057  1.00  0.00     0.006 C
BRANCH  14  15
HETATM   15  C8  UNL     1      80.729  58.208  10.680  1.00  0.00     0.006 C
BRANCH  15  16
HETATM   16  C7  UNL     1      79.983  58.450  11.964  1.00  0.00     0.057 C
BRANCH  16  17
HETATM   17  C6  UNL     1      79.355  59.794  12.035  1.00  0.00     0.010 A
HETATM   18  N1  UNL     1      79.231  60.583  13.094  1.00  0.00    -0.359 N
HETATM   19  C5  UNL     1      78.600  61.746  12.760  1.00  0.00     0.040 A
ATOM     20  H1  UNL     1      79.562  60.351  14.031  1.00  0.00     0.166 HD
HETATM   21  C28 UNL     1      78.334  61.632  11.401  1.00  0.00    -0.033 A
HETATM   22  C27 UNL     1      78.800  60.421  10.945  1.00  0.00     0.034 A
HETATM   23  C29 UNL     1      77.657  62.645  10.573  1.00  0.00     0.050 C
BRANCH  19  24
HETATM   24  C4  UNL     1      78.334  62.836  13.653  1.00  0.00     0.062 C
BRANCH  24  25
HETATM   25  C3  UNL     1      77.635  62.896  14.763  1.00  0.00     0.064 A
HETATM   26  C2  UNL     1      76.292  62.756  15.002  1.00  0.00     0.056 A
HETATM   27  C1  UNL     1      75.309  62.502  14.161  1.00  0.00     0.045 C
HETATM   28  N7  UNL     1      76.047  62.916  16.337  1.00  0.00    -0.303 N
HETATM   29  C30 UNL     1      77.222  63.148  16.905  1.00  0.00     0.327 A
HETATM   30  C31 UNL     1      74.728  62.845  17.003  1.00  0.00     0.161 C
HETATM   31  N6  UNL     1      78.195  63.145  15.997  1.00  0.00    -0.306 N
HETATM   32  O1  UNL     1      77.455  63.353  18.137  1.00  0.00    -0.246 OA
ATOM     33  H6  UNL     1      79.186  63.300  16.182  1.00  0.00     0.171 HD
ENDBRANCH  24  25
ENDBRANCH  19  24
ENDBRANCH  16  17
ENDBRANCH  15  16
ENDBRANCH  14  15
ENDBRANCH  13  14
ENDBRANCH   1  13
BRANCH   3  34
HETATM   34  C14 UNL     1      81.847  63.440  12.493  1.00  0.00     0.102 C
HETATM   35  N2  UNL     1      81.319  63.939  11.444  1.00  0.00    -0.365 N
ATOM     36  H2  UNL     1      81.484  63.466  10.556  1.00  0.00     0.165 HD
BRANCH  35  37
HETATM   37  C15 UNL     1      80.520  65.106  11.433  1.00  0.00     0.034 A
HETATM   38  C16 UNL     1      80.244  65.823  12.572  1.00  0.00     0.046 A
HETATM   39  C17 UNL     1      79.462  66.952  12.504  1.00  0.00     0.092 A
HETATM   40  N3  UNL     1      78.954  67.383  11.359  1.00  0.00    -0.371 N
HETATM   41  C18 UNL     1      78.131  68.585  11.344  1.00  0.00     0.154 C
HETATM   42  C19 UNL     1      79.216  66.685  10.216  1.00  0.00     0.092 A
HETATM   43  C20 UNL     1      79.994  65.549  10.242  1.00  0.00     0.046 A
ENDBRANCH  35  37
ENDBRANCH   3  34
TORSDOF 9
ENDMDL