MODEL 1
REMARK VINA RESULT: -6.714434869      0.000      0.000
REMARK  12 active torsions:
REMARK  status: ('A' for Active; 'I' for Inactive)
REMARK    1  A    between atoms: C3_3  and  C4_4
REMARK    2  A    between atoms: C4_4  and  C5_5
REMARK    3  A    between atoms: C5_5  and  C6_6
REMARK    4  A    between atoms: C6_6  and  C7_7
REMARK    5  A    between atoms: C10_10  and  C11_11
REMARK    6  A    between atoms: C11_11  and  C12_12
REMARK    7  A    between atoms: C17_19  and  O1_20
REMARK    8  A    between atoms: O1_20  and  C18_21
REMARK    9  A    between atoms: C18_21  and  C19_22
REMARK   10  A    between atoms: C19_22  and  C20_23
REMARK   11  A    between atoms: N2_27  and  O2_28
REMARK   12  A    between atoms: C24_30  and  O3_31
ROOT
HETATM    1  C1  UNL     1      81.179  64.294  11.823  1.00  0.00     0.012 C
HETATM    2  C2  UNL     1      80.863  65.433  12.062  1.00  0.00    -0.117 C
HETATM    3  C3  UNL     1      80.471  66.805  12.373  1.00  0.00     0.093 C
ENDROOT
BRANCH   3   4
HETATM    4  C4  UNL     1      79.444  67.327  11.390  1.00  0.00     0.016 C
BRANCH   4   5
HETATM    5  C5  UNL     1      78.258  67.940  12.125  1.00  0.00     0.030 C
BRANCH   5   6
HETATM    6  C6  UNL     1      77.233  66.924  12.295  1.00  0.00     0.003 C
BRANCH   6   7
HETATM    7  C7  UNL     1      76.932  66.085  13.269  1.00  0.00     0.031 A
HETATM    8  C8  UNL     1      77.232  64.719  13.051  1.00  0.00     0.045 A
HETATM    9  C9  UNL     1      76.836  64.009  14.138  1.00  0.00     0.021 A
HETATM   10  C10 UNL     1      76.883  62.641  14.454  1.00  0.00     0.046 A
HETATM   11  C31 UNL     1      76.276  64.986  15.045  1.00  0.00     0.059 A
HETATM   12  N3  UNL     1      76.378  62.306  15.647  1.00  0.00    -0.355 N
HETATM   13  C25 UNL     1      75.844  63.204  16.508  1.00  0.00     0.045 A
ATOM     14  H3  UNL     1      76.395  61.323  15.922  1.00  0.00     0.166 HD
HETATM   15  C26 UNL     1      75.340  62.700  17.693  1.00  0.00     0.030 A
HETATM   16  C30 UNL     1      75.764  64.560  16.262  1.00  0.00     0.018 A
HETATM   17  C27 UNL     1      74.767  63.563  18.603  1.00  0.00     0.002 A
HETATM   18  C28 UNL     1      74.681  64.910  18.365  1.00  0.00     0.001 A
HETATM   19  C29 UNL     1      75.189  65.410  17.174  1.00  0.00     0.016 A
HETATM   20  N4  UNL     1      76.365  66.210  14.471  1.00  0.00    -0.350 N
HETATM   21  C32 UNL     1      75.989  67.456  15.070  1.00  0.00     0.156 C
BRANCH  10  22
HETATM   22  C11 UNL     1      77.529  61.870  13.626  1.00  0.00     0.047 C
BRANCH  22  23
HETATM   23  C12 UNL     1      78.812  61.242  13.582  1.00  0.00     0.035 C
HETATM   24  C13 UNL     1      78.797  59.967  13.100  1.00  0.00     0.104 C
HETATM   25  N1  UNL     1      79.886  59.055  12.904  1.00  0.00    -0.363 N
HETATM   26  C14 UNL     1      81.209  59.535  12.549  1.00  0.00     0.061 A
ATOM     27  H1  UNL     1      79.728  58.054  13.017  1.00  0.00     0.165 HD
HETATM   28  C15 UNL     1      81.865  58.712  11.665  1.00  0.00     0.035 A
HETATM   29  C23 UNL     1      81.800  60.721  13.002  1.00  0.00     0.094 A
HETATM   30  C16 UNL     1      83.117  59.090  11.238  1.00  0.00     0.039 A
HETATM   31  C17 UNL     1      83.692  60.266  11.689  1.00  0.00     0.071 A
HETATM   32  C22 UNL     1      83.047  61.099  12.577  1.00  0.00     0.071 A
HETATM   33  N2  UNL     1      81.224  61.595  13.981  1.00  0.00    -0.199 N
HETATM   34  C24 UNL     1      79.982  61.808  14.228  1.00  0.00     0.179 C
BRANCH  31  35
HETATM   35  O1  UNL     1      84.959  60.637  11.249  1.00  0.00    -0.351 OA
BRANCH  35  36
HETATM   36  C18 UNL     1      86.077  59.962  11.746  1.00  0.00     0.175 C
BRANCH  36  37
HETATM   37  C19 UNL     1      86.717  60.806  12.803  1.00  0.00     0.026 C
BRANCH  37  38
HETATM   38  C20 UNL     1      86.491  60.218  14.183  1.00  0.00    -0.002 C
HETATM   39  C21 UNL     1      85.739  61.181  15.070  1.00  0.00     0.005 C
ENDBRANCH  37  38
ENDBRANCH  36  37
ENDBRANCH  35  36
ENDBRANCH  31  35
BRANCH  33  40
HETATM   40  O2  UNL     1      82.156  62.305  14.729  1.00  0.00    -0.280 OA
ATOM     41  H2  UNL     1      82.188  63.234  14.531  1.00  0.00     0.245 HD
ENDBRANCH  33  40
BRANCH  34  42
HETATM   42  O3  UNL     1      79.760  62.707  15.304  1.00  0.00    -0.344 OA
ATOM     43  H3  UNL     1      80.525  63.059  15.742  1.00  0.00     0.219 HD
ENDBRANCH  34  42
ENDBRANCH  22  23
ENDBRANCH  10  22
ENDBRANCH   6   7
ENDBRANCH   5   6
ENDBRANCH   4   5
ENDBRANCH   3   4
TORSDOF 12
ENDMDL