MODEL 5
REMARK VINA RESULT: -6.414166517      1.324      1.717
REMARK  12 active torsions:
REMARK  status: ('A' for Active; 'I' for Inactive)
REMARK    1  A    between atoms: C2_2  and  C3_3
REMARK    2  A    between atoms: C4_4  and  C5_5
REMARK    3  A    between atoms: C6_6  and  C7_7
REMARK    4  A    between atoms: C14_14  and  S1_15
REMARK    5  A    between atoms: S1_15  and  N1_18
REMARK    6  A    between atoms: N3_26  and  C20_27
REMARK    7  A    between atoms: C20_27  and  C21_28
REMARK    8  A    between atoms: C21_28  and  C22_29
REMARK    9  A    between atoms: C22_29  and  C23_30
REMARK   10  A    between atoms: C23_30  and  C24_31
REMARK   11  A    between atoms: C24_31  and  N4_32
REMARK   12  A    between atoms: C27_37  and  N6_38
ROOT
HETATM    1  C3  UNL     1      79.315  64.616  12.106  1.00  0.00     0.048 A
HETATM    2  C4  UNL     1      79.935  63.390  11.881  1.00  0.00     0.111 A
HETATM    3  N2  UNL     1      79.144  62.732  11.037  1.00  0.00    -0.344 N
ATOM      4  H2  UNL     1      79.312  61.796  10.669  1.00  0.00     0.167 HD
HETATM    5  C19 UNL     1      78.100  63.498  10.757  1.00  0.00     0.184 A
HETATM    6  N3  UNL     1      78.152  64.680  11.391  1.00  0.00    -0.344 N
ENDROOT
BRANCH   2   7
HETATM    7  C5  UNL     1      81.179  62.935  12.449  1.00  0.00    -0.041 C
HETATM    8  C6  UNL     1      82.224  62.543  12.949  1.00  0.00    -0.058 C
BRANCH   8   9
HETATM    9  C7  UNL     1      83.442  62.082  13.569  1.00  0.00     0.042 A
HETATM   10  C8  UNL     1      83.915  62.749  14.710  1.00  0.00     0.029 A
HETATM   11  C9  UNL     1      85.079  62.329  15.313  1.00  0.00    -0.060 A
HETATM   12  C10 UNL     1      85.538  63.066  16.514  1.00  0.00     0.048 C
HETATM   13  C11 UNL     1      85.767  61.255  14.790  1.00  0.00     0.015 A
HETATM   14  C12 UNL     1      85.329  60.578  13.673  1.00  0.00    -0.037 A
HETATM   15  C13 UNL     1      86.093  59.420  13.153  1.00  0.00     0.050 C
HETATM   16  C14 UNL     1      84.144  61.028  13.081  1.00  0.00     0.099 A
BRANCH  16  17
HETATM   17  S1  UNL     1      83.608  60.149  11.693  1.00  0.00     0.245 S
HETATM   18  O1  UNL     1      83.056  61.014  10.594  1.00  0.00    -0.206 OA
HETATM   19  O2  UNL     1      84.789  59.371  11.135  1.00  0.00    -0.206 OA
BRANCH  17  20
HETATM   20  N1  UNL     1      82.351  59.084  12.152  1.00  0.00    -0.206 NA
HETATM   21  C15 UNL     1      81.098  59.292  11.467  1.00  0.00     0.107 C
HETATM   22  C16 UNL     1      80.294  58.025  11.765  1.00  0.00     0.017 C
HETATM   23  C17 UNL     1      81.346  56.951  11.944  1.00  0.00     0.017 C
HETATM   24  C18 UNL     1      82.671  57.683  11.971  1.00  0.00     0.107 C
ENDBRANCH  17  20
ENDBRANCH  16  17
ENDBRANCH   8   9
ENDBRANCH   2   7
BRANCH   1  25
HETATM   25  C2  UNL     1      79.858  65.656  12.988  1.00  0.00     0.056 C
HETATM   26  C1  UNL     1      80.680  66.695  12.253  1.00  0.00     0.011 C
ENDBRANCH   1  25
BRANCH   6  27
HETATM   27  C20 UNL     1      77.242  65.806  11.385  1.00  0.00     0.130 C
BRANCH  27  28
HETATM   28  C21 UNL     1      76.255  65.772  12.497  1.00  0.00     0.020 C
BRANCH  28  29
HETATM   29  C22 UNL     1      76.112  67.026  13.291  1.00  0.00     0.003 C
BRANCH  29  30
HETATM   30  C23 UNL     1      76.343  66.865  14.765  1.00  0.00     0.020 C
BRANCH  30  31
HETATM   31  C24 UNL     1      75.490  65.780  15.304  1.00  0.00     0.128 C
BRANCH  31  32
HETATM   32  N4  UNL     1      76.088  64.822  16.156  1.00  0.00    -0.362 N
HETATM   33  C25 UNL     1      76.949  63.932  15.632  1.00  0.00     0.107 A
HETATM   34  C26 UNL     1      77.548  62.976  16.462  1.00  0.00     0.107 A
HETATM   35  N5  UNL     1      77.265  62.946  17.778  1.00  0.00    -0.350 N
HETATM   36  C27 UNL     1      76.404  63.831  18.313  1.00  0.00     0.114 A
ATOM     37  H5  UNL     1      77.706  62.246  18.374  1.00  0.00     0.166 HD
HETATM   38  C28 UNL     1      75.826  64.763  17.478  1.00  0.00     0.138 A
BRANCH  36  39
HETATM   39  N6  UNL     1      76.133  63.806  19.560  1.00  0.00    -0.384 N
ATOM     40  H62 UNL     1      76.174  64.654  20.124  1.00  0.00     0.157 HD
ATOM     41  H61 UNL     1      75.868  62.934  20.018  1.00  0.00     0.157 HD
ENDBRANCH  36  39
ENDBRANCH  31  32
ENDBRANCH  30  31
ENDBRANCH  29  30
ENDBRANCH  28  29
ENDBRANCH  27  28
ENDBRANCH   6  27
TORSDOF 12
ENDMDL