MODEL 4
REMARK VINA RESULT: -6.817971366      1.708      3.248
REMARK  13 active torsions:
REMARK  status: ('A' for Active; 'I' for Inactive)
REMARK    1  A    between atoms: C5_5  and  C6_6
REMARK    2  A    between atoms: C6_6  and  C7_7
REMARK    3  A    between atoms: C8_10  and  O1_11
REMARK    4  A    between atoms: C10_14  and  C11_15
REMARK    5  A    between atoms: C11_15  and  C12_16
REMARK    6  A    between atoms: C13_17  and  C14_18
REMARK    7  A    between atoms: C16_20  and  C17_21
REMARK    8  A    between atoms: C18_22  and  C19_23
REMARK    9  A    between atoms: C25_32  and  C26_33
REMARK   10  A    between atoms: C26_33  and  C27_34
REMARK   11  A    between atoms: C27_34  and  N3_35
REMARK   12  A    between atoms: N3_35  and  N4_37
REMARK   13  A    between atoms: N4_37  and  N5_38
ROOT
HETATM    1  C14 UNL     1      78.979  65.504  11.511  1.00  0.00    -0.012 A
HETATM    2  C15 UNL     1      79.962  65.481  12.491  1.00  0.00     0.042 A
HETATM    3  C16 UNL     1      80.894  64.439  12.184  1.00  0.00     0.033 A
HETATM    4  N2  UNL     1      80.431  63.850  11.001  1.00  0.00    -0.359 N
ATOM      5  H2  UNL     1      80.877  63.071  10.518  1.00  0.00     0.166 HD
HETATM    6  C25 UNL     1      79.313  64.468  10.604  1.00  0.00     0.021 A
ENDROOT
BRANCH   1   7
HETATM    7  C13 UNL     1      77.888  66.478  11.594  1.00  0.00     0.010 C
HETATM    8  C12 UNL     1      76.526  66.204  11.257  1.00  0.00    -0.021 C
BRANCH   8   9
HETATM    9  C11 UNL     1      75.537  65.468  12.051  1.00  0.00     0.068 C
BRANCH   9  10
HETATM   10  C10 UNL     1      75.918  65.334  13.496  1.00  0.00    -0.022 A
HETATM   11  C9  UNL     1      76.341  64.131  14.072  1.00  0.00     0.052 A
HETATM   12  C8  UNL     1      76.611  62.798  13.864  1.00  0.00     0.153 A
HETATM   13  C29 UNL     1      76.613  64.337  15.405  1.00  0.00     0.074 A
HETATM   14  N1  UNL     1      77.021  62.227  14.997  1.00  0.00    -0.334 N
HETATM   15  C7  UNL     1      77.029  63.149  15.952  1.00  0.00     0.062 A
ATOM     16  H1  UNL     1      77.283  61.248  15.110  1.00  0.00     0.168 HD
HETATM   17  N6  UNL     1      76.363  65.656  15.659  1.00  0.00    -0.363 N
HETATM   18  C28 UNL     1      75.945  66.245  14.499  1.00  0.00     0.097 A
ATOM     19  H6  UNL     1      76.471  66.122  16.560  1.00  0.00     0.165 HD
BRANCH  12  20
HETATM   20  O1  UNL     1      76.461  62.171  12.613  1.00  0.00    -0.345 OA
ATOM     21  H1  UNL     1      77.064  62.215  11.880  1.00  0.00     0.219 HD
ENDBRANCH  12  20
BRANCH  15  22
HETATM   22  C6  UNL     1      77.405  63.003  17.366  1.00  0.00     0.043 C
BRANCH  22  23
HETATM   23  C5  UNL     1      76.553  63.209  18.331  1.00  0.00    -0.034 A
HETATM   24  C4  UNL     1      76.872  63.953  19.446  1.00  0.00     0.012 A
HETATM   25  C3  UNL     1      75.936  64.152  20.454  1.00  0.00     0.011 A
HETATM   26  C2  UNL     1      74.660  63.623  20.388  1.00  0.00    -0.046 A
HETATM   27  C1  UNL     1      73.772  63.816  21.350  1.00  0.00     0.023 C
HETATM   28  C31 UNL     1      74.350  62.878  19.263  1.00  0.00     0.011 A
HETATM   29  C30 UNL     1      75.286  62.681  18.257  1.00  0.00     0.012 A
ENDBRANCH  22  23
ENDBRANCH  15  22
ENDBRANCH   9  10
ENDBRANCH   8   9
ENDBRANCH   1   7
BRANCH   6  30
HETATM   30  C26 UNL     1      78.699  64.026   9.315  1.00  0.00     0.080 C
BRANCH  30  31
HETATM   31  C27 UNL     1      77.513  63.101   9.611  1.00  0.00     0.161 C
BRANCH  31  32
HETATM   32  N3  UNL     1      77.983  61.710   9.605  1.00  0.00    -0.252 N
ATOM     33  H3  UNL     1      77.866  61.126   8.778  1.00  0.00     0.196 HD
BRANCH  32  34
HETATM   34  N4  UNL     1      78.519  61.266  10.616  1.00  0.00    -0.249 NA
BRANCH  34  35
HETATM   35  N5  UNL     1      78.829  60.772  11.719  1.00  0.00    -0.261 N
ATOM     36  H52 UNL     1      79.183  61.677  12.028  1.00  0.00     0.193 HD
ATOM     37  H51 UNL     1      79.006  60.195  12.542  1.00  0.00     0.193 HD
ENDBRANCH  34  35
ENDBRANCH  32  34
ENDBRANCH  31  32
ENDBRANCH  30  31
ENDBRANCH   6  30
BRANCH   3  38
HETATM   38  C17 UNL     1      81.995  64.101  12.898  1.00  0.00     0.032 C
HETATM   39  C18 UNL     1      82.492  62.772  12.754  1.00  0.00     0.040 C
BRANCH  39  40
HETATM   40  C19 UNL     1      83.550  62.233  13.357  1.00  0.00     0.082 A
HETATM   41  O2  UNL     1      83.949  62.595  14.579  1.00  0.00    -0.311 OA
HETATM   42  C20 UNL     1      84.991  61.960  14.987  1.00  0.00     0.067 A
HETATM   43  C21 UNL     1      85.605  62.118  16.166  1.00  0.00     0.051 C
HETATM   44  C22 UNL     1      85.352  61.092  13.990  1.00  0.00     0.046 A
HETATM   45  C23 UNL     1      84.428  61.273  12.952  1.00  0.00    -0.025 A
HETATM   46  C24 UNL     1      84.432  60.541  11.669  1.00  0.00     0.051 C
ENDBRANCH  39  40
ENDBRANCH   3  38
TORSDOF 13
ENDMDL