MODEL 5
REMARK VINA RESULT: -6.834267347      3.670      4.538
REMARK  13 active torsions:
REMARK  status: ('A' for Active; 'I' for Inactive)
REMARK    1  A    between atoms: C4_6  and  O1_7
REMARK    2  A    between atoms: C5_9  and  C6_10
REMARK    3  A    between atoms: N2_14  and  C10_15
REMARK    4  A    between atoms: C10_15  and  C11_16
REMARK    5  A    between atoms: C12_17  and  C13_18
REMARK    6  A    between atoms: C16_21  and  C17_22
REMARK    7  A    between atoms: C20_25  and  C21_26
REMARK    8  A    between atoms: C21_26  and  C22_27
REMARK    9  A    between atoms: C22_27  and  C23_28
REMARK   10  A    between atoms: C23_28  and  N3_29
REMARK   11  A    between atoms: C26_32  and  C27_33
REMARK   12  A    between atoms: C27_33  and  N4_34
REMARK   13  A    between atoms: N4_34  and  O2_36
ROOT
HETATM    1  C13 UNL     1      81.660  62.706  13.254  1.00  0.00     0.017 A
HETATM    2  C14 UNL     1      81.928  62.024  12.088  1.00  0.00     0.021 A
HETATM    3  C15 UNL     1      83.126  61.363  11.906  1.00  0.00     0.013 A
HETATM    4  C16 UNL     1      84.106  61.354  12.878  1.00  0.00    -0.026 A
HETATM    5  C32 UNL     1      83.825  62.042  14.046  1.00  0.00     0.013 A
HETATM    6  C33 UNL     1      82.627  62.706  14.233  1.00  0.00     0.021 A
ENDROOT
BRANCH   4   7
HETATM    7  C17 UNL     1      85.375  60.658  12.700  1.00  0.00    -0.026 A
HETATM    8  C18 UNL     1      86.220  60.433  13.772  1.00  0.00     0.013 A
HETATM    9  C19 UNL     1      87.427  59.775  13.615  1.00  0.00     0.008 A
HETATM   10  C20 UNL     1      87.844  59.312  12.385  1.00  0.00    -0.058 A
HETATM   11  C30 UNL     1      86.992  59.541  11.313  1.00  0.00     0.008 A
HETATM   12  C31 UNL     1      85.788  60.198  11.467  1.00  0.00     0.013 A
BRANCH  10  13
HETATM   13  C21 UNL     1      89.127  58.605  12.176  1.00  0.00     0.040 C
BRANCH  13  14
HETATM   14  C22 UNL     1      89.746  58.845  10.839  1.00  0.00     0.025 C
BRANCH  14  15
HETATM   15  C23 UNL     1      91.241  58.757  10.826  1.00  0.00     0.128 C
BRANCH  15  16
HETATM   16  N3  UNL     1      91.832  59.893  11.489  1.00  0.00    -0.366 N
HETATM   17  C24 UNL     1      92.691  59.651  12.487  1.00  0.00     0.091 A
HETATM   18  C25 UNL     1      93.284  60.711  13.154  1.00  0.00     0.030 A
HETATM   19  C26 UNL     1      93.026  62.014  12.836  1.00  0.00    -0.016 A
HETATM   20  C28 UNL     1      92.123  62.221  11.790  1.00  0.00     0.030 A
HETATM   21  C29 UNL     1      91.538  61.175  11.131  1.00  0.00     0.091 A
BRANCH  19  22
HETATM   22  C27 UNL     1      93.613  63.176  13.494  1.00  0.00     0.125 C
BRANCH  22  23
HETATM   23  N4  UNL     1      93.269  63.725  14.565  1.00  0.00    -0.280 N
ATOM     24  H4  UNL     1      93.647  64.664  14.693  1.00  0.00     0.193 HD
BRANCH  23  25
HETATM   25  O2  UNL     1      92.498  63.303  15.571  1.00  0.00    -0.290 OA
ATOM     26  H2  UNL     1      92.210  62.434  15.824  1.00  0.00     0.244 HD
ENDBRANCH  23  25
ENDBRANCH  22  23
ENDBRANCH  19  22
ENDBRANCH  15  16
ENDBRANCH  14  15
ENDBRANCH  13  14
ENDBRANCH  10  13
ENDBRANCH   4   7
BRANCH   1  27
HETATM   27  C12 UNL     1      80.418  63.394  13.445  1.00  0.00    -0.065 C
HETATM   28  C11 UNL     1      79.361  63.980  13.586  1.00  0.00    -0.079 C
BRANCH  28  29
HETATM   29  C10 UNL     1      78.092  64.692  13.730  1.00  0.00     0.242 C
BRANCH  29  30
HETATM   30  N2  UNL     1      77.209  64.006  14.659  1.00  0.00    -0.292 N
HETATM   31  C9  UNL     1      75.941  63.702  14.356  1.00  0.00     0.113 A
HETATM   32  C8  UNL     1      75.406  63.063  15.457  1.00  0.00     0.050 A
HETATM   33  C7  UNL     1      76.402  63.005  16.406  1.00  0.00     0.050 A
HETATM   34  C6  UNL     1      76.337  62.431  17.731  1.00  0.00     0.047 C
HETATM   35  N5  UNL     1      77.483  63.593  15.875  1.00  0.00    -0.298 N
ATOM     36  H5  UNL     1      78.382  63.703  16.344  1.00  0.00     0.187 HD
BRANCH  34  37
HETATM   37  C5  UNL     1      75.883  63.148  18.752  1.00  0.00     0.026 A
HETATM   38  C2  UNL     1      74.560  63.364  19.097  1.00  0.00     0.035 A
HETATM   39  C1  UNL     1      73.512  62.873  18.442  1.00  0.00     0.044 C
HETATM   40  N1  UNL     1      74.523  64.145  20.193  1.00  0.00    -0.363 N
HETATM   41  C3  UNL     1      75.778  64.443  20.569  1.00  0.00     0.125 A
ATOM     42  H1  UNL     1      73.675  64.462  20.664  1.00  0.00     0.165 HD
HETATM   43  C4  UNL     1      76.646  63.831  19.684  1.00  0.00     0.093 A
BRANCH  43  44
HETATM   44  O1  UNL     1      78.031  63.919  19.762  1.00  0.00    -0.358 OA
ATOM     45  H1  UNL     1      78.499  64.661  20.127  1.00  0.00     0.217 HD
ENDBRANCH  43  44
ENDBRANCH  34  37
ENDBRANCH  29  30
ENDBRANCH  28  29
ENDBRANCH   1  27
TORSDOF 13
ENDMDL