MODEL 1
REMARK VINA RESULT: -6.868987449      0.000      0.000
REMARK  11 active torsions:
REMARK  status: ('A' for Active; 'I' for Inactive)
REMARK    1  A    between atoms: C3_5  and  C4_6
REMARK    2  A    between atoms: C4_6  and  C5_7
REMARK    3  A    between atoms: C6_8  and  O1_9
REMARK    4  A    between atoms: C10_16  and  C11_17
REMARK    5  A    between atoms: C11_17  and  C12_18
REMARK    6  A    between atoms: C12_18  and  N3_19
REMARK    7  A    between atoms: C15_22  and  O2_23
REMARK    8  A    between atoms: O2_23  and  C16_24
REMARK    9  A    between atoms: C19_28  and  C20_29
REMARK   10  A    between atoms: C27_38  and  C28_39
REMARK   11  A    between atoms: C28_39  and  C29_40
ROOT
HETATM    1  C5  UNL     1      78.602  61.796  13.372  1.00  0.00     0.031 A
HETATM    2  C6  UNL     1      77.465  61.198  13.829  1.00  0.00     0.153 A
HETATM    3  N2  UNL     1      77.422  59.923  13.506  1.00  0.00    -0.322 N
ATOM      4  H2  UNL     1      76.661  59.287  13.746  1.00  0.00     0.169 HD
HETATM    5  C7  UNL     1      78.536  59.574  12.804  1.00  0.00     0.120 A
HETATM    6  C8  UNL     1      79.285  60.747  12.714  1.00  0.00     0.023 A
HETATM    7  C9  UNL     1      80.474  60.751  12.052  1.00  0.00     0.024 A
HETATM    8  C10 UNL     1      80.912  59.527  11.474  1.00  0.00    -0.040 A
HETATM    9  C23 UNL     1      80.180  58.423  11.580  1.00  0.00     0.099 A
HETATM   10  N4  UNL     1      78.984  58.433  12.247  1.00  0.00    -0.346 N
HETATM   11  C24 UNL     1      78.235  57.221  12.328  1.00  0.00     0.157 C
ENDROOT
BRANCH   8  12
HETATM   12  C11 UNL     1      82.220  59.689  10.768  1.00  0.00     0.068 C
BRANCH  12  13
HETATM   13  C12 UNL     1      83.351  59.040  11.470  1.00  0.00     0.242 C
BRANCH  13  14
HETATM   14  N3  UNL     1      84.195  59.864  12.252  1.00  0.00    -0.063 N
HETATM   15  C13 UNL     1      84.988  60.778  11.426  1.00  0.00     0.240 C
HETATM   16  C14 UNL     1      86.089  61.245  12.369  1.00  0.00     0.069 C
HETATM   17  C15 UNL     1      86.075  60.158  13.428  1.00  0.00     0.108 C
HETATM   18  C18 UNL     1      85.344  59.036  12.721  1.00  0.00     0.276 C
HETATM   19  C19 UNL     1      85.004  60.555  14.398  1.00  0.00     0.118 C
HETATM   20  C22 UNL     1      83.767  60.440  13.483  1.00  0.00     0.252 C
BRANCH  17  21
HETATM   21  O2  UNL     1      87.304  59.797  13.898  1.00  0.00    -0.308 OA
BRANCH  21  22
HETATM   22  C16 UNL     1      88.453  59.810  13.169  1.00  0.00     0.255 C
HETATM   23  C17 UNL     1      88.959  58.791  12.230  1.00  0.00     0.126 C
HETATM   24  O3  UNL     1      89.227  60.829  13.301  1.00  0.00    -0.266 OA
ENDBRANCH  21  22
ENDBRANCH  17  21
BRANCH  19  25
HETATM   25  C20 UNL     1      85.142  61.965  14.855  1.00  0.00     0.131 C
HETATM   26  C21 UNL     1      85.890  62.160  16.169  1.00  0.00     0.091 C
HETATM   27  O4  UNL     1      84.748  62.938  14.323  1.00  0.00    -0.298 OA
ENDBRANCH  19  25
ENDBRANCH  13  14
ENDBRANCH  12  13
ENDBRANCH   8  12
BRANCH   1  28
HETATM   28  C4  UNL     1      79.134  63.125  13.499  1.00  0.00     0.046 C
BRANCH  28  29
HETATM   29  C3  UNL     1      78.921  64.288  13.442  1.00  0.00     0.040 A
HETATM   30  N1  UNL     1      78.210  65.340  13.550  1.00  0.00    -0.356 N
HETATM   31  C2  UNL     1      78.565  66.570  13.102  1.00  0.00     0.030 A
ATOM     32  H1  UNL     1      77.305  65.250  14.009  1.00  0.00     0.166 HD
HETATM   33  C1  UNL     1      77.774  67.517  13.273  1.00  0.00     0.043 C
HETATM   34  C27 UNL     1      79.795  66.308  12.560  1.00  0.00    -0.024 A
HETATM   35  C25 UNL     1      80.090  65.017  12.712  1.00  0.00    -0.027 A
HETATM   36  C26 UNL     1      81.319  64.370  12.244  1.00  0.00     0.051 C
BRANCH  34  37
HETATM   37  C28 UNL     1      80.586  67.353  11.809  1.00  0.00     0.041 C
BRANCH  37  38
HETATM   38  C29 UNL     1      80.037  67.416  10.388  1.00  0.00     0.000 C
HETATM   39  C30 UNL     1      80.431  68.667   9.677  1.00  0.00     0.005 C
ENDBRANCH  37  38
ENDBRANCH  34  37
ENDBRANCH  28  29
ENDBRANCH   1  28
BRANCH   2  40
HETATM   40  O1  UNL     1      76.510  61.964  14.556  1.00  0.00    -0.345 OA
ATOM     41  H1  UNL     1      75.582  61.802  14.429  1.00  0.00     0.219 HD
ENDBRANCH   2  40
TORSDOF 11
ENDMDL