MODEL 4
REMARK VINA RESULT: -5.034243566      0.986      1.218
REMARK  6 active torsions:
REMARK  status: ('A' for Active; 'I' for Inactive)
REMARK    1  A    between atoms: N1_2  and  C2_4
REMARK    2  A    between atoms: C2_4  and  C3_5
REMARK    3  A    between atoms: C3_5  and  N2_6
REMARK    4  A    between atoms: N2_6  and  C4_9
REMARK    5  A    between atoms: C4_9  and  C5_10
REMARK    6  A    between atoms: C5_10  and  N3_11
ROOT
HETATM    1  C4  UNL     1      22.647 -16.522   6.071  1.00  0.00     0.277 C
ENDROOT
BRANCH   1   2
HETATM    2  N2  UNL     1      23.388 -15.289   5.993  1.00  0.00    -0.069 N
ATOM      3  H22 UNL     1      22.933 -14.629   5.362  1.00  0.00     0.277 HD
ATOM      4  H21 UNL     1      24.265 -15.422   5.490  1.00  0.00     0.277 HD
BRANCH   2   5
HETATM    5  C3  UNL     1      23.620 -14.692   7.283  1.00  0.00     0.252 C
BRANCH   5   6
HETATM    6  C2  UNL     1      25.122 -14.376   7.314  1.00  0.00     0.145 C
BRANCH   6   7
HETATM    7  N1  UNL     1      25.234 -13.025   6.859  1.00  0.00    -0.406 N
HETATM    8  C1  UNL     1      26.270 -12.332   7.139  1.00  0.00     0.112 C
ATOM      9  H1  UNL     1      24.482 -12.612   6.308  1.00  0.00     0.158 HD
ENDBRANCH   6   7
ENDBRANCH   5   6
ENDBRANCH   2   5
ENDBRANCH   1   2
BRANCH   1  10
HETATM   10  C5  UNL     1      22.866 -17.274   7.364  1.00  0.00     0.090 C
BRANCH  10  11
HETATM   11  N3  UNL     1      21.778 -18.116   7.623  1.00  0.00    -0.369 N
HETATM   12  C6  UNL     1      20.709 -17.654   8.424  1.00  0.00     0.146 C
HETATM   13  C7  UNL     1      19.378 -18.184   7.888  1.00  0.00     0.134 C
HETATM   14  N4  UNL     1      19.456 -19.611   7.810  1.00  0.00    -0.415 N
HETATM   15  C8  UNL     1      20.723 -20.181   8.138  1.00  0.00     0.158 C
ATOM     16  H4  UNL     1      18.658 -20.184   7.536  1.00  0.00     0.153 HD
HETATM   17  C9  UNL     1      21.877 -19.503   7.426  1.00  0.00     0.082 C
ENDBRANCH  10  11
ENDBRANCH   1  10
TORSDOF 6
ENDMDL