MODEL 3
REMARK VINA RESULT: -5.840245967      1.014      1.259
REMARK  7 active torsions:
REMARK  status: ('A' for Active; 'I' for Inactive)
REMARK    1  A    between atoms: C2_2  and  C3_3
REMARK    2  A    between atoms: C4_4  and  O1_5
REMARK    3  A    between atoms: C5_7  and  C6_8
REMARK    4  A    between atoms: C6_8  and  O2_9
REMARK    5  A    between atoms: O2_9  and  C7_10
REMARK    6  A    between atoms: C7_10  and  C8_11
REMARK    7  A    between atoms: C8_11  and  N1_12
ROOT
HETATM    1  C6  UNL     1      23.998 -16.404   7.976  1.00  0.00     0.175 C
ENDROOT
BRANCH   1   2
HETATM    2  C5  UNL     1      23.076 -16.271   6.771  1.00  0.00     0.049 A
HETATM    3  C3  UNL     1      21.619 -16.602   6.990  1.00  0.00     0.045 A
HETATM    4  C4  UNL     1      22.452 -17.568   6.243  1.00  0.00     0.133 A
BRANCH   3   5
HETATM    5  C2  UNL     1      20.593 -15.845   6.218  1.00  0.00    -0.029 C
HETATM    6  C1  UNL     1      19.677 -15.115   6.831  1.00  0.00     0.007 C
ENDBRANCH   3   5
BRANCH   4   7
HETATM    7  O1  UNL     1      22.294 -17.679   4.856  1.00  0.00    -0.394 OA
ATOM      8  H1  UNL     1      22.034 -18.514   4.483  1.00  0.00     0.210 HD
ENDBRANCH   4   7
ENDBRANCH   1   2
BRANCH   1   9
HETATM    9  O2  UNL     1      25.074 -15.526   7.850  1.00  0.00    -0.389 OA
BRANCH   9  10
HETATM   10  C7  UNL     1      24.628 -14.436   7.131  1.00  0.00     0.188 C
BRANCH  10  11
HETATM   11  C8  UNL     1      25.603 -13.283   7.126  1.00  0.00     0.165 C
BRANCH  11  12
HETATM   12  N1  UNL     1      26.876 -13.784   7.565  1.00  0.00    -0.341 N
HETATM   13  N2  UNL     1      27.556 -13.278   8.458  1.00  0.00    -0.349 N
ATOM     14  H22 UNL     1      27.175 -12.446   8.908  1.00  0.00     0.176 HD
ATOM     15  H21 UNL     1      28.460 -13.633   8.769  1.00  0.00     0.176 HD
ATOM     16  H1  UNL     1      27.242 -14.617   7.104  1.00  0.00     0.179 HD
ENDBRANCH  11  12
ENDBRANCH  10  11
ENDBRANCH   9  10
ENDBRANCH   1   9
TORSDOF 7
ENDMDL