MODEL 1
REMARK VINA RESULT: -4.992905948      0.000      0.000
REMARK  6 active torsions:
REMARK  status: ('A' for Active; 'I' for Inactive)
REMARK    1  A    between atoms: C2_2  and  C3_3
REMARK    2  A    between atoms: C3_3  and  N1_4
REMARK    3  A    between atoms: N1_4  and  N2_5
REMARK    4  A    between atoms: N1_4  and  C4_8
REMARK    5  A    between atoms: C4_8  and  C5_9
REMARK    6  A    between atoms: C5_9  and  N3_10
ROOT
HETATM    1  C4  UNL     1      24.173 -16.038   7.880  1.00  0.00     0.108 C
ENDROOT
BRANCH   1   2
HETATM    2  N1  UNL     1      24.048 -15.055   6.898  1.00  0.00    -0.287 N
BRANCH   2   3
HETATM    3  C3  UNL     1      24.602 -13.780   7.089  1.00  0.00     0.114 C
BRANCH   3   4
HETATM    4  C2  UNL     1      26.056 -13.675   7.042  1.00  0.00     0.009 C
HETATM    5  C1  UNL     1      26.838 -12.921   7.767  1.00  0.00     0.013 C
ENDBRANCH   3   4
ENDBRANCH   2   3
BRANCH   2   6
HETATM    6  N2  UNL     1      23.294 -15.280   5.791  1.00  0.00    -0.340 N
ATOM      7  H22 UNL     1      23.729 -15.320   4.869  1.00  0.00     0.177 HD
ATOM      8  H21 UNL     1      22.303 -15.490   5.908  1.00  0.00     0.177 HD
ENDBRANCH   2   6
ENDBRANCH   1   2
BRANCH   1   9
HETATM    9  C5  UNL     1      23.034 -16.119   8.867  1.00  0.00     0.174 C
BRANCH   9  10
HETATM   10  N3  UNL     1      22.139 -17.158   8.403  1.00  0.00    -0.359 N
HETATM   11  C6  UNL     1      22.638 -18.309   7.965  1.00  0.00     0.107 A
HETATM   12  C7  UNL     1      21.848 -19.354   7.502  1.00  0.00     0.104 A
HETATM   13  N4  UNL     1      20.523 -19.147   7.514  1.00  0.00    -0.373 N
HETATM   14  C8  UNL     1      19.953 -17.997   7.948  1.00  0.00     0.104 A
ATOM     15  H4  UNL     1      19.913 -19.893   7.181  1.00  0.00     0.164 HD
HETATM   16  C9  UNL     1      20.805 -17.004   8.394  1.00  0.00     0.107 A
ENDBRANCH   9  10
ENDBRANCH   1   9
TORSDOF 6
ENDMDL