MODEL 1
REMARK VINA RESULT: -6.758793297      0.000      0.000
REMARK  6 active torsions:
REMARK  status: ('A' for Active; 'I' for Inactive)
REMARK    1  A    between atoms: N1_1  and  N2_4
REMARK    2  A    between atoms: N3_6  and  N4_8
REMARK    3  A    between atoms: N5_10  and  O1_12
REMARK    4  A    between atoms: O1_12  and  C1_13
REMARK    5  A    between atoms: C1_13  and  C2_14
REMARK    6  A    between atoms: C2_14  and  N6_15
ROOT
HETATM    1  N4  UNL     1      25.273 -13.926   6.680  1.00  0.00    -0.207 N
ATOM      2  H4  UNL     1      25.836 -14.719   6.372  1.00  0.00     0.212 HD
HETATM    3  N5  UNL     1      24.040 -14.050   7.012  1.00  0.00    -0.192 N
ATOM      4  H5  UNL     1      23.530 -13.219   7.310  1.00  0.00     0.217 HD
ENDROOT
BRANCH   3   5
HETATM    5  O1  UNL     1      23.381 -15.244   6.983  1.00  0.00    -0.262 OA
BRANCH   5   6
HETATM    6  C1  UNL     1      22.863 -15.698   5.750  1.00  0.00     0.223 C
BRANCH   6   7
HETATM    7  C2  UNL     1      21.519 -16.358   5.931  1.00  0.00     0.156 C
BRANCH   7   8
HETATM    8  N6  UNL     1      21.613 -17.609   6.647  1.00  0.00    -0.364 N
HETATM    9  C3  UNL     1      20.867 -17.930   7.699  1.00  0.00     0.090 A
HETATM   10  C4  UNL     1      21.015 -19.149   8.332  1.00  0.00     0.017 A
HETATM   11  C5  UNL     1      21.946 -20.060   7.881  1.00  0.00     0.003 A
HETATM   12  C6  UNL     1      22.715 -19.734   6.799  1.00  0.00     0.017 A
HETATM   13  C7  UNL     1      22.518 -18.504   6.213  1.00  0.00     0.090 A
ENDBRANCH   7   8
ENDBRANCH   6   7
ENDBRANCH   5   6
ENDBRANCH   3   5
BRANCH   1  14
HETATM   14  N3  UNL     1      25.796 -12.631   6.767  1.00  0.00    -0.213 N
HETATM   15  N2  UNL     1      26.785 -12.303   7.452  1.00  0.00    -0.234 N
ATOM     16  H2  UNL     1      27.077 -11.326   7.437  1.00  0.00     0.209 HD
ATOM     17  H3  UNL     1      25.333 -11.899   6.228  1.00  0.00     0.211 HD
BRANCH  15  18
HETATM   18  N1  UNL     1      27.508 -13.183   8.230  1.00  0.00    -0.330 N
ATOM     19  H12 UNL     1      27.047 -13.553   9.060  1.00  0.00     0.178 HD
ATOM     20  H11 UNL     1      28.462 -13.477   8.019  1.00  0.00     0.178 HD
ENDBRANCH  15  18
ENDBRANCH   1  14
TORSDOF 6
ENDMDL