MODEL 1
REMARK VINA RESULT: -5.734059008      0.000      0.000
REMARK  5 active torsions:
REMARK  status: ('A' for Active; 'I' for Inactive)
REMARK    1  A    between atoms: N1_2  and  C2_5
REMARK    2  A    between atoms: C2_5  and  C3_6
REMARK    3  A    between atoms: C3_6  and  N2_7
REMARK    4  A    between atoms: C6_10  and  N3_11
REMARK    5  A    between atoms: N3_11  and  C7_13
ROOT
HETATM    1  N2  UNL     1      23.026 -16.072   7.800  1.00  0.00     0.092 N
HETATM    2  C4  UNL     1      23.015 -17.500   7.682  1.00  0.00     0.274 C
HETATM    3  C5  UNL     1      21.640 -17.765   7.106  1.00  0.00     0.057 C
HETATM    4  C6  UNL     1      20.788 -16.803   7.894  1.00  0.00     0.113 C
HETATM    5  C8  UNL     1      21.708 -15.587   7.978  1.00  0.00     0.297 C
ENDROOT
BRANCH   1   6
HETATM    6  C3  UNL     1      23.856 -15.383   6.882  1.00  0.00     0.300 C
BRANCH   6   7
HETATM    7  C2  UNL     1      24.964 -14.585   7.480  1.00  0.00     0.262 C
BRANCH   7   8
HETATM    8  N1  UNL     1      24.910 -13.239   6.885  1.00  0.00    -0.077 N
HETATM    9  C1  UNL     1      26.206 -12.645   7.138  1.00  0.00     0.267 C
ATOM     10  H12 UNL     1      24.129 -12.675   7.220  1.00  0.00     0.276 HD
ATOM     11  H11 UNL     1      24.646 -13.238   5.900  1.00  0.00     0.276 HD
ENDBRANCH   7   8
ENDBRANCH   6   7
ENDBRANCH   1   6
BRANCH   4  12
HETATM   12  N3  UNL     1      19.576 -16.481   7.161  1.00  0.00    -0.362 N
ATOM     13  H3  UNL     1      18.837 -17.179   7.082  1.00  0.00     0.162 HD
BRANCH  12  14
HETATM   14  C7  UNL     1      19.403 -15.213   6.554  1.00  0.00     0.348 C
HETATM   15  O1  UNL     1      18.245 -14.751   6.425  1.00  0.00    -0.284 OA
ENDBRANCH  12  14
ENDBRANCH   4  12
TORSDOF 5
ENDMDL