MODEL 4
REMARK VINA RESULT: -6.134141115      1.479      2.555
REMARK  5 active torsions:
REMARK  status: ('A' for Active; 'I' for Inactive)
REMARK    1  A    between atoms: C2_2  and  C3_3
REMARK    2  A    between atoms: C3_3  and  N1_4
REMARK    3  A    between atoms: N1_4  and  C5_6
REMARK    4  A    between atoms: C5_6  and  C6_7
REMARK    5  A    between atoms: C6_7  and  N2_8
ROOT
HETATM    1  N2  UNL     1      24.180 -14.330   6.724  1.00  0.00    -0.223 N
ATOM      2  H2  UNL     1      23.579 -13.771   6.117  1.00  0.00     0.177 HD
HETATM    3  C7  UNL     1      25.210 -13.724   7.100  1.00  0.00     0.693 A
HETATM    4  N3  UNL     1      26.259 -14.060   7.888  1.00  0.00    -0.185 N
ATOM      5  H3  UNL     1      26.371 -14.965   8.345  1.00  0.00     0.185 HD
HETATM    6  C8  UNL     1      27.131 -13.044   7.990  1.00  0.00     0.215 A
HETATM    7  N4  UNL     1      26.628 -12.045   7.254  1.00  0.00    -0.281 N
ATOM      8  H4  UNL     1      27.058 -11.130   7.128  1.00  0.00     0.188 HD
HETATM    9  N5  UNL     1      25.486 -12.436   6.719  1.00  0.00    -0.131 N
ATOM     10  H5  UNL     1      24.897 -11.864   6.113  1.00  0.00     0.205 HD
ENDROOT
BRANCH   1  11
HETATM   11  C6  UNL     1      23.680 -15.631   6.967  1.00  0.00     0.157 C
BRANCH  11  12
HETATM   12  C5  UNL     1      22.367 -15.879   6.320  1.00  0.00     0.136 C
BRANCH  12  13
HETATM   13  N1  UNL     1      21.265 -16.037   7.207  1.00  0.00    -0.412 N
HETATM   14  C4  UNL     1      20.020 -15.525   6.740  1.00  0.00     0.143 C
BRANCH  13  15
HETATM   15  C3  UNL     1      21.186 -17.271   7.908  1.00  0.00     0.143 C
BRANCH  15  16
HETATM   16  C2  UNL     1      21.186 -17.170   9.375  1.00  0.00    -0.018 C
HETATM   17  C1  UNL     1      21.663 -16.151  10.054  1.00  0.00     0.008 C
ENDBRANCH  15  16
ENDBRANCH  13  15
ENDBRANCH  12  13
ENDBRANCH  11  12
ENDBRANCH   1  11
TORSDOF 5
ENDMDL