MODEL 2
REMARK VINA RESULT: -10.096758101      3.983      8.996
REMARK  7 active torsions:
REMARK  status: ('A' for Active; 'I' for Inactive)
REMARK       I    between atoms: C2_2  and  N1_4
REMARK    1  A    between atoms: N1_4  and  C3_6
REMARK    2  A    between atoms: C3_6  and  C4_7
REMARK    3  A    between atoms: C4_7  and  O2_8
REMARK    4  A    between atoms: C15_20  and  C16_21
REMARK    5  A    between atoms: C16_21  and  C18_23
REMARK    6  A    between atoms: C18_23  and  C19_24
REMARK    7  A    between atoms: C19_24  and  C20_25
ROOT
HETATM    1  C3  UNL     1       1.964   1.715   1.329  1.00  0.00     0.058 C
HETATM    2  C5  UNL     1       2.070   0.217   1.520  1.00  0.00     0.034 C
HETATM    3  C6  UNL     1       1.048  -0.289   0.523  1.00  0.00     0.008 C
HETATM    4  C7  UNL     1       1.354   0.550  -0.714  1.00  0.00    -0.003 C
HETATM    5  C8  UNL     1       1.785   1.860  -0.136  1.00  0.00     0.020 C
HETATM    6  C9  UNL     1       0.812   2.982  -0.531  1.00  0.00     0.008 C
HETATM    7  C10 UNL     1       0.872   2.937  -2.069  1.00  0.00     0.011 C
HETATM    8  C11 UNL     1       0.003   1.806  -2.488  1.00  0.00    -0.024 C
HETATM    9  C12 UNL     1      -1.470   2.158  -2.366  1.00  0.00     0.006 C
HETATM   10  C13 UNL     1      -1.725   3.485  -2.982  1.00  0.00     0.007 C
HETATM   11  C14 UNL     1      -1.217   3.706  -4.341  1.00  0.00     0.006 C
HETATM   12  C15 UNL     1      -0.141   2.756  -4.818  1.00  0.00    -0.002 C
HETATM   13  C21 UNL     1       0.074   1.552  -4.002  1.00  0.00    -0.031 C
HETATM   14  C22 UNL     1       1.419   0.936  -4.219  1.00  0.00     0.016 C
HETATM   15  C23 UNL     1      -1.083   0.609  -4.173  1.00  0.00     0.023 C
HETATM   16  C24 UNL     1      -2.097   0.992  -3.088  1.00  0.00     0.061 C
HETATM   17  C25 UNL     1      -2.065  -0.148  -2.095  1.00  0.00     0.132 C
HETATM   18  O4  UNL     1      -2.829  -1.073  -2.124  1.00  0.00    -0.298 OA
HETATM   19  C26 UNL     1      -0.986  -0.027  -1.057  1.00  0.00     0.084 C
HETATM   20  C27 UNL     1       0.266   0.565  -1.711  1.00  0.00     0.007 C
ENDROOT
BRANCH   1  21
HETATM   21  N1  UNL     1       3.139   2.363   1.854  1.00  0.00    -0.350 N
HETATM   22  C2  UNL     1       4.458   1.951   1.575  1.00  0.00     0.214 C
HETATM   23  C1  UNL     1       5.619   2.701   2.173  1.00  0.00     0.117 C
HETATM   24  O1  UNL     1       4.777   0.987   0.848  1.00  0.00    -0.274 OA
ATOM     25  H1  UNL     1       3.007   3.169   2.465  1.00  0.00     0.163 HD
ENDBRANCH   1  21
BRANCH   1  26
HETATM   26  C4  UNL     1       0.764   2.191   2.123  1.00  0.00     0.195 C
BRANCH  26  27
HETATM   27  O2  UNL     1       0.883   2.013   3.477  1.00  0.00    -0.398 OA
ATOM     28  H2  UNL     1       1.019   2.818   3.962  1.00  0.00     0.209 HD
ENDBRANCH  26  27
ENDBRANCH   1  26
BRANCH  12  29
HETATM   29  C16 UNL     1      -0.415   2.576  -6.267  1.00  0.00    -0.013 C
HETATM   30  C17 UNL     1       0.300   3.370  -7.272  1.00  0.00     0.010 C
BRANCH  29  31
HETATM   31  C18 UNL     1      -1.913   2.858  -6.484  1.00  0.00     0.013 C
BRANCH  31  32
HETATM   32  C19 UNL     1      -2.490   2.042  -7.601  1.00  0.00     0.100 C
BRANCH  32  33
HETATM   33  C20 UNL     1      -3.712   1.309  -7.188  1.00  0.00     0.231 C
HETATM   34  N2  UNL     1      -4.535   0.589  -8.091  1.00  0.00    -0.062 NA
HETATM   35  O3  UNL     1      -4.058   1.309  -5.982  1.00  0.00    -0.277 OA
ENDBRANCH  32  33
ENDBRANCH  31  32
ENDBRANCH  29  31
ENDBRANCH  12  29
TORSDOF 7
ENDMDL