MODEL 5
REMARK VINA RESULT: -9.198261778      6.385      9.300
REMARK  6 active torsions:
REMARK  status: ('A' for Active; 'I' for Inactive)
REMARK    1  A    between atoms: S1_2  and  N1_4
REMARK    2  A    between atoms: N1_4  and  C2_6
REMARK    3  A    between atoms: C4_8  and  C6_10
REMARK    4  A    between atoms: C7_11  and  C8_12
REMARK    5  A    between atoms: C18_22  and  C20_24
REMARK    6  A    between atoms: C21_27  and  O4_28
ROOT
HETATM    1  C6  UNL     1       1.914   0.045   0.413  1.00  0.00    -0.014 C
HETATM    2  C7  UNL     1       2.549   0.825  -0.465  1.00  0.00    -0.003 C
ENDROOT
BRANCH   1   3
HETATM    3  C4  UNL     1       2.383  -0.017   1.805  1.00  0.00     0.007 C
HETATM    4  C3  UNL     1       1.802  -1.178   2.571  1.00  0.00     0.043 C
HETATM    5  C2  UNL     1       0.974  -0.554   3.653  1.00  0.00     0.103 C
HETATM    6  C24 UNL     1       1.670   0.727   3.952  1.00  0.00     0.009 C
HETATM    7  C21 UNL     1       2.109   1.228   2.570  1.00  0.00     0.078 C
HETATM    8  C23 UNL     1       0.713   1.900   3.980  1.00  0.00     0.017 C
HETATM    9  C25 UNL     1       2.741   0.721   4.985  1.00  0.00     0.020 C
HETATM   10  C22 UNL     1       0.745   1.844   2.446  1.00  0.00     0.041 C
HETATM   11  C5  UNL     1       3.906  -0.186   1.742  1.00  0.00     0.023 C
BRANCH   5  12
HETATM   12  N1  UNL     1       0.853  -1.393   4.827  1.00  0.00    -0.336 N
ATOM     13  H1  UNL     1       0.411  -1.101   5.699  1.00  0.00     0.170 HD
BRANCH  12  14
HETATM   14  S1  UNL     1       1.551  -2.949   4.564  1.00  0.00     0.106 S
HETATM   15  C1  UNL     1       2.761  -3.263   5.811  1.00  0.00     0.152 C
HETATM   16  O1  UNL     1       0.354  -4.120   4.680  1.00  0.00    -0.236 OA
ENDBRANCH  12  14
ENDBRANCH   5  12
BRANCH   7  17
HETATM   17  O4  UNL     1       3.140   2.160   2.615  1.00  0.00    -0.388 OA
ATOM     18  H4  UNL     1       3.026   2.883   3.221  1.00  0.00     0.210 HD
ENDBRANCH   7  17
ENDBRANCH   1   3
BRANCH   2  19
HETATM   19  C8  UNL     1       2.099   0.900  -1.850  1.00  0.00     0.003 C
HETATM   20  C9  UNL     1       1.377   1.910  -2.253  1.00  0.00    -0.075 C
HETATM   21  C10 UNL     1       1.039   2.962  -1.265  1.00  0.00     0.034 C
HETATM   22  C15 UNL     1       0.942   1.947  -3.660  1.00  0.00     0.024 C
HETATM   23  C11 UNL     1       0.408   4.156  -1.914  1.00  0.00     0.005 C
HETATM   24  C12 UNL     1      -0.707   3.680  -2.829  1.00  0.00     0.011 C
HETATM   25  C13 UNL     1      -0.152   2.931  -3.978  1.00  0.00    -0.019 C
HETATM   26  C14 UNL     1       0.519   3.993  -4.888  1.00  0.00     0.017 C
HETATM   27  C18 UNL     1      -1.149   2.199  -4.808  1.00  0.00     0.052 C
HETATM   28  C17 UNL     1      -0.966   0.716  -4.493  1.00  0.00     0.022 C
HETATM   29  C19 UNL     1      -0.779   2.294  -6.310  1.00  0.00     0.027 C
HETATM   30  C16 UNL     1       0.428   0.562  -3.989  1.00  0.00     0.011 C
BRANCH  27  31
HETATM   31  C20 UNL     1      -2.546   2.595  -4.727  1.00  0.00     0.182 C
HETATM   32  O2  UNL     1      -3.124   3.341  -5.513  1.00  0.00    -0.647 OA
HETATM   33  O3  UNL     1      -3.300   2.086  -3.663  1.00  0.00    -0.647 OA
ENDBRANCH  27  31
ENDBRANCH   2  19
TORSDOF 6
ENDMDL