MODEL 3
REMARK VINA RESULT: -8.140490974      5.836      9.250
REMARK  7 active torsions:
REMARK  status: ('A' for Active; 'I' for Inactive)
REMARK    1  A    between atoms: C13_13  and  C14_14
REMARK    2  A    between atoms: C14_14  and  C15_15
REMARK    3  A    between atoms: C18_18  and  C19_19
REMARK       I    between atoms: C19_19  and  N1_21
REMARK    4  A    between atoms: N1_21  and  C20_23
REMARK    5  A    between atoms: C20_23  and  C21_24
REMARK    6  A    between atoms: C21_24  and  N2_25
REMARK    7  A    between atoms: C24_32  and  O3_33
ROOT
HETATM    1  C1  UNL     1       2.086   0.403  -1.510  1.00  0.00     0.016 C
HETATM    2  C2  UNL     1       1.054   1.535  -1.327  1.00  0.00    -0.036 C
HETATM    3  C3  UNL     1      -0.015   0.899  -0.433  1.00  0.00     0.010 C
HETATM    4  C4  UNL     1       0.610   0.712   0.959  1.00  0.00     0.001 C
HETATM    5  C5  UNL     1       0.574   2.111   1.591  1.00  0.00     0.000 C
HETATM    6  C6  UNL     1       0.780   3.184   0.547  1.00  0.00     0.005 C
HETATM    7  C7  UNL     1       1.712   2.596  -0.519  1.00  0.00    -0.006 C
HETATM    8  C8  UNL     1       2.444   3.648  -1.284  1.00  0.00     0.006 C
HETATM    9  C9  UNL     1       1.563   4.191  -2.354  1.00  0.00     0.006 C
HETATM   10  C10 UNL     1       1.280   3.041  -3.327  1.00  0.00    -0.005 C
HETATM   11  C11 UNL     1       0.532   1.933  -2.660  1.00  0.00    -0.001 C
HETATM   12  C12 UNL     1      -0.976   2.141  -2.651  1.00  0.00     0.011 C
HETATM   13  C13 UNL     1      -1.543   2.648  -3.927  1.00  0.00    -0.001 C
HETATM   14  C22 UNL     1      -0.561   2.790  -5.047  1.00  0.00    -0.010 C
HETATM   15  C23 UNL     1      -0.185   1.558  -5.771  1.00  0.00     0.018 C
HETATM   16  C24 UNL     1      -1.028   3.789  -6.119  1.00  0.00     0.127 C
HETATM   17  C25 UNL     1       0.301   4.183  -6.740  1.00  0.00     0.033 C
HETATM   18  C26 UNL     1       1.386   3.849  -5.727  1.00  0.00     0.008 C
HETATM   19  C27 UNL     1       0.591   3.604  -4.498  1.00  0.00     0.001 C
ENDROOT
BRANCH  13  20
HETATM   20  C14 UNL     1      -2.848   1.997  -4.325  1.00  0.00     0.037 C
BRANCH  20  21
HETATM   21  C15 UNL     1      -3.185   0.806  -3.469  1.00  0.00     0.123 C
HETATM   22  C16 UNL     1      -4.638   0.399  -3.683  1.00  0.00     0.035 C
HETATM   23  C17 UNL     1      -4.587  -1.069  -4.013  1.00  0.00     0.044 C
HETATM   24  C18 UNL     1      -3.212  -1.427  -3.460  1.00  0.00     0.213 C
HETATM   25  O2  UNL     1      -2.420  -0.306  -3.670  1.00  0.00    -0.371 OA
BRANCH  24  26
HETATM   26  C19 UNL     1      -3.338  -1.764  -2.021  1.00  0.00     0.246 C
HETATM   27  O1  UNL     1      -2.526  -1.273  -1.202  1.00  0.00    -0.271 OA
HETATM   28  N1  UNL     1      -4.346  -2.625  -1.549  1.00  0.00    -0.357 N
ATOM     29  H1  UNL     1      -5.009  -3.028  -2.210  1.00  0.00     0.162 HD
BRANCH  28  30
HETATM   30  C20 UNL     1      -4.459  -2.946  -0.150  1.00  0.00     0.150 C
BRANCH  30  31
HETATM   31  C21 UNL     1      -3.560  -4.118   0.206  1.00  0.00     0.249 C
BRANCH  31  32
HETATM   32  N2  UNL     1      -2.426  -3.695   1.012  1.00  0.00    -0.078 N
ATOM     33  H23 UNL     1      -1.609  -3.501   0.434  1.00  0.00     0.274 HD
ATOM     34  H22 UNL     1      -2.571  -2.762   1.398  1.00  0.00     0.274 HD
ATOM     35  H21 UNL     1      -2.214  -4.373   1.743  1.00  0.00     0.274 HD
ENDBRANCH  31  32
ENDBRANCH  30  31
ENDBRANCH  28  30
ENDBRANCH  24  26
ENDBRANCH  20  21
ENDBRANCH  13  20
BRANCH  16  36
HETATM   36  O3  UNL     1      -1.713   3.083  -7.102  1.00  0.00    -0.395 OA
ATOM     37  H3  UNL     1      -1.087   2.539  -7.568  1.00  0.00     0.210 HD
ENDBRANCH  16  36
TORSDOF 7
ENDMDL