MODEL 3
REMARK VINA RESULT: -10.244139699      1.050      1.489
REMARK  5 active torsions:
REMARK  status: ('A' for Active; 'I' for Inactive)
REMARK    1  A    between atoms: C2_3  and  C3_5
REMARK    2  A    between atoms: C3_5  and  C4_6
REMARK    3  A    between atoms: C13_16  and  O3_17
REMARK    4  A    between atoms: C21_26  and  O4_27
REMARK    5  A    between atoms: C25_32  and  C26_33
ROOT
HETATM    1  C1  UNL     1       5.098   2.848   6.322  1.00  0.00     0.232 C
HETATM    2  N1  UNL     1       4.561   1.633   6.527  1.00  0.00    -0.395 NA
HETATM    3  C2  UNL     1       4.000   0.364   6.740  1.00  0.00     0.293 C
HETATM    4  O1  UNL     1       3.782  -0.089   7.875  1.00  0.00    -0.257 OA
ENDROOT
BRANCH   3   5
HETATM    5  C3  UNL     1       3.663  -0.438   5.536  1.00  0.00     0.147 C
BRANCH   5   6
HETATM    6  C4  UNL     1       3.060   0.182   4.350  1.00  0.00    -0.001 C
HETATM    7  C5  UNL     1       2.880  -0.487   3.093  1.00  0.00     0.012 C
HETATM    8  C6  UNL     1       2.037  -1.675   3.024  1.00  0.00     0.159 C
HETATM    9  C22 UNL     1       2.593   0.376   1.880  1.00  0.00    -0.029 C
HETATM   10  O2  UNL     1       2.475  -2.834   3.142  1.00  0.00    -0.292 OA
HETATM   11  C7  UNL     1       0.563  -1.507   2.793  1.00  0.00     0.085 C
HETATM   12  C8  UNL     1       0.466  -0.688   1.524  1.00  0.00     0.022 C
HETATM   13  C9  UNL     1       1.141   0.685   1.665  1.00  0.00    -0.013 C
HETATM   14  C10 UNL     1       0.484   1.458   2.767  1.00  0.00     0.021 C
HETATM   15  C11 UNL     1       0.900   1.481   0.400  1.00  0.00     0.004 C
HETATM   16  C12 UNL     1       0.691   0.687  -0.847  1.00  0.00     0.038 C
HETATM   17  C19 UNL     1       1.909   2.574   0.287  1.00  0.00    -0.007 C
HETATM   18  C13 UNL     1      -0.356   1.320  -1.778  1.00  0.00     0.128 C
HETATM   19  C14 UNL     1       0.249   1.790  -3.060  1.00  0.00    -0.004 C
HETATM   20  C15 UNL     1       1.201   0.682  -3.533  1.00  0.00     0.019 C
HETATM   21  C16 UNL     1       0.938   3.112  -3.002  1.00  0.00    -0.003 C
HETATM   22  C25 UNL     1      -0.720   1.983  -4.187  1.00  0.00     0.066 C
HETATM   23  C17 UNL     1       2.100   3.267  -2.123  1.00  0.00     0.006 C
HETATM   24  C23 UNL     1       1.258   3.330  -4.482  1.00  0.00     0.006 C
HETATM   25  C18 UNL     1       1.656   3.627  -0.742  1.00  0.00     0.005 C
HETATM   26  C24 UNL     1      -0.117   3.096  -5.067  1.00  0.00     0.013 C
HETATM   27  C20 UNL     1       3.281   1.960   0.176  1.00  0.00     0.041 C
HETATM   28  C21 UNL     1       3.563   1.448   1.610  1.00  0.00     0.149 C
BRANCH  18  29
HETATM   29  O3  UNL     1      -1.419   0.416  -2.023  1.00  0.00    -0.395 OA
ATOM     30  H3  UNL     1      -1.882   0.650  -2.819  1.00  0.00     0.210 HD
ENDBRANCH  18  29
BRANCH  22  31
HETATM   31  C26 UNL     1      -2.078   2.386  -3.844  1.00  0.00     0.128 C
HETATM   32  C27 UNL     1      -3.337   1.852  -4.416  1.00  0.00     0.091 C
HETATM   33  O5  UNL     1      -2.213   3.273  -2.980  1.00  0.00    -0.298 OA
ENDBRANCH  22  31
BRANCH  28  34
HETATM   34  O4  UNL     1       3.467   2.599   2.375  1.00  0.00    -0.391 OA
ATOM     35  H4  UNL     1       2.539   2.649   2.569  1.00  0.00     0.210 HD
ENDBRANCH  28  34
ENDBRANCH   5   6
ENDBRANCH   3   5
TORSDOF 4
ENDMDL