MODEL 5
REMARK VINA RESULT: -9.553178758      1.403      1.873
REMARK  6 active torsions:
REMARK  status: ('A' for Active; 'I' for Inactive)
REMARK    1  A    between atoms: N1_2  and  C2_5
REMARK    2  A    between atoms: C2_5  and  C3_6
REMARK    3  A    between atoms: C3_6  and  C4_7
REMARK       I    between atoms: C4_7  and  N2_9
REMARK    4  A    between atoms: C11_16  and  C12_17
REMARK       I    between atoms: C12_17  and  N3_19
REMARK    5  A    between atoms: N3_19  and  C13_21
REMARK    6  A    between atoms: C24_32  and  O3_33
ROOT
HETATM    1  C4  UNL     1       2.537   0.507   4.620  1.00  0.00     0.222 C
HETATM    2  O1  UNL     1       1.476   0.743   5.249  1.00  0.00    -0.273 OA
HETATM    3  N2  UNL     1       2.648   0.648   3.215  1.00  0.00    -0.343 N
HETATM    4  C5  UNL     1       3.835   0.392   2.445  1.00  0.00     0.127 C
HETATM    5  C6  UNL     1       3.704   1.185   1.157  1.00  0.00     0.027 C
HETATM    6  C7  UNL     1       2.436   1.927   1.373  1.00  0.00     0.020 C
HETATM    7  C8  UNL     1       1.780   2.515   0.215  1.00  0.00     0.001 C
HETATM    8  C9  UNL     1       2.742   3.367  -0.575  1.00  0.00     0.007 C
HETATM    9  C10 UNL     1       2.001   3.596  -1.853  1.00  0.00     0.015 C
HETATM   10  C11 UNL     1       0.651   2.858  -1.723  1.00  0.00     0.086 C
HETATM   11  C21 UNL     1       1.106   1.701  -0.803  1.00  0.00    -0.026 C
HETATM   12  C22 UNL     1       2.001   0.858  -1.672  1.00  0.00     0.016 C
HETATM   13  C23 UNL     1      -0.117   0.972  -0.394  1.00  0.00     0.042 C
HETATM   14  C24 UNL     1      -0.084   0.055   0.740  1.00  0.00     0.121 C
HETATM   15  C25 UNL     1       1.117  -0.144   1.551  1.00  0.00     0.062 C
HETATM   16  C26 UNL     1       1.640   1.059   2.276  1.00  0.00     0.038 C
HETATM   17  C27 UNL     1       0.513   1.767   2.983  1.00  0.00     0.039 C
ENDROOT
BRANCH  10  18
HETATM   18  C12 UNL     1       0.152   2.447  -3.018  1.00  0.00     0.223 C
HETATM   19  O2  UNL     1       0.743   1.469  -3.601  1.00  0.00    -0.273 OA
HETATM   20  N3  UNL     1      -0.931   3.026  -3.706  1.00  0.00    -0.356 N
ATOM     21  H3  UNL     1      -1.426   3.810  -3.279  1.00  0.00     0.162 HD
BRANCH  20  22
HETATM   22  C13 UNL     1      -1.372   2.535  -5.020  1.00  0.00     0.088 C
HETATM   23  C14 UNL     1      -2.869   2.314  -5.026  1.00  0.00     0.025 C
HETATM   24  C15 UNL     1      -3.231   1.593  -6.283  1.00  0.00     0.002 C
HETATM   25  C16 UNL     1      -2.336   1.921  -7.445  1.00  0.00     0.005 C
HETATM   26  C17 UNL     1      -1.749   3.309  -7.369  1.00  0.00    -0.013 C
HETATM   27  C18 UNL     1      -2.797   4.378  -7.495  1.00  0.00     0.010 C
HETATM   28  C19 UNL     1      -0.916   3.434  -6.118  1.00  0.00     0.008 C
HETATM   29  C20 UNL     1       0.556   3.281  -6.392  1.00  0.00     0.012 C
ENDBRANCH  20  22
ENDBRANCH  10  18
BRANCH  14  30
HETATM   30  O3  UNL     1      -0.542  -1.233   0.357  1.00  0.00    -0.395 OA
ATOM     31  H3  UNL     1       0.099  -1.897   0.580  1.00  0.00     0.210 HD
ENDBRANCH  14  30
BRANCH   1  32
HETATM   32  C3  UNL     1       3.684   0.064   5.449  1.00  0.00     0.130 C
BRANCH  32  33
HETATM   33  C2  UNL     1       3.237  -1.054   6.337  1.00  0.00     0.241 C
BRANCH  33  34
HETATM   34  N1  UNL     1       2.410  -2.025   5.664  1.00  0.00    -0.079 N
HETATM   35  C1  UNL     1       2.910  -3.341   6.014  1.00  0.00     0.267 C
ATOM     36  H12 UNL     1       2.359  -1.875   4.656  1.00  0.00     0.276 HD
ATOM     37  H11 UNL     1       1.417  -1.911   5.867  1.00  0.00     0.276 HD
ENDBRANCH  33  34
ENDBRANCH  32  33
ENDBRANCH   1  32
TORSDOF 6
ENDMDL