MODEL 3
REMARK VINA RESULT: -10.542581626      2.352      9.836
REMARK  6 active torsions:
REMARK  status: ('A' for Active; 'I' for Inactive)
REMARK    1  A    between atoms: C2_2  and  C3_3
REMARK    2  A    between atoms: C2_2  and  N2_21
REMARK    3  A    between atoms: C3_3  and  N1_4
REMARK       I    between atoms: N1_4  and  C4_6
REMARK    4  A    between atoms: C4_6  and  C5_8
REMARK       I    between atoms: N2_21  and  C17_23
REMARK    5  A    between atoms: C17_23  and  C18_25
REMARK    6  A    between atoms: C18_25  and  O4_26
ROOT
HETATM    1  C3  UNL     1       0.457  -0.014   0.001  1.00  0.00     0.147 C
ENDROOT
BRANCH   1   2
HETATM    2  C2  UNL     1       0.944   1.062  -0.928  1.00  0.00     0.098 C
HETATM    3  C1  UNL     1       2.456   0.877  -1.056  1.00  0.00     0.034 C
BRANCH   2   4
HETATM    4  N2  UNL     1       0.303   0.905  -2.222  1.00  0.00    -0.353 N
HETATM    5  C17 UNL     1      -0.335   2.002  -2.867  1.00  0.00     0.252 C
HETATM    6  O3  UNL     1      -0.331   3.108  -2.286  1.00  0.00    -0.270 OA
ATOM      7  H2  UNL     1       0.311  -0.008  -2.677  1.00  0.00     0.163 HD
BRANCH   5   8
HETATM    8  C18 UNL     1      -0.993   1.849  -4.192  1.00  0.00     0.138 C
HETATM    9  C19 UNL     1      -2.343   2.476  -4.125  1.00  0.00     0.048 C
HETATM   10  C20 UNL     1      -3.420   1.725  -4.858  1.00  0.00     0.004 C
HETATM   11  C21 UNL     1      -3.230   1.539  -6.314  1.00  0.00     0.000 C
HETATM   12  C22 UNL     1      -3.545   2.704  -7.173  1.00  0.00     0.000 C
HETATM   13  C23 UNL     1      -2.532   3.771  -7.296  1.00  0.00     0.000 C
HETATM   14  C24 UNL     1      -1.110   3.325  -7.313  1.00  0.00     0.000 C
HETATM   15  C25 UNL     1      -0.387   3.548  -5.986  1.00  0.00     0.004 C
HETATM   16  C26 UNL     1      -0.081   2.287  -5.267  1.00  0.00     0.048 C
BRANCH   8  17
HETATM   17  O4  UNL     1      -1.218   0.475  -4.356  1.00  0.00    -0.380 OA
ATOM     18  H4  UNL     1      -2.160   0.358  -4.328  1.00  0.00     0.211 HD
ENDBRANCH   8  17
ENDBRANCH   5   8
ENDBRANCH   2   4
ENDBRANCH   1   2
BRANCH   1  19
HETATM   19  N1  UNL     1       0.872   0.118   1.357  1.00  0.00    -0.359 N
HETATM   20  C4  UNL     1       0.542  -0.827   2.359  1.00  0.00     0.222 C
HETATM   21  O1  UNL     1      -0.147  -1.823   2.017  1.00  0.00    -0.273 OA
ATOM     22  H1  UNL     1       1.431   0.930   1.618  1.00  0.00     0.162 HD
BRANCH  20  23
HETATM   23  C5  UNL     1       0.998  -0.650   3.782  1.00  0.00     0.082 C
HETATM   24  C6  UNL     1       1.162   0.841   3.972  1.00  0.00     0.015 C
HETATM   25  C7  UNL     1       2.642   1.054   4.307  1.00  0.00     0.006 C
HETATM   26  C8  UNL     1       3.052  -0.319   4.895  1.00  0.00    -0.010 C
HETATM   27  C9  UNL     1       2.494  -0.318   6.273  1.00  0.00     0.007 C
HETATM   28  C16 UNL     1       2.372  -1.187   3.901  1.00  0.00     0.003 C
HETATM   29  C10 UNL     1       3.438  -1.051   7.239  1.00  0.00     0.035 C
HETATM   30  C11 UNL     1       3.692  -2.352   6.587  1.00  0.00     0.157 A
HETATM   31  O2  UNL     1       3.593  -3.591   7.073  1.00  0.00    -0.370 OA
HETATM   32  C12 UNL     1       2.404  -3.090   6.586  1.00  0.00     0.084 A
HETATM   33  C13 UNL     1       1.408  -2.984   7.716  1.00  0.00     0.049 C
HETATM   34  C14 UNL     1       1.876  -3.285   5.253  1.00  0.00     0.041 C
HETATM   35  C15 UNL     1       2.499  -2.657   4.079  1.00  0.00     0.009 C
ENDBRANCH  20  23
ENDBRANCH   1  19
TORSDOF 6
ENDMDL