MODEL 5
REMARK VINA RESULT: -8.611995433      2.732      7.861
REMARK  7 active torsions:
REMARK  status: ('A' for Active; 'I' for Inactive)
REMARK    1  A    between atoms: C3_3  and  O1_4
REMARK    2  A    between atoms: C5_7  and  C6_8
REMARK    3  A    between atoms: C16_19  and  N1_20
REMARK    4  A    between atoms: C17_24  and  C18_25
REMARK    5  A    between atoms: C18_25  and  C20_27
REMARK    6  A    between atoms: C20_27  and  C22_29
REMARK    7  A    between atoms: C23_30  and  C24_31
ROOT
HETATM    1  C1  UNL     1      -2.472  -0.684  -2.586  1.00  0.00     0.017 C
HETATM    2  C2  UNL     1      -1.824   0.447  -2.378  1.00  0.00    -0.056 C
HETATM    3  C3  UNL     1      -2.357   1.766  -2.823  1.00  0.00     0.148 C
HETATM    4  C4  UNL     1      -1.349   2.592  -3.583  1.00  0.00     0.053 C
HETATM    5  C5  UNL     1       0.028   1.930  -3.439  1.00  0.00     0.021 C
HETATM    6  C7  UNL     1       1.156   2.835  -3.764  1.00  0.00     0.018 C
HETATM    7  C8  UNL     1       1.937   3.039  -2.456  1.00  0.00     0.011 C
HETATM    8  C9  UNL     1       1.648   1.749  -1.652  1.00  0.00    -0.031 C
HETATM    9  C10 UNL     1       2.457   0.685  -2.354  1.00  0.00     0.016 C
HETATM   10  C11 UNL     1       0.207   1.635  -1.976  1.00  0.00     0.018 C
HETATM   11  C12 UNL     1      -0.503   0.369  -1.663  1.00  0.00     0.022 C
HETATM   12  C13 UNL     1      -0.867   0.243  -0.197  1.00  0.00     0.010 C
HETATM   13  C14 UNL     1       0.442   0.189   0.570  1.00  0.00     0.008 C
HETATM   14  C15 UNL     1       0.938   1.589   0.737  1.00  0.00     0.025 C
HETATM   15  C16 UNL     1       1.341   1.759   2.199  1.00  0.00     0.192 C
HETATM   16  C17 UNL     1       2.500   0.860   2.444  1.00  0.00     0.021 C
HETATM   17  C25 UNL     1       3.634   1.305   1.598  1.00  0.00     0.008 C
HETATM   18  C26 UNL     1       3.287   1.196   0.110  1.00  0.00     0.011 C
HETATM   19  C27 UNL     1       2.020   1.966  -0.230  1.00  0.00    -0.031 C
HETATM   20  C28 UNL     1       2.330   3.434   0.004  1.00  0.00     0.016 C
ENDROOT
BRANCH  16  21
HETATM   21  C18 UNL     1       2.833   0.428   3.792  1.00  0.00    -0.005 C
HETATM   22  C19 UNL     1       3.985   1.269   4.385  1.00  0.00     0.011 C
BRANCH  21  23
HETATM   23  C20 UNL     1       3.069  -0.959   4.172  1.00  0.00     0.008 C
HETATM   24  C21 UNL     1       3.047  -2.000   3.063  1.00  0.00     0.014 C
BRANCH  23  25
HETATM   25  C22 UNL     1       2.300  -1.518   5.295  1.00  0.00    -0.017 C
HETATM   26  C23 UNL     1       2.547  -1.673   6.536  1.00  0.00     0.067 C
BRANCH  26  27
HETATM   27  C24 UNL     1       3.722  -1.326   7.272  1.00  0.00     0.254 C
HETATM   28  N2  UNL     1       4.011  -0.035   7.733  1.00  0.00    -0.058 NA
HETATM   29  O3  UNL     1       4.577  -2.265   7.530  1.00  0.00    -0.272 OA
ENDBRANCH  26  27
ENDBRANCH  23  25
ENDBRANCH  21  23
ENDBRANCH  16  21
BRANCH  15  30
HETATM   30  N1  UNL     1       0.149   1.425   2.970  1.00  0.00    -0.074 N
ATOM     31  H13 UNL     1      -0.615   2.091   2.854  1.00  0.00     0.274 HD
ATOM     32  H12 UNL     1      -0.351   0.607   2.619  1.00  0.00     0.274 HD
ATOM     33  H11 UNL     1       0.469   1.328   3.933  1.00  0.00     0.274 HD
ENDBRANCH  15  30
BRANCH   5  34
HETATM   34  C6  UNL     1       0.039   0.779  -4.329  1.00  0.00     0.241 C
HETATM   35  O2  UNL     1       0.893   0.622  -5.183  1.00  0.00    -0.306 OA
ENDBRANCH   5  34
BRANCH   3  36
HETATM   36  O1  UNL     1      -3.426   1.528  -3.684  1.00  0.00    -0.391 OA
ATOM     37  H1  UNL     1      -3.126   0.943  -4.369  1.00  0.00     0.210 HD
ENDBRANCH   3  36
TORSDOF 7
ENDMDL