MODEL 1
REMARK VINA RESULT: -9.238552741      0.000      0.000
REMARK  7 active torsions:
REMARK  status: ('A' for Active; 'I' for Inactive)
REMARK    1  A    between atoms: O1_2  and  C2_3
REMARK    2  A    between atoms: C2_3  and  C3_5
REMARK    3  A    between atoms: C3_5  and  C4_6
REMARK    4  A    between atoms: C4_6  and  N1_7
REMARK    5  A    between atoms: C4_6  and  C7_12
REMARK       I    between atoms: N1_7  and  C5_9
REMARK       I    between atoms: C7_12  and  N2_14
REMARK    6  A    between atoms: N2_14  and  C8_16
REMARK    7  A    between atoms: C17_25  and  O5_26
ROOT
HETATM    1  C8  UNL     1       1.275   2.276  -0.854  1.00  0.00     0.093 C
HETATM    2  C9  UNL     1       2.447   3.237  -0.704  1.00  0.00     0.026 C
HETATM    3  C10 UNL     1       3.218   2.791   0.549  1.00  0.00     0.008 C
HETATM    4  C11 UNL     1       2.243   1.874   1.147  1.00  0.00     0.000 C
HETATM    5  C12 UNL     1       2.541   1.167   2.402  1.00  0.00    -0.005 C
HETATM    6  C13 UNL     1       3.695   0.255   2.456  1.00  0.00     0.006 C
HETATM    7  C14 UNL     1       3.449  -1.195   2.593  1.00  0.00     0.006 C
HETATM    8  C15 UNL     1       2.171  -1.612   3.212  1.00  0.00    -0.004 C
HETATM    9  C16 UNL     1       2.357  -2.768   4.185  1.00  0.00     0.037 C
HETATM   10  C17 UNL     1       2.810  -2.362   5.532  1.00  0.00     0.118 C
HETATM   11  C18 UNL     1       3.097  -0.924   5.731  1.00  0.00     0.032 C
HETATM   12  C19 UNL     1       2.102   0.013   5.125  1.00  0.00     0.012 C
HETATM   13  C20 UNL     1       1.432  -0.518   3.903  1.00  0.00    -0.036 C
HETATM   14  C21 UNL     1       0.061  -1.023   4.298  1.00  0.00     0.016 C
HETATM   15  C22 UNL     1       1.217   0.597   2.872  1.00  0.00    -0.002 C
HETATM   16  C23 UNL     1       0.265   0.220   1.801  1.00  0.00     0.006 C
HETATM   17  C24 UNL     1       0.752   0.143   0.417  1.00  0.00     0.012 C
HETATM   18  C25 UNL     1       1.781   1.080  -0.027  1.00  0.00    -0.019 C
HETATM   19  C26 UNL     1       2.812   0.429  -0.872  1.00  0.00     0.018 C
ENDROOT
BRANCH   1  20
HETATM   20  N2  UNL     1       1.113   1.991  -2.242  1.00  0.00    -0.354 N
HETATM   21  C7  UNL     1       0.074   2.539  -3.046  1.00  0.00     0.241 C
HETATM   22  O4  UNL     1      -0.738   3.316  -2.483  1.00  0.00    -0.271 OA
ATOM     23  H2  UNL     1       1.780   1.359  -2.685  1.00  0.00     0.162 HD
BRANCH  21  24
HETATM   24  C4  UNL     1      -0.083   2.237  -4.481  1.00  0.00     0.185 C
BRANCH  24  25
HETATM   25  C3  UNL     1      -0.564   0.860  -4.761  1.00  0.00     0.146 C
BRANCH  25  26
HETATM   26  C2  UNL     1      -1.941   0.555  -4.357  1.00  0.00     0.260 C
HETATM   27  O2  UNL     1      -2.900   0.953  -5.054  1.00  0.00    -0.265 OA
BRANCH  26  28
HETATM   28  O1  UNL     1      -2.219  -0.162  -3.220  1.00  0.00    -0.326 OA
HETATM   29  C1  UNL     1      -3.434  -0.901  -3.058  1.00  0.00     0.213 C
ENDBRANCH  26  28
ENDBRANCH  25  26
ENDBRANCH  24  25
BRANCH  24  30
HETATM   30  N1  UNL     1      -0.889   3.203  -5.148  1.00  0.00    -0.348 N
HETATM   31  C5  UNL     1      -0.836   3.389  -6.577  1.00  0.00     0.214 C
HETATM   32  C6  UNL     1      -1.661   4.382  -7.277  1.00  0.00     0.117 C
HETATM   33  O3  UNL     1      -0.035   2.648  -7.195  1.00  0.00    -0.274 OA
ATOM     34  H1  UNL     1      -1.525   3.781  -4.598  1.00  0.00     0.163 HD
ENDBRANCH  24  30
ENDBRANCH  21  24
ENDBRANCH   1  20
BRANCH  10  35
HETATM   35  O5  UNL     1       3.994  -3.076   5.832  1.00  0.00    -0.396 OA
ATOM     36  H5  UNL     1       3.924  -3.404   6.721  1.00  0.00     0.210 HD
ENDBRANCH  10  35
TORSDOF 7
ENDMDL