MODEL 5
REMARK VINA RESULT: -9.288357311      4.115      9.435
REMARK  7 active torsions:
REMARK  status: ('A' for Active; 'I' for Inactive)
REMARK    1  A    between atoms: C2_2  and  C3_4
REMARK    2  A    between atoms: C3_4  and  O2_5
REMARK    3  A    between atoms: C13_16  and  N1_17
REMARK       I    between atoms: N1_17  and  C14_19
REMARK    4  A    between atoms: C14_19  and  C15_21
REMARK    5  A    between atoms: C15_21  and  C17_23
REMARK    6  A    between atoms: C17_23  and  C18_24
REMARK    7  A    between atoms: N2_25  and  N3_27
ROOT
HETATM    1  C3  UNL     1       2.539  -0.817   3.944  1.00  0.00     0.125 C
HETATM    2  C4  UNL     1       3.617   0.233   4.167  1.00  0.00     0.047 C
HETATM    3  C5  UNL     1       3.456   1.248   3.032  1.00  0.00     0.009 C
HETATM    4  C6  UNL     1       2.536   0.519   2.102  1.00  0.00     0.002 C
HETATM    5  C7  UNL     1       2.026   1.215   0.936  1.00  0.00    -0.005 C
HETATM    6  C8  UNL     1       1.810   2.684   0.978  1.00  0.00     0.006 C
HETATM    7  C9  UNL     1       0.560   3.149   0.334  1.00  0.00     0.006 C
HETATM    8  C10 UNL     1       0.158   2.462  -0.931  1.00  0.00    -0.000 C
HETATM    9  C11 UNL     1       0.675   3.145  -2.146  1.00  0.00     0.009 C
HETATM   10  C12 UNL     1       2.057   3.760  -1.971  1.00  0.00     0.012 C
HETATM   11  C13 UNL     1       0.621   2.356  -3.412  1.00  0.00     0.088 C
HETATM   12  C19 UNL     1       0.779   0.891  -3.284  1.00  0.00     0.026 C
HETATM   13  C20 UNL     1       1.300   0.457  -1.935  1.00  0.00     0.012 C
HETATM   14  C21 UNL     1       0.359   0.963  -0.895  1.00  0.00    -0.036 C
HETATM   15  C22 UNL     1      -0.959   0.210  -1.180  1.00  0.00     0.016 C
HETATM   16  C23 UNL     1       0.701   0.600   0.516  1.00  0.00    -0.002 C
HETATM   17  C24 UNL     1       0.749  -0.852   0.815  1.00  0.00     0.007 C
HETATM   18  C25 UNL     1       0.626  -0.998   2.334  1.00  0.00     0.013 C
HETATM   19  C26 UNL     1       1.539  -0.065   3.078  1.00  0.00    -0.002 C
HETATM   20  C27 UNL     1       0.864   0.932   3.932  1.00  0.00     0.019 C
ENDROOT
BRANCH  11  21
HETATM   21  N1  UNL     1      -0.583   2.598  -4.205  1.00  0.00    -0.356 N
HETATM   22  C14 UNL     1      -0.551   2.676  -5.616  1.00  0.00     0.222 C
HETATM   23  O3  UNL     1       0.554   2.534  -6.191  1.00  0.00    -0.273 OA
ATOM     24  H1  UNL     1      -1.475   2.715  -3.723  1.00  0.00     0.162 HD
BRANCH  22  25
HETATM   25  C15 UNL     1      -1.776   2.918  -6.404  1.00  0.00     0.078 C
HETATM   26  C16 UNL     1      -1.629   4.245  -7.116  1.00  0.00     0.020 C
BRANCH  25  27
HETATM   27  C17 UNL     1      -3.026   2.834  -5.564  1.00  0.00     0.059 C
BRANCH  27  28
HETATM   28  C18 UNL     1      -3.761   1.620  -5.989  1.00  0.00     0.080 C
HETATM   29  N2  UNL     1      -3.920   0.638  -5.179  1.00  0.00    -0.322 N
ATOM     30  H2  UNL     1      -4.432  -0.177  -5.517  1.00  0.00     0.185 HD
BRANCH  29  31
HETATM   31  N3  UNL     1      -3.441   0.606  -3.873  1.00  0.00    -0.346 N
ATOM     32  H32 UNL     1      -2.837   1.377  -3.589  1.00  0.00     0.176 HD
ATOM     33  H31 UNL     1      -3.654  -0.126  -3.195  1.00  0.00     0.176 HD
ENDBRANCH  29  31
ENDBRANCH  27  28
ENDBRANCH  25  27
ENDBRANCH  22  25
ENDBRANCH  11  21
BRANCH   1  34
HETATM   34  C2  UNL     1       2.004  -1.367   5.185  1.00  0.00     0.158 C
HETATM   35  C1  UNL     1       1.138  -2.580   5.175  1.00  0.00     0.094 C
HETATM   36  O1  UNL     1       2.241  -0.865   6.258  1.00  0.00    -0.295 OA
ENDBRANCH   1  34
BRANCH   1  37
HETATM   37  O2  UNL     1       3.052  -1.865   3.138  1.00  0.00    -0.381 OA
ATOM     38  H2  UNL     1       3.643  -2.404   3.652  1.00  0.00     0.211 HD
ENDBRANCH   1  37
TORSDOF 7
ENDMDL