MODEL 2
REMARK VINA RESULT: -5.722233703      0.898      1.379
REMARK  9 active torsions:
REMARK  status: ('A' for Active; 'I' for Inactive)
REMARK    1  A    between atoms: N1_1  and  C1_5
REMARK    2  A    between atoms: C1_5  and  C2_6
REMARK    3  A    between atoms: C2_6  and  C3_7
REMARK    4  A    between atoms: C3_7  and  C4_8
REMARK    5  A    between atoms: C4_8  and  C5_9
REMARK    6  A    between atoms: C5_9  and  C6_10
REMARK    7  A    between atoms: C6_10  and  N2_11
REMARK    8  A    between atoms: N2_11  and  C7_13
REMARK    9  A    between atoms: C9_17  and  C10_18
ROOT
HETATM    1  C7  UNL     1      -6.146   6.420   9.096  1.00  0.00     0.669 C
HETATM    2  N3  UNL     1      -6.675   7.335   9.794  1.00  0.00    -0.226 N
ATOM      3  H3  UNL     1      -6.329   7.454  10.747  1.00  0.00     0.177 HD
HETATM    4  C8  UNL     1      -7.719   8.222   9.360  1.00  0.00     0.144 C
HETATM    5  C9  UNL     1      -8.152   8.099   7.944  1.00  0.00     0.026 C
HETATM    6  C16 UNL     1      -7.068   7.468   7.104  1.00  0.00     0.144 C
HETATM    7  N4  UNL     1      -6.627   6.249   7.761  1.00  0.00    -0.226 N
ATOM      8  H4  UNL     1      -6.657   5.339   7.303  1.00  0.00     0.177 HD
ENDROOT
BRANCH   1   9
HETATM    9  N2  UNL     1      -5.111   5.590   9.613  1.00  0.00    -0.227 N
ATOM     10  H2  UNL     1      -5.056   4.633   9.262  1.00  0.00     0.177 HD
BRANCH   9  11
HETATM   11  C6  UNL     1      -4.139   5.996  10.590  1.00  0.00     0.138 C
BRANCH  11  12
HETATM   12  C5  UNL     1      -4.347   5.292  11.894  1.00  0.00     0.020 C
BRANCH  12  13
HETATM   13  C4  UNL     1      -4.882   6.207  12.943  1.00  0.00     0.002 C
BRANCH  13  14
HETATM   14  C3  UNL     1      -4.387   5.838  14.331  1.00  0.00     0.002 C
BRANCH  14  15
HETATM   15  C2  UNL     1      -3.376   4.745  14.361  1.00  0.00     0.027 C
BRANCH  15  16
HETATM   16  C1  UNL     1      -1.972   5.195  14.634  1.00  0.00     0.229 C
BRANCH  16  17
HETATM   17  N1  UNL     1      -1.312   4.170  15.420  1.00  0.00    -0.079 N
ATOM     18  H13 UNL     1      -1.792   3.272  15.378  1.00  0.00     0.274 HD
ATOM     19  H12 UNL     1      -0.426   3.872  15.011  1.00  0.00     0.274 HD
ATOM     20  H11 UNL     1      -1.208   4.517  16.373  1.00  0.00     0.274 HD
ENDBRANCH  16  17
ENDBRANCH  15  16
ENDBRANCH  14  15
ENDBRANCH  13  14
ENDBRANCH  12  13
ENDBRANCH  11  12
ENDBRANCH   9  11
ENDBRANCH   1   9
BRANCH   5  21
HETATM   21  C10 UNL     1      -8.510   9.470   7.413  1.00  0.00    -0.007 C
HETATM   22  C11 UNL     1      -7.741  10.509   8.165  1.00  0.00     0.005 C
HETATM   23  C12 UNL     1      -8.028  11.877   7.534  1.00  0.00     0.000 C
HETATM   24  C13 UNL     1      -9.477  12.177   7.802  1.00  0.00     0.000 C
HETATM   25  C14 UNL     1     -10.295  11.134   7.030  1.00  0.00     0.000 C
HETATM   26  C15 UNL     1      -9.978   9.758   7.509  1.00  0.00     0.005 C
ENDBRANCH   5  21
TORSDOF 9
ENDMDL