MODEL 1
REMARK VINA RESULT: -5.993403996      0.000      0.000
REMARK  8 active torsions:
REMARK  status: ('A' for Active; 'I' for Inactive)
REMARK    1  A    between atoms: C2_2  and  C3_3
REMARK    2  A    between atoms: C3_3  and  C4_4
REMARK    3  A    between atoms: C4_4  and  C5_5
REMARK    4  A    between atoms: C5_5  and  C6_6
REMARK    5  A    between atoms: C6_6  and  C7_7
REMARK    6  A    between atoms: C7_7  and  C8_8
REMARK    7  A    between atoms: C8_8  and  C9_9
REMARK    8  A    between atoms: C15_16  and  O2_17
ROOT
HETATM    1  C9  UNL     1      -4.289   5.868  13.139  1.00  0.00     0.007 C
HETATM    2  C10 UNL     1      -3.211   6.886  13.360  1.00  0.00     0.015 C
HETATM    3  C11 UNL     1      -2.136   6.466  14.295  1.00  0.00     0.024 C
HETATM    4  C12 UNL     1      -1.700   5.062  14.307  1.00  0.00     0.102 C
HETATM    5  C13 UNL     1      -1.351   4.634  12.903  1.00  0.00     0.104 C
HETATM    6  C14 UNL     1      -2.494   4.529  11.990  1.00  0.00     0.157 C
HETATM    7  O1  UNL     1      -2.215   3.766  11.045  1.00  0.00    -0.295 OA
HETATM    8  C15 UNL     1      -3.835   5.061  11.890  1.00  0.00     0.197 C
HETATM    9  N1  UNL     1      -2.473   4.122  15.047  1.00  0.00    -0.143 NA
HETATM   10  N2  UNL     1      -3.594   3.796  14.278  1.00  0.00    -0.147 NA
HETATM   11  C16 UNL     1      -4.450   4.950  14.309  1.00  0.00     0.142 C
ENDROOT
BRANCH   1  12
HETATM   12  C8  UNL     1      -5.616   6.401  12.763  1.00  0.00     0.014 C
BRANCH  12  13
HETATM   13  C7  UNL     1      -5.885   7.256  11.627  1.00  0.00     0.001 C
BRANCH  13  14
HETATM   14  C6  UNL     1      -6.970   8.294  11.717  1.00  0.00     0.000 C
BRANCH  14  15
HETATM   15  C5  UNL     1      -6.569   9.450  10.793  1.00  0.00     0.000 C
BRANCH  15  16
HETATM   16  C4  UNL     1      -6.479   9.043   9.361  1.00  0.00     0.000 C
BRANCH  16  17
HETATM   17  C3  UNL     1      -7.752   9.200   8.586  1.00  0.00    -0.000 C
BRANCH  17  18
HETATM   18  C2  UNL     1      -8.450   7.878   8.355  1.00  0.00    -0.005 C
HETATM   19  C1  UNL     1      -7.457   6.746   8.191  1.00  0.00     0.005 C
ENDBRANCH  17  18
ENDBRANCH  16  17
ENDBRANCH  15  16
ENDBRANCH  14  15
ENDBRANCH  13  14
ENDBRANCH  12  13
ENDBRANCH   1  12
BRANCH   8  20
HETATM   20  O2  UNL     1      -4.752   4.070  11.602  1.00  0.00    -0.387 OA
ATOM     21  H2  UNL     1      -4.328   3.219  11.602  1.00  0.00     0.210 HD
ENDBRANCH   8  20
TORSDOF 8
ENDMDL