MODEL 4
REMARK VINA RESULT: -5.777107048      4.125      5.660
REMARK  8 active torsions:
REMARK  status: ('A' for Active; 'I' for Inactive)
REMARK    1  A    between atoms: C1_2  and  C2_3
REMARK    2  A    between atoms: C5_6  and  N1_7
REMARK    3  A    between atoms: N1_7  and  C6_9
REMARK    4  A    between atoms: C6_9  and  C7_10
REMARK    5  A    between atoms: C7_10  and  C8_11
REMARK    6  A    between atoms: C8_11  and  N2_12
REMARK    7  A    between atoms: N2_12  and  C9_14
REMARK    8  A    between atoms: C12_17  and  O2_18
ROOT
HETATM    1  C7  UNL     1       0.104   7.530  11.492  1.00  0.00     0.039 C
ENDROOT
BRANCH   1   2
HETATM    2  C6  UNL     1      -0.782   8.240  12.503  1.00  0.00     0.121 C
BRANCH   2   3
HETATM    3  N1  UNL     1      -2.139   8.359  12.038  1.00  0.00    -0.390 N
ATOM      4  H1  UNL     1      -2.377   9.024  11.302  1.00  0.00     0.159 HD
BRANCH   3   5
HETATM    5  C5  UNL     1      -3.134   7.548  12.614  1.00  0.00     0.028 A
HETATM    6  C4  UNL     1      -4.373   7.396  12.027  1.00  0.00     0.030 A
HETATM    7  C3  UNL     1      -5.379   6.622  12.535  1.00  0.00     0.017 A
HETATM    8  C2  UNL     1      -5.120   5.947  13.726  1.00  0.00     0.002 A
HETATM    9  C16 UNL     1      -3.915   6.055  14.357  1.00  0.00     0.017 A
HETATM   10  C15 UNL     1      -2.929   6.851  13.802  1.00  0.00     0.030 A
BRANCH   8  11
HETATM   11  C1  UNL     1      -6.198   5.119  14.269  1.00  0.00     0.269 C
HETATM   12  O1  UNL     1      -6.135   3.869  14.157  1.00  0.00    -0.301 OA
ENDBRANCH   8  11
ENDBRANCH   3   5
ENDBRANCH   2   3
ENDBRANCH   1   2
BRANCH   1  13
HETATM   13  C8  UNL     1       0.304   6.123  12.030  1.00  0.00     0.115 C
BRANCH  13  14
HETATM   14  N2  UNL     1      -0.124   5.118  11.113  1.00  0.00    -0.417 N
ATOM     15  H2  UNL     1       0.513   4.663  10.460  1.00  0.00     0.153 HD
BRANCH  14  16
HETATM   16  C9  UNL     1      -1.511   4.798  11.179  1.00  0.00     0.076 C
HETATM   17  C10 UNL     1      -2.179   4.920   9.839  1.00  0.00     0.027 C
HETATM   18  C11 UNL     1      -3.609   4.532   9.798  1.00  0.00     0.034 C
HETATM   19  C12 UNL     1      -4.077   3.524  10.777  1.00  0.00     0.118 C
HETATM   20  C13 UNL     1      -3.225   3.306  11.979  1.00  0.00     0.034 C
HETATM   21  C14 UNL     1      -1.746   3.361  11.640  1.00  0.00     0.027 C
BRANCH  19  22
HETATM   22  O2  UNL     1      -4.349   2.276  10.187  1.00  0.00    -0.396 OA
ATOM     23  H2  UNL     1      -5.265   2.167   9.960  1.00  0.00     0.210 HD
ENDBRANCH  19  22
ENDBRANCH  14  16
ENDBRANCH  13  14
ENDBRANCH   1  13
TORSDOF 8
ENDMDL