MODEL 2
REMARK VINA RESULT: -5.653909305      2.093      6.793
REMARK  9 active torsions:
REMARK  status: ('A' for Active; 'I' for Inactive)
REMARK    1  A    between atoms: N1_1  and  C1_5
REMARK    2  A    between atoms: C1_5  and  C2_6
REMARK    3  A    between atoms: C2_6  and  C3_7
REMARK    4  A    between atoms: C3_7  and  C4_8
REMARK    5  A    between atoms: N2_9  and  C5_11
REMARK    6  A    between atoms: C8_14  and  C9_15
REMARK    7  A    between atoms: C9_15  and  N3_16
REMARK    8  A    between atoms: N3_16  and  C10_18
REMARK    9  A    between atoms: C10_18  and  C11_19
ROOT
HETATM    1  C5  UNL     1      -5.503   7.098  12.022  1.00  0.00     0.031 A
HETATM    2  C6  UNL     1      -4.538   7.823  11.343  1.00  0.00     0.030 A
HETATM    3  C7  UNL     1      -4.775   9.032  10.720  1.00  0.00     0.015 A
HETATM    4  C8  UNL     1      -6.011   9.573  10.750  1.00  0.00    -0.021 A
HETATM    5  C16 UNL     1      -7.037   8.870  11.429  1.00  0.00     0.015 A
HETATM    6  C17 UNL     1      -6.772   7.702  12.024  1.00  0.00     0.030 A
ENDROOT
BRANCH   4   7
HETATM    7  C9  UNL     1      -6.432  10.856  10.130  1.00  0.00     0.094 C
BRANCH   7   8
HETATM    8  N3  UNL     1      -6.414  10.752   8.728  1.00  0.00    -0.394 N
ATOM      9  H3  UNL     1      -5.623  11.061   8.163  1.00  0.00     0.159 HD
BRANCH   8  10
HETATM   10  C10 UNL     1      -7.596  10.175   8.159  1.00  0.00     0.159 C
BRANCH  10  11
HETATM   11  C11 UNL     1      -7.334   8.810   7.696  1.00  0.00    -0.025 A
HETATM   12  C12 UNL     1      -7.842   7.719   8.328  1.00  0.00     0.011 A
HETATM   13  C13 UNL     1      -7.498   6.461   7.837  1.00  0.00     0.018 A
HETATM   14  C14 UNL     1      -6.667   6.391   6.738  1.00  0.00     0.087 A
HETATM   15  N4  UNL     1      -6.172   7.467   6.122  1.00  0.00    -0.375 N
HETATM   16  C15 UNL     1      -6.508   8.675   6.602  1.00  0.00     0.096 A
ATOM     17  H4  UNL     1      -5.559   7.374   5.311  1.00  0.00     0.164 HD
ENDBRANCH  10  11
ENDBRANCH   8  10
ENDBRANCH   7   8
ENDBRANCH   4   7
BRANCH   1  18
HETATM   18  N2  UNL     1      -5.290   5.921  12.683  1.00  0.00    -0.370 N
HETATM   19  C4  UNL     1      -4.752   5.417  13.604  1.00  0.00     0.061 C
ATOM     20  H2  UNL     1      -5.797   5.191  12.184  1.00  0.00     0.165 HD
BRANCH  19  21
HETATM   21  C3  UNL     1      -3.908   5.988  14.635  1.00  0.00     0.046 C
BRANCH  21  22
HETATM   22  C2  UNL     1      -2.460   6.185  14.341  1.00  0.00     0.032 C
BRANCH  22  23
HETATM   23  C1  UNL     1      -1.617   4.981  14.159  1.00  0.00     0.230 C
BRANCH  23  24
HETATM   24  N1  UNL     1      -1.317   4.170  15.263  1.00  0.00    -0.079 N
ATOM     25  H13 UNL     1      -0.449   3.669  15.071  1.00  0.00     0.274 HD
ATOM     26  H12 UNL     1      -1.035   4.770  16.039  1.00  0.00     0.274 HD
ATOM     27  H11 UNL     1      -2.008   3.502  15.603  1.00  0.00     0.274 HD
ENDBRANCH  23  24
ENDBRANCH  22  23
ENDBRANCH  21  22
ENDBRANCH  19  21
ENDBRANCH   1  18
TORSDOF 9
ENDMDL