MODEL 3
REMARK VINA RESULT: -5.206723932      2.470      5.287
REMARK  7 active torsions:
REMARK  status: ('A' for Active; 'I' for Inactive)
REMARK    1  A    between atoms: O1_1  and  C1_3
REMARK    2  A    between atoms: N1_9  and  O2_11
REMARK    3  A    between atoms: O2_11  and  C7_12
REMARK    4  A    between atoms: C7_12  and  C8_13
REMARK    5  A    between atoms: C8_13  and  S1_14
REMARK    6  A    between atoms: S1_14  and  C9_15
REMARK    7  A    between atoms: C9_15  and  C10_16
ROOT
HETATM    1  O2  UNL     1      -5.135   4.018  10.546  1.00  0.00    -0.280 OA
ENDROOT
BRANCH   1   2
HETATM    2  N1  UNL     1      -4.819   5.137   9.987  1.00  0.00    -0.272 N
HETATM    3  C6  UNL     1      -5.375   6.383   9.981  1.00  0.00     0.038 C
HETATM    4  C1  UNL     1      -5.509   7.115  11.314  1.00  0.00     0.165 C
HETATM    5  C5  UNL     1      -6.602   6.524   9.109  1.00  0.00     0.057 C
HETATM    6  C2  UNL     1      -5.692   8.580  10.958  1.00  0.00     0.038 C
HETATM    7  C3  UNL     1      -7.030   8.704  10.254  1.00  0.00     0.003 C
HETATM    8  C4  UNL     1      -7.056   7.926   8.954  1.00  0.00     0.006 C
ATOM      9  H1  UNL     1      -3.968   5.077   9.429  1.00  0.00     0.193 HD
BRANCH   4  10
HETATM   10  O1  UNL     1      -6.642   6.697  11.997  1.00  0.00    -0.390 OA
ATOM     11  H1  UNL     1      -6.584   5.756  12.111  1.00  0.00     0.210 HD
ENDBRANCH   4  10
ENDBRANCH   1   2
BRANCH   1  12
HETATM   12  C7  UNL     1      -4.096   3.396  11.244  1.00  0.00     0.211 C
BRANCH  12  13
HETATM   13  C8  UNL     1      -4.741   2.130  11.928  1.00  0.00     0.103 C
BRANCH  13  14
HETATM   14  S1  UNL     1      -4.507   2.444  13.705  1.00  0.00    -0.162 SA
BRANCH  14  15
HETATM   15  C9  UNL     1      -5.167   4.129  13.937  1.00  0.00     0.112 C
BRANCH  15  16
HETATM   16  C10 UNL     1      -4.002   4.985  14.330  1.00  0.00    -0.049 A
HETATM   17  C11 UNL     1      -2.834   4.326  14.651  1.00  0.00     0.008 A
HETATM   18  C12 UNL     1      -1.685   5.022  14.881  1.00  0.00     0.001 A
HETATM   19  C13 UNL     1      -1.675   6.399  14.806  1.00  0.00     0.000 A
HETATM   20  C14 UNL     1      -2.817   7.065  14.485  1.00  0.00     0.001 A
HETATM   21  C15 UNL     1      -3.969   6.342  14.254  1.00  0.00     0.008 A
ENDBRANCH  15  16
ENDBRANCH  14  15
ENDBRANCH  13  14
ENDBRANCH  12  13
ENDBRANCH   1  12
TORSDOF 7
ENDMDL