MODEL 2
REMARK VINA RESULT: -5.925488775      2.676      4.905
REMARK  9 active torsions:
REMARK  status: ('A' for Active; 'I' for Inactive)
REMARK    1  A    between atoms: C2_2  and  C3_3
REMARK    2  A    between atoms: C3_3  and  C4_4
REMARK    3  A    between atoms: C6_7  and  O2_8
REMARK    4  A    between atoms: C7_10  and  C8_11
REMARK    5  A    between atoms: C7_10  and  C14_17
REMARK    6  A    between atoms: C8_11  and  C9_12
REMARK    7  A    between atoms: C11_14  and  C12_15
REMARK    8  A    between atoms: C14_17  and  O3_18
REMARK    9  A    between atoms: N1_20  and  O4_22
ROOT
HETATM    1  C4  UNL     1      -2.706   5.547  13.920  1.00  0.00     0.014 C
HETATM    2  C5  UNL     1      -1.328   5.145  13.425  1.00  0.00     0.176 C
HETATM    3  O1  UNL     1      -1.555   3.918  12.753  1.00  0.00    -0.360 OA
HETATM    4  C6  UNL     1      -2.241   4.134  11.589  1.00  0.00     0.273 C
HETATM    5  C7  UNL     1      -3.689   4.537  11.853  1.00  0.00     0.077 C
HETATM    6  C15 UNL     1      -3.531   5.817  12.708  1.00  0.00     0.030 C
ENDROOT
BRANCH   5   7
HETATM    7  C8  UNL     1      -4.363   5.009  10.627  1.00  0.00     0.028 C
BRANCH   7   8
HETATM    8  C9  UNL     1      -4.654   6.429  10.443  1.00  0.00    -0.005 A
HETATM    9  C10 UNL     1      -5.189   7.102   9.272  1.00  0.00     0.014 A
HETATM   10  C11 UNL     1      -6.129   6.818  10.420  1.00  0.00     0.012 A
BRANCH  10  11
HETATM   11  C12 UNL     1      -6.612   7.922  11.214  1.00  0.00    -0.032 C
HETATM   12  C13 UNL     1      -7.533   7.800  12.136  1.00  0.00     0.007 C
ENDBRANCH  10  11
ENDBRANCH   7   8
ENDBRANCH   5   7
BRANCH   5  13
HETATM   13  C14 UNL     1      -4.390   3.561  12.678  1.00  0.00     0.149 C
HETATM   14  N1  UNL     1      -4.165   2.335  12.779  1.00  0.00    -0.250 N
ATOM     15  H1  UNL     1      -4.806   1.878  13.429  1.00  0.00     0.196 HD
BRANCH  13  16
HETATM   16  O3  UNL     1      -5.455   4.053  13.468  1.00  0.00    -0.347 OA
ATOM     17  H3  UNL     1      -5.253   4.245  14.377  1.00  0.00     0.219 HD
ENDBRANCH  13  16
BRANCH  14  18
HETATM   18  O4  UNL     1      -3.298   1.481  12.251  1.00  0.00    -0.288 OA
ATOM     19  H4  UNL     1      -2.948   0.631  12.490  1.00  0.00     0.244 HD
ENDBRANCH  14  18
ENDBRANCH   5  13
BRANCH   4  20
HETATM   20  O2  UNL     1      -1.648   5.223  10.932  1.00  0.00    -0.370 OA
ATOM     21  H2  UNL     1      -1.373   4.931  10.070  1.00  0.00     0.212 HD
ENDBRANCH   4  20
BRANCH   1  22
HETATM   22  C3  UNL     1      -2.660   6.801  14.749  1.00  0.00     0.033 C
BRANCH  22  23
HETATM   23  C2  UNL     1      -1.850   7.867  14.150  1.00  0.00    -0.036 C
HETATM   24  C1  UNL     1      -1.533   8.952  14.834  1.00  0.00     0.007 C
ENDBRANCH  22  23
ENDBRANCH   1  22
TORSDOF 9
ENDMDL