MODEL 3
REMARK VINA RESULT: -5.792025392      3.791      5.846
REMARK  8 active torsions:
REMARK  status: ('A' for Active; 'I' for Inactive)
REMARK    1  A    between atoms: C3_8  and  C4_9
REMARK    2  A    between atoms: C5_10  and  C6_11
REMARK    3  A    between atoms: C6_11  and  C7_12
REMARK    4  A    between atoms: C7_12  and  C8_13
REMARK    5  A    between atoms: C8_13  and  C9_14
REMARK    6  A    between atoms: C9_14  and  N3_15
REMARK    7  A    between atoms: N3_15  and  C10_18
REMARK    8  A    between atoms: C15_23  and  O1_24
ROOT
HETATM    1  C7  UNL     1      -6.969   8.366  10.303  1.00  0.00     0.005 C
ENDROOT
BRANCH   1   2
HETATM    2  C6  UNL     1      -7.203   7.790  11.678  1.00  0.00     0.027 C
BRANCH   2   3
HETATM    3  C5  UNL     1      -5.889   7.282  12.168  1.00  0.00    -0.026 C
HETATM    4  C4  UNL     1      -5.869   6.386  13.126  1.00  0.00     0.011 C
BRANCH   4   5
HETATM    5  C3  UNL     1      -4.613   5.833  13.665  1.00  0.00     0.002 A
HETATM    6  C2  UNL     1      -3.473   6.585  13.814  1.00  0.00     0.104 A
HETATM    7  N2  UNL     1      -2.362   6.035  14.302  1.00  0.00    -0.332 N
HETATM    8  C1  UNL     1      -2.374   4.737  14.646  1.00  0.00     0.221 A
ATOM      9  H2  UNL     1      -1.515   6.592  14.412  1.00  0.00     0.168 HD
HETATM   10  N1  UNL     1      -1.294   4.175  15.127  1.00  0.00    -0.365 N
HETATM   11  O2  UNL     1      -3.452   4.003  14.512  1.00  0.00    -0.291 OA
ATOM     12  H12 UNL     1      -0.455   4.746  15.232  1.00  0.00     0.159 HD
ATOM     13  H11 UNL     1      -1.303   3.189  15.389  1.00  0.00     0.159 HD
HETATM   14  C16 UNL     1      -4.553   4.495  14.043  1.00  0.00     0.158 A
ENDBRANCH   4   5
ENDBRANCH   2   3
ENDBRANCH   1   2
BRANCH   1  15
HETATM   15  C8  UNL     1      -7.134   7.303   9.262  1.00  0.00     0.028 C
BRANCH  15  16
HETATM   16  C9  UNL     1      -7.720   7.871   8.007  1.00  0.00     0.233 C
BRANCH  16  17
HETATM   17  N3  UNL     1      -8.986   8.542   8.266  1.00  0.00    -0.069 N
ATOM     18  H32 UNL     1      -9.777   7.899   8.254  1.00  0.00     0.277 HD
ATOM     19  H31 UNL     1      -9.070   8.853   9.234  1.00  0.00     0.277 HD
BRANCH  17  20
HETATM   20  C10 UNL     1      -9.144   9.623   7.328  1.00  0.00     0.214 C
HETATM   21  C11 UNL     1      -7.989  10.577   7.467  1.00  0.00     0.036 C
HETATM   22  C12 UNL     1      -8.344  12.010   7.279  1.00  0.00     0.002 C
HETATM   23  C13 UNL     1      -9.418  12.279   6.264  1.00  0.00     0.003 C
HETATM   24  C14 UNL     1     -10.619  11.385   6.437  1.00  0.00     0.034 C
HETATM   25  C15 UNL     1     -10.424  10.392   7.560  1.00  0.00     0.148 C
BRANCH  25  26
HETATM   26  O1  UNL     1     -11.449   9.436   7.571  1.00  0.00    -0.393 OA
ATOM     27  H1  UNL     1     -12.258   9.923   7.673  1.00  0.00     0.210 HD
ENDBRANCH  25  26
ENDBRANCH  17  20
ENDBRANCH  16  17
ENDBRANCH  15  16
ENDBRANCH   1  15
TORSDOF 8
ENDMDL