MODEL 3
REMARK VINA RESULT: -5.337733925      1.931      2.866
REMARK  7 active torsions:
REMARK  status: ('A' for Active; 'I' for Inactive)
REMARK    1  A    between atoms: N1_1  and  C1_4
REMARK    2  A    between atoms: C2_7  and  C3_8
REMARK    3  A    between atoms: C3_8  and  N3_9
REMARK    4  A    between atoms: C4_11  and  C5_12
REMARK    5  A    between atoms: C5_12  and  S1_13
REMARK    6  A    between atoms: S1_13  and  C6_14
REMARK    7  A    between atoms: C6_14  and  C7_15
ROOT
HETATM    1  N3  UNL     1      -4.364   2.036  13.242  1.00  0.00    -0.396 N
ATOM      2  H3  UNL     1      -4.005   1.121  13.517  1.00  0.00     0.159 HD
HETATM    3  C4  UNL     1      -4.570   2.936  14.211  1.00  0.00     0.066 C
ENDROOT
BRANCH   1   4
HETATM    4  C3  UNL     1      -4.605   2.253  11.867  1.00  0.00     0.176 C
BRANCH   4   5
HETATM    5  C2  UNL     1      -3.326   2.988  11.383  1.00  0.00     0.035 A
HETATM    6  N2  UNL     1      -2.171   3.004  11.976  1.00  0.00    -0.339 N
HETATM    7  C1  UNL     1      -1.188   3.762  11.459  1.00  0.00     0.142 A
ATOM      8  H2  UNL     1      -2.012   2.452  12.818  1.00  0.00     0.168 HD
HETATM    9  S2  UNL     1      -1.912   4.467  10.085  1.00  0.00    -0.064 SA
HETATM   10  C13 UNL     1      -3.458   3.764  10.234  1.00  0.00     0.080 A
BRANCH   7  11
HETATM   11  N1  UNL     1       0.037   3.958  11.863  1.00  0.00    -0.380 N
ATOM     12  H12 UNL     1       0.463   3.554  12.698  1.00  0.00     0.158 HD
ATOM     13  H11 UNL     1       0.790   4.517  11.461  1.00  0.00     0.158 HD
ENDBRANCH   7  11
ENDBRANCH   4   5
ENDBRANCH   1   4
BRANCH   3  14
HETATM   14  C5  UNL     1      -3.938   4.167  14.662  1.00  0.00     0.118 C
BRANCH  14  15
HETATM   15  S1  UNL     1      -4.911   5.484  13.781  1.00  0.00    -0.159 SA
BRANCH  15  16
HETATM   16  C6  UNL     1      -3.932   6.456  12.627  1.00  0.00     0.112 C
BRANCH  16  17
HETATM   17  C7  UNL     1      -4.916   7.452  12.018  1.00  0.00    -0.049 A
HETATM   18  C8  UNL     1      -4.520   8.521  11.253  1.00  0.00     0.008 A
HETATM   19  C9  UNL     1      -5.492   9.364  10.697  1.00  0.00     0.001 A
HETATM   20  C10 UNL     1      -6.837   9.164  10.885  1.00  0.00     0.000 A
HETATM   21  C11 UNL     1      -7.234   8.091  11.661  1.00  0.00     0.001 A
HETATM   22  C12 UNL     1      -6.266   7.259  12.210  1.00  0.00     0.008 A
ENDBRANCH  16  17
ENDBRANCH  15  16
ENDBRANCH  14  15
ENDBRANCH   3  14
TORSDOF 7
ENDMDL