MODEL 5
REMARK VINA RESULT: -5.791622233      2.165      2.421
REMARK  7 active torsions:
REMARK  status: ('A' for Active; 'I' for Inactive)
REMARK       I    between atoms: C2_4  and  N2_5
REMARK       I    between atoms: C2_4  and  N4_9
REMARK    1  A    between atoms: N4_9  and  C4_11
REMARK    2  A    between atoms: C4_11  and  C5_12
REMARK    3  A    between atoms: C5_12  and  S1_13
REMARK    4  A    between atoms: S1_13  and  C6_14
REMARK    5  A    between atoms: C6_14  and  C7_15
REMARK    6  A    between atoms: C7_15  and  N5_16
REMARK    7  A    between atoms: N5_16  and  C8_18
ROOT
HETATM    1  C1  UNL     1      -4.344   0.317  12.723  1.00  0.00     0.165 C
HETATM    2  N1  UNL     1      -4.759   1.672  12.929  1.00  0.00    -0.230 N
ATOM      3  H1  UNL     1      -5.149   2.158  12.122  1.00  0.00     0.177 HD
HETATM    4  C2  UNL     1      -4.691   2.328  14.013  1.00  0.00     0.682 C
HETATM    5  N2  UNL     1      -4.158   1.716  15.180  1.00  0.00    -0.126 N
ATOM      6  H2  UNL     1      -3.205   1.922  15.480  1.00  0.00     0.197 HD
HETATM    7  C3  UNL     1      -4.957   0.827  15.913  1.00  0.00     0.196 C
HETATM    8  N3  UNL     1      -5.615   0.074  16.510  1.00  0.00    -0.171 NA
HETATM    9  N4  UNL     1      -5.141   3.660  14.062  1.00  0.00    -0.225 N
ATOM     10  H4  UNL     1      -6.119   3.895  13.892  1.00  0.00     0.177 HD
ENDROOT
BRANCH   9  11
HETATM   11  C4  UNL     1      -4.151   4.696  14.366  1.00  0.00     0.148 C
BRANCH  11  12
HETATM   12  C5  UNL     1      -2.952   4.594  13.493  1.00  0.00     0.094 C
BRANCH  12  13
HETATM   13  S1  UNL     1      -1.764   5.857  13.791  1.00  0.00    -0.166 SA
BRANCH  13  14
HETATM   14  C6  UNL     1      -1.206   6.891  12.490  1.00  0.00     0.093 C
BRANCH  14  15
HETATM   15  C7  UNL     1      -2.051   8.125  12.297  1.00  0.00     0.130 C
BRANCH  15  16
HETATM   16  N5  UNL     1      -2.997   7.954  11.204  1.00  0.00    -0.389 N
ATOM     17  H5  UNL     1      -2.623   7.702  10.289  1.00  0.00     0.159 HD
BRANCH  16  18
HETATM   18  C8  UNL     1      -4.396   8.114  11.322  1.00  0.00     0.027 A
HETATM   19  C9  UNL     1      -5.054   9.244  10.881  1.00  0.00     0.029 A
HETATM   20  C10 UNL     1      -6.423   9.409  11.011  1.00  0.00     0.002 A
HETATM   21  C11 UNL     1      -7.175   8.413  11.605  1.00  0.00     0.000 A
HETATM   22  C12 UNL     1      -6.547   7.272  12.056  1.00  0.00     0.002 A
HETATM   23  C13 UNL     1      -5.163   7.135  11.910  1.00  0.00     0.029 A
ENDBRANCH  16  18
ENDBRANCH  15  16
ENDBRANCH  14  15
ENDBRANCH  13  14
ENDBRANCH  12  13
ENDBRANCH  11  12
ENDBRANCH   9  11
TORSDOF 7
ENDMDL