MODEL 4
REMARK VINA RESULT: -8.141060666      1.545      1.818
REMARK  6 active torsions:
REMARK  status: ('A' for Active; 'I' for Inactive)
REMARK    1  A    between atoms: O1_2  and  C2_3
REMARK    2  A    between atoms: C2_3  and  C3_5
REMARK    3  A    between atoms: C3_5  and  N1_6
REMARK    4  A    between atoms: C6_9  and  N2_10
REMARK    5  A    between atoms: C25_42  and  C26_43
REMARK    6  A    between atoms: C26_43  and  N7_44
ROOT
HETATM    1  N2  UNL     1      19.162  35.438  46.708  1.00  0.00    -0.378 N
HETATM    2  C7  UNL     1      18.219  34.395  46.824  1.00  0.00     0.150 C
HETATM    3  C8  UNL     1      16.820  34.681  46.408  1.00  0.00     0.252 C
HETATM    4  N3  UNL     1      15.867  34.203  47.392  1.00  0.00    -0.074 N
ATOM      5  H31 UNL     1      14.909  34.321  47.061  1.00  0.00     0.277 HD
ATOM      6  H32 UNL     1      15.837  34.821  48.203  1.00  0.00     0.277 HD
HETATM    7  C9  UNL     1      16.117  32.831  47.789  1.00  0.00     0.234 C
HETATM    8  C10 UNL     1      16.221  32.808  49.303  1.00  0.00     0.055 C
HETATM    9  C11 UNL     1      15.292  31.751  49.896  1.00  0.00     0.234 C
HETATM   10  N4  UNL     1      14.808  32.127  51.215  1.00  0.00    -0.073 N
ATOM     11  H41 UNL     1      13.803  31.987  51.320  1.00  0.00     0.277 HD
ATOM     12  H42 UNL     1      14.824  33.136  51.366  1.00  0.00     0.277 HD
HETATM   13  C12 UNL     1      15.574  31.405  52.202  1.00  0.00     0.259 C
HETATM   14  C13 UNL     1      16.647  32.236  52.854  1.00  0.00     0.259 C
HETATM   15  N5  UNL     1      16.081  33.085  53.889  1.00  0.00    -0.073 N
ATOM     16  H51 UNL     1      16.488  32.879  54.801  1.00  0.00     0.277 HD
ATOM     17  H52 UNL     1      15.112  32.834  54.086  1.00  0.00     0.277 HD
HETATM   18  C14 UNL     1      16.206  34.505  53.560  1.00  0.00     0.234 C
HETATM   19  C15 UNL     1      17.317  35.155  54.361  1.00  0.00     0.055 C
HETATM   20  C16 UNL     1      17.124  36.648  54.315  1.00  0.00     0.233 C
HETATM   21  N6  UNL     1      18.408  37.335  54.376  1.00  0.00    -0.075 N
ATOM     22  H61 UNL     1      18.838  37.451  53.458  1.00  0.00     0.277 HD
ATOM     23  H62 UNL     1      19.141  36.767  54.798  1.00  0.00     0.277 HD
HETATM   24  C17 UNL     1      18.208  38.589  55.062  1.00  0.00     0.234 C
HETATM   25  C18 UNL     1      18.406  39.690  54.026  1.00  0.00     0.054 C
HETATM   26  C19 UNL     1      19.679  39.404  53.253  1.00  0.00     0.177 C
HETATM   27  O3  UNL     1      19.391  39.510  51.894  1.00  0.00    -0.350 OA
HETATM   28  C20 UNL     1      19.753  38.602  50.860  1.00  0.00     0.076 A
HETATM   29  C21 UNL     1      18.689  37.827  50.467  1.00  0.00     0.038 A
HETATM   30  C22 UNL     1      18.774  36.840  49.453  1.00  0.00     0.015 A
HETATM   31  C23 UNL     1      19.960  36.622  48.810  1.00  0.00    -0.020 A
HETATM   32  C24 UNL     1      21.019  37.392  49.204  1.00  0.00     0.024 A
HETATM   33  C25 UNL     1      20.954  38.405  50.237  1.00  0.00     0.001 A
HETATM   34  C27 UNL     1      20.129  35.588  47.707  1.00  0.00     0.097 C
ENDROOT
BRANCH   1  35
HETATM   35  C6  UNL     1      19.249  36.058  45.471  1.00  0.00     0.124 C
HETATM   36  C5  UNL     1      19.979  37.383  45.469  1.00  0.00     0.051 C
HETATM   37  C4  UNL     1      20.681  37.395  44.145  1.00  0.00     0.130 C
HETATM   38  N1  UNL     1      20.629  36.063  43.588  1.00  0.00    -0.363 N
HETATM   39  C28 UNL     1      19.744  35.251  44.303  1.00  0.00     0.088 C
BRANCH  38  40
HETATM   40  C3  UNL     1      20.701  36.024  42.182  1.00  0.00     0.172 C
BRANCH  40  41
HETATM   41  C2  UNL     1      22.070  35.988  41.637  1.00  0.00     0.298 C
HETATM   42  O2  UNL     1      23.032  35.619  42.319  1.00  0.00    -0.259 OA
BRANCH  41  43
HETATM   43  O1  UNL     1      22.311  36.377  40.301  1.00  0.00    -0.322 OA
HETATM   44  C1  UNL     1      21.392  36.048  39.255  1.00  0.00     0.213 C
ENDBRANCH  41  43
ENDBRANCH  40  41
ENDBRANCH  38  40
ENDBRANCH   1  35
BRANCH  33  45
HETATM   45  C26 UNL     1      22.297  39.105  50.394  1.00  0.00     0.271 C
BRANCH  45  46
HETATM   46  N7  UNL     1      22.266  40.102  51.503  1.00  0.00    -0.075 N
ATOM     47  H73 UNL     1      21.715  39.765  52.292  1.00  0.00     0.274 HD
ATOM     48  H72 UNL     1      23.173  40.176  51.964  1.00  0.00     0.274 HD
ATOM     49  H71 UNL     1      21.936  41.011  51.178  1.00  0.00     0.274 HD
ENDBRANCH  45  46
ENDBRANCH  33  45
TORSDOF 6
ENDMDL