MODEL 1
REMARK VINA RESULT: -9.096000634      0.000      0.000
REMARK  9 active torsions:
REMARK  status: ('A' for Active; 'I' for Inactive)
REMARK    1  A    between atoms: C2_2  and  C3_3
REMARK    2  A    between atoms: C7_10  and  N2_11
REMARK    3  A    between atoms: C10_14  and  N3_15
REMARK    4  A    between atoms: C13_23  and  N5_24
REMARK    5  A    between atoms: C15_30  and  N7_31
REMARK    6  A    between atoms: N7_31  and  C16_33
REMARK       I    between atoms: N8_36  and  C19_37
REMARK    7  A    between atoms: C19_37  and  C20_39
REMARK    8  A    between atoms: C20_39  and  N9_40
REMARK    9  A    between atoms: C20_39  and  O3_44
ROOT
HETATM    1  C3  UNL     1      18.761  38.232  52.488  1.00  0.00     0.052 C
HETATM    2  C4  UNL     1      18.920  36.762  52.781  1.00  0.00     0.185 C
HETATM    3  O1  UNL     1      19.013  35.980  51.612  1.00  0.00    -0.344 OA
HETATM    4  C5  UNL     1      19.770  36.157  50.483  1.00  0.00     0.142 A
HETATM    5  C6  UNL     1      20.635  37.212  50.197  1.00  0.00     0.114 A
HETATM    6  N1  UNL     1      21.277  37.191  49.032  1.00  0.00    -0.186 N
ATOM      7  H1  UNL     1      21.913  37.955  48.806  1.00  0.00     0.184 HD
HETATM    8  C7  UNL     1      21.115  36.189  48.139  1.00  0.00     0.682 A
HETATM    9  N4  UNL     1      20.289  35.177  48.412  1.00  0.00    -0.174 N
ATOM     10  H4  UNL     1      20.174  34.426  47.733  1.00  0.00     0.186 HD
HETATM   11  C13 UNL     1      19.611  35.135  49.562  1.00  0.00     0.150 A
HETATM   12  C14 UNL     1      20.964  38.384  51.057  1.00  0.00     0.078 A
HETATM   13  N6  UNL     1      22.058  39.048  50.906  1.00  0.00    -0.334 N
ATOM     14  H6  UNL     1      22.733  38.786  50.187  1.00  0.00     0.168 HD
HETATM   15  C15 UNL     1      22.292  40.104  51.727  1.00  0.00     0.145 A
HETATM   16  S1  UNL     1      20.906  40.120  52.715  1.00  0.00    -0.056 SA
HETATM   17  C24 UNL     1      20.092  38.787  52.045  1.00  0.00     0.021 A
ENDROOT
BRANCH  15  18
HETATM   18  N7  UNL     1      23.341  40.856  51.690  1.00  0.00    -0.366 N
ATOM     19  H7  UNL     1      23.457  41.372  50.818  1.00  0.00     0.162 HD
BRANCH  18  20
HETATM   20  C16 UNL     1      24.341  41.087  52.629  1.00  0.00     0.086 C
HETATM   21  C17 UNL     1      23.902  41.181  54.069  1.00  0.00     0.045 C
HETATM   22  C18 UNL     1      25.136  41.265  54.978  1.00  0.00     0.128 C
HETATM   23  N8  UNL     1      26.059  42.245  54.417  1.00  0.00    -0.348 N
HETATM   24  C19 UNL     1      27.377  42.338  54.884  1.00  0.00     0.276 C
HETATM   25  C22 UNL     1      25.545  43.090  53.388  1.00  0.00     0.128 C
HETATM   26  O2  UNL     1      27.797  41.554  55.820  1.00  0.00    -0.268 OA
HETATM   27  C23 UNL     1      25.218  42.236  52.189  1.00  0.00     0.045 C
BRANCH  24  28
HETATM   28  C20 UNL     1      28.356  43.312  54.360  1.00  0.00     0.411 C
BRANCH  28  29
HETATM   29  N9  UNL     1      29.216  42.698  53.355  1.00  0.00    -0.044 N
ATOM     30  H93 UNL     1      29.846  42.010  53.767  1.00  0.00     0.278 HD
ATOM     31  H92 UNL     1      28.690  42.078  52.739  1.00  0.00     0.278 HD
ATOM     32  H91 UNL     1      29.726  43.407  52.829  1.00  0.00     0.278 HD
ENDBRANCH  28  29
BRANCH  28  33
HETATM   33  O3  UNL     1      29.188  43.805  55.368  1.00  0.00    -0.357 OA
HETATM   34  C21 UNL     1      30.522  43.805  54.978  1.00  0.00     0.204 C
ENDBRANCH  28  33
ENDBRANCH  24  28
ENDBRANCH  18  20
ENDBRANCH  15  18
BRANCH   1  35
HETATM   35  C2  UNL     1      18.411  38.911  53.801  1.00  0.00     0.007 C
HETATM   36  C1  UNL     1      18.379  37.851  54.869  1.00  0.00     0.006 C
ENDBRANCH   1  35
BRANCH  11  37
HETATM   37  N5  UNL     1      18.803  34.185  49.860  1.00  0.00    -0.383 N
ATOM     38  H52 UNL     1      18.681  33.838  50.811  1.00  0.00     0.157 HD
ATOM     39  H51 UNL     1      18.266  33.764  49.101  1.00  0.00     0.157 HD
ENDBRANCH  11  37
BRANCH   8  40
HETATM   40  N2  UNL     1      21.829  36.218  46.921  1.00  0.00    -0.217 N
HETATM   41  C8  UNL     1      21.776  35.079  46.038  1.00  0.00     0.143 C
HETATM   42  C9  UNL     1      21.405  35.537  44.663  1.00  0.00     0.053 C
HETATM   43  C10 UNL     1      22.278  36.662  44.217  1.00  0.00     0.186 C
HETATM   44  C11 UNL     1      23.243  37.175  45.233  1.00  0.00     0.053 C
HETATM   45  C12 UNL     1      22.594  37.387  46.586  1.00  0.00     0.143 C
BRANCH  43  46
HETATM   46  N3  UNL     1      21.382  37.728  43.739  1.00  0.00    -0.075 N
ATOM     47  H33 UNL     1      20.451  37.392  43.491  1.00  0.00     0.274 HD
ATOM     48  H32 UNL     1      21.092  38.372  44.475  1.00  0.00     0.274 HD
ATOM     49  H31 UNL     1      21.861  38.190  42.966  1.00  0.00     0.274 HD
ENDBRANCH  43  46
ENDBRANCH   8  40
TORSDOF 9
ENDMDL