MODEL 4
REMARK VINA RESULT: -10.361793248      3.352     10.129
REMARK  8 active torsions:
REMARK  status: ('A' for Active; 'I' for Inactive)
REMARK    1  A    between atoms: C4_4  and  C5_5
REMARK    2  A    between atoms: C5_5  and  O1_6
REMARK    3  A    between atoms: N2_14  and  C10_15
REMARK    4  A    between atoms: C10_15  and  O2_16
REMARK    5  A    between atoms: C10_15  and  N3_18
REMARK    6  A    between atoms: N4_21  and  C13_22
REMARK    7  A    between atoms: C14_27  and  C15_28
REMARK    8  A    between atoms: C16_32  and  C17_33
ROOT
HETATM    1  C13 UNL     1      18.913  39.172  55.037  1.00  0.00     0.714 A
HETATM    2  N5  UNL     1      19.373  38.486  56.099  1.00  0.00    -0.129 N
ATOM      3  H5  UNL     1      19.090  37.540  56.353  1.00  0.00     0.205 HD
HETATM    4  N6  UNL     1      20.247  39.225  56.764  1.00  0.00    -0.268 N
ATOM      5  H6  UNL     1      20.742  38.938  57.608  1.00  0.00     0.189 HD
HETATM    6  C14 UNL     1      20.380  40.411  56.151  1.00  0.00     0.182 A
HETATM    7  N12 UNL     1      19.557  40.374  55.089  1.00  0.00    -0.169 N
ATOM      8  H12 UNL     1      19.432  41.134  54.420  1.00  0.00     0.186 HD
ENDROOT
BRANCH   1   9
HETATM    9  N4  UNL     1      17.965  38.754  54.063  1.00  0.00    -0.104 N
HETATM   10  C12 UNL     1      17.031  37.655  54.160  1.00  0.00     0.187 C
HETATM   11  C11 UNL     1      16.323  37.696  52.800  1.00  0.00     0.172 C
HETATM   12  N3  UNL     1      17.400  38.345  52.000  1.00  0.00    -0.238 N
HETATM   13  N13 UNL     1      17.800  39.378  52.825  1.00  0.00     0.000 NA
BRANCH  12  14
HETATM   14  C10 UNL     1      17.850  37.977  50.740  1.00  0.00     0.234 C
BRANCH  14  15
HETATM   15  N2  UNL     1      18.864  37.104  50.421  1.00  0.00    -0.346 N
HETATM   16  C9  UNL     1      18.462  36.032  49.497  1.00  0.00     0.131 C
HETATM   17  C8  UNL     1      19.645  35.209  49.035  1.00  0.00     0.061 C
HETATM   18  C7  UNL     1      20.689  36.022  48.382  1.00  0.00    -0.028 A
HETATM   19  C2  UNL     1      21.104  35.362  47.235  1.00  0.00    -0.052 A
HETATM   20  C6  UNL     1      21.229  37.223  48.756  1.00  0.00     0.018 A
HETATM   21  C1  UNL     1      20.556  34.081  46.808  1.00  0.00     0.049 C
HETATM   22  C3  UNL     1      22.091  35.979  46.485  1.00  0.00     0.034 A
HETATM   23  C4  UNL     1      22.617  37.191  46.884  1.00  0.00     0.033 A
HETATM   24  N1  UNL     1      22.193  37.801  48.000  1.00  0.00    -0.361 N
ATOM     25  H1  UNL     1      22.595  38.695  48.279  1.00  0.00     0.165 HD
HETATM   26  C24 UNL     1      20.941  38.114  49.941  1.00  0.00     0.077 C
HETATM   27  C23 UNL     1      20.182  37.233  50.939  1.00  0.00     0.132 C
BRANCH  23  28
HETATM   28  C5  UNL     1      23.673  37.827  46.061  1.00  0.00     0.221 C
BRANCH  28  29
HETATM   29  O1  UNL     1      24.746  38.209  46.870  1.00  0.00    -0.395 OA
ATOM     30  H1  UNL     1      25.040  37.471  47.392  1.00  0.00     0.209 HD
ENDBRANCH  28  29
ENDBRANCH  23  28
ENDBRANCH  14  15
BRANCH  14  31
HETATM   31  O2  UNL     1      17.188  38.569  49.769  1.00  0.00    -0.332 OA
ATOM     32  H2  UNL     1      17.106  39.515  49.776  1.00  0.00     0.221 HD
ENDBRANCH  14  31
ENDBRANCH  12  14
ENDBRANCH   1   9
BRANCH   6  33
HETATM   33  C15 UNL     1      21.240  41.537  56.540  1.00  0.00     0.169 A
HETATM   34  N7  UNL     1      22.546  41.536  56.241  1.00  0.00    -0.274 N
HETATM   35  N8  UNL     1      23.352  42.548  56.582  1.00  0.00    -0.237 N
ATOM     36  H7  UNL     1      22.937  40.740  55.738  1.00  0.00     0.189 HD
HETATM   37  C16 UNL     1      24.667  42.743  56.384  1.00  0.00     0.056 A
HETATM   38  C21 UNL     1      22.829  43.596  57.247  1.00  0.00     0.171 A
HETATM   39  C20 UNL     1      24.963  43.962  56.950  1.00  0.00     0.117 A
HETATM   40  N9  UNL     1      23.845  44.457  57.461  1.00  0.00    -0.346 N
ATOM     41  H9  UNL     1      23.765  45.353  57.943  1.00  0.00     0.167 HD
HETATM   42  C22 UNL     1      21.479  43.635  57.575  1.00  0.00     0.147 A
HETATM   43  N10 UNL     1      21.034  44.657  58.207  1.00  0.00    -0.382 N
HETATM   44  N11 UNL     1      20.725  42.585  57.202  1.00  0.00    -0.322 N
ATOM     45 2H10 UNL     1      21.605  45.453  58.490  1.00  0.00     0.157 HD
ATOM     46 1H10 UNL     1      20.043  44.685  58.448  1.00  0.00     0.157 HD
ATOM     47  H11 UNL     1      19.731  42.586  57.430  1.00  0.00     0.169 HD
BRANCH  37  48
HETATM   48  C17 UNL     1      25.581  41.804  55.687  1.00  0.00     0.039 A
HETATM   49  C18 UNL     1      26.371  42.343  54.558  1.00  0.00     0.011 A
HETATM   50  C19 UNL     1      27.059  41.975  55.839  1.00  0.00     0.011 A
ENDBRANCH  37  48
ENDBRANCH   6  33
TORSDOF 8
ENDMDL