MODEL 3
REMARK VINA RESULT: -8.877822700      1.224      1.506
REMARK  7 active torsions:
REMARK  status: ('A' for Active; 'I' for Inactive)
REMARK       I    between atoms: C1_2  and  N3_4
REMARK       I    between atoms: N3_4  and  C2_6
REMARK    1  A    between atoms: C2_6  and  C3_8
REMARK    2  A    between atoms: C3_8  and  N4_9
REMARK    3  A    between atoms: C10_18  and  N5_19
REMARK    4  A    between atoms: N5_19  and  C11_21
REMARK    5  A    between atoms: C17_30  and  O4_31
REMARK    6  A    between atoms: N7_33  and  C18_34
REMARK    7  A    between atoms: C18_34  and  C19_35
ROOT
HETATM    1  N4  UNL     1      23.556  35.328  44.048  1.00  0.00    -0.317 N
HETATM    2  C4  UNL     1      23.227  34.042  44.623  1.00  0.00     0.154 C
HETATM    3  C5  UNL     1      22.051  33.378  43.915  1.00  0.00     0.187 C
HETATM    4  O2  UNL     1      21.474  32.500  44.858  1.00  0.00    -0.387 OA
HETATM    5  C6  UNL     1      20.239  32.947  45.297  1.00  0.00     0.193 C
HETATM    6  C7  UNL     1      20.250  33.119  46.801  1.00  0.00     0.193 C
HETATM    7  O3  UNL     1      19.329  34.031  47.246  1.00  0.00    -0.389 OA
HETATM    8  C8  UNL     1      19.628  35.340  46.978  1.00  0.00     0.169 C
HETATM    9  C9  UNL     1      20.637  35.900  47.940  1.00  0.00     0.053 C
HETATM   10  C10 UNL     1      21.208  37.208  47.500  1.00  0.00     0.109 C
HETATM   11  C22 UNL     1      22.438  36.975  46.611  1.00  0.00     0.205 C
HETATM   12  O5  UNL     1      22.009  36.769  45.298  1.00  0.00    -0.302 OA
HETATM   13  C23 UNL     1      22.743  36.486  44.187  1.00  0.00     0.363 C
HETATM   14  O6  UNL     1      22.755  37.258  43.160  1.00  0.00    -0.238 OA
ENDROOT
BRANCH  10  15
HETATM   15  N5  UNL     1      21.588  37.992  48.639  1.00  0.00    -0.369 N
ATOM     16  H5  UNL     1      22.512  38.425  48.608  1.00  0.00     0.161 HD
BRANCH  15  17
HETATM   17  C11 UNL     1      20.896  38.203  49.679  1.00  0.00     0.103 A
HETATM   18  C12 UNL     1      19.568  37.813  49.671  1.00  0.00     0.078 A
HETATM   19  C13 UNL     1      18.755  38.021  50.788  1.00  0.00     0.053 A
HETATM   20  C14 UNL     1      19.341  38.628  51.892  1.00  0.00     0.028 A
HETATM   21  N7  UNL     1      17.462  37.737  51.022  1.00  0.00    -0.325 N
HETATM   22  C15 UNL     1      20.662  39.011  51.886  1.00  0.00     0.105 A
HETATM   23  C16 UNL     1      18.317  38.706  52.839  1.00  0.00     0.076 A
HETATM   24  N6  UNL     1      21.390  38.788  50.789  1.00  0.00    -0.352 N
ATOM     25  H6  UNL     1      22.368  39.075  50.790  1.00  0.00     0.166 HD
HETATM   26  S1  UNL     1      18.515  39.408  54.466  1.00  0.00    -0.047 SA
HETATM   27  C17 UNL     1      17.186  38.151  52.272  1.00  0.00     0.161 A
BRANCH  27  28
HETATM   28  O4  UNL     1      15.964  38.055  52.924  1.00  0.00    -0.345 OA
ATOM     29  H4  UNL     1      15.189  37.664  52.537  1.00  0.00     0.219 HD
ENDBRANCH  27  28
BRANCH  21  30
HETATM   30  C18 UNL     1      16.549  37.101  50.091  1.00  0.00     0.136 C
BRANCH  30  31
HETATM   31  C19 UNL     1      16.056  38.093  49.084  1.00  0.00     0.004 A
HETATM   32  C20 UNL     1      16.219  37.619  47.630  1.00  0.00     0.007 A
HETATM   33  C21 UNL     1      14.876  37.816  48.236  1.00  0.00     0.007 A
ENDBRANCH  30  31
ENDBRANCH  21  30
ENDBRANCH  15  17
ENDBRANCH  10  15
BRANCH   1  34
HETATM   34  C3  UNL     1      24.789  35.413  43.291  1.00  0.00     0.231 C
BRANCH  34  35
HETATM   35  C2  UNL     1      24.600  35.078  41.869  1.00  0.00     0.241 C
HETATM   36  N3  UNL     1      24.515  36.116  40.912  1.00  0.00    -0.302 N
HETATM   37  C1  UNL     1      25.604  36.686  40.518  1.00  0.00     0.203 C
ATOM     38  H3  UNL     1      23.611  36.408  40.540  1.00  0.00     0.171 HD
HETATM   39  N1  UNL     1      25.516  37.721  39.563  1.00  0.00    -0.066 NA
HETATM   40  N2  UNL     1      26.891  36.321  40.999  1.00  0.00    -0.066 NA
HETATM   41  O1  UNL     1      24.511  33.893  41.481  1.00  0.00    -0.271 OA
ENDBRANCH  34  35
ENDBRANCH   1  34
TORSDOF 7
ENDMDL