MODEL 3
REMARK VINA RESULT: -10.083858809      2.038      3.062
REMARK  6 active torsions:
REMARK  status: ('A' for Active; 'I' for Inactive)
REMARK    1  A    between atoms: N2_5  and  C4_6
REMARK    2  A    between atoms: C7_9  and  N3_10
REMARK    3  A    between atoms: N3_10  and  C8_12
REMARK    4  A    between atoms: N5_16  and  C10_18
REMARK    5  A    between atoms: C15_23  and  N6_24
REMARK    6  A    between atoms: C17_29  and  C18_30
ROOT
HETATM    1  C8  UNL     1      22.145  37.461  47.525  1.00  0.00     0.685 A
HETATM    2  N4  UNL     1      20.900  36.984  47.712  1.00  0.00    -0.176 N
ATOM      3  H4  UNL     1      20.498  36.358  47.014  1.00  0.00     0.186 HD
HETATM    4  C9  UNL     1      20.167  37.314  48.800  1.00  0.00     0.133 A
HETATM    5  N5  UNL     1      19.009  36.847  48.981  1.00  0.00    -0.368 N
ATOM      6  H5  UNL     1      18.511  37.137  49.823  1.00  0.00     0.161 HD
HETATM    7  C16 UNL     1      20.690  38.160  49.752  1.00  0.00     0.076 A
HETATM    8  C17 UNL     1      19.979  38.508  50.872  1.00  0.00     0.032 A
HETATM    9  N8  UNL     1      20.657  39.344  51.721  1.00  0.00    -0.354 N
ATOM     10  H8  UNL     1      20.170  39.629  52.569  1.00  0.00     0.166 HD
HETATM   11  C23 UNL     1      21.881  39.818  51.549  1.00  0.00     0.182 A
HETATM   12  N9  UNL     1      22.557  39.473  50.458  1.00  0.00    -0.337 N
ATOM     13  H9  UNL     1      23.501  39.828  50.307  1.00  0.00     0.168 HD
HETATM   14  C24 UNL     1      21.997  38.662  49.561  1.00  0.00     0.138 A
HETATM   15  N10 UNL     1      22.658  38.282  48.449  1.00  0.00    -0.175 N
ATOM     16  H10 UNL     1      23.602  38.642  48.304  1.00  0.00     0.186 HD
ENDROOT
BRANCH   1  17
HETATM   17  N3  UNL     1      22.766  37.094  46.460  1.00  0.00    -0.190 N
ATOM     18  H3  UNL     1      23.754  36.868  46.579  1.00  0.00     0.184 HD
BRANCH  17  19
HETATM   19  C7  UNL     1      22.271  36.964  45.169  1.00  0.00     0.064 A
HETATM   20  C6  UNL     1      23.125  36.652  44.135  1.00  0.00     0.035 A
HETATM   21  C5  UNL     1      22.653  36.509  42.824  1.00  0.00     0.052 A
HETATM   22  C4  UNL     1      21.318  36.680  42.547  1.00  0.00     0.122 A
HETATM   23  N11 UNL     1      20.513  36.984  43.581  1.00  0.00    -0.349 N
HETATM   24  C25 UNL     1      20.933  37.128  44.848  1.00  0.00     0.119 A
ATOM     25  H11 UNL     1      19.520  37.113  43.390  1.00  0.00     0.167 HD
BRANCH  22  26
HETATM   26  N2  UNL     1      20.775  36.550  41.236  1.00  0.00    -0.273 N
HETATM   27  C3  UNL     1      21.659  36.259  40.124  1.00  0.00     0.170 C
HETATM   28  C2  UNL     1      21.112  35.230  39.186  1.00  0.00     0.147 C
HETATM   29  N1  UNL     1      19.718  34.914  39.427  1.00  0.00    -0.357 N
HETATM   30  C1  UNL     1      19.160  33.608  39.041  1.00  0.00     0.152 C
HETATM   31  C26 UNL     1      18.891  35.893  40.050  1.00  0.00     0.205 C
HETATM   32  N12 UNL     1      19.424  36.686  40.933  1.00  0.00    -0.270 N
HETATM   33  N13 UNL     1      17.522  35.966  39.686  1.00  0.00    -0.062 NA
ATOM     34  H12 UNL     1      18.860  37.397  41.397  1.00  0.00     0.190 HD
ENDBRANCH  22  26
ENDBRANCH  17  19
ENDBRANCH   1  17
BRANCH   5  35
HETATM   35  C10 UNL     1      18.345  35.950  48.104  1.00  0.00     0.113 C
HETATM   36  C11 UNL     1      17.223  36.559  47.301  1.00  0.00     0.027 C
HETATM   37  C12 UNL     1      15.868  36.396  47.936  1.00  0.00     0.002 C
HETATM   38  C13 UNL     1      15.468  34.967  48.152  1.00  0.00     0.002 C
HETATM   39  C14 UNL     1      16.695  34.048  48.094  1.00  0.00     0.035 C
HETATM   40  C15 UNL     1      17.782  34.747  48.839  1.00  0.00     0.206 C
BRANCH  40  41
HETATM   41  N6  UNL     1      18.808  33.794  49.192  1.00  0.00    -0.073 N
ATOM     42  H63 UNL     1      19.235  34.027  50.088  1.00  0.00     0.274 HD
ATOM     43  H62 UNL     1      18.404  32.890  49.435  1.00  0.00     0.274 HD
ATOM     44  H61 UNL     1      19.513  33.699  48.461  1.00  0.00     0.274 HD
ENDBRANCH  40  41
ENDBRANCH   5  35
BRANCH   8  45
HETATM   45  C18 UNL     1      18.610  38.085  51.123  1.00  0.00     0.040 C
HETATM   46  C19 UNL     1      18.810  37.132  52.365  1.00  0.00     0.038 C
HETATM   47  C20 UNL     1      18.844  37.861  53.642  1.00  0.00     0.233 C
HETATM   48  N7  UNL     1      17.439  38.098  54.030  1.00  0.00    -0.075 N
HETATM   49  C21 UNL     1      16.787  38.399  52.781  1.00  0.00     0.233 C
ATOM     50  H72 UNL     1      17.012  37.335  54.555  1.00  0.00     0.277 HD
ATOM     51  H71 UNL     1      17.316  38.808  54.752  1.00  0.00     0.277 HD
HETATM   52  C22 UNL     1      17.730  39.109  51.811  1.00  0.00     0.038 C
ENDBRANCH   8  45
TORSDOF 6
ENDMDL