MODEL 1
REMARK VINA RESULT: -10.336059280      0.000      0.000
REMARK  5 active torsions:
REMARK  status: ('A' for Active; 'I' for Inactive)
REMARK    1  A    between atoms: C4_4  and  N1_5
REMARK    2  A    between atoms: C10_13  and  N3_14
REMARK    3  A    between atoms: C15_23  and  C16_24
REMARK    4  A    between atoms: C16_24  and  N7_30
REMARK    5  A    between atoms: N5_25  and  N6_27
ROOT
HETATM    1  C16 UNL     1      19.872  36.843  46.997  1.00  0.00     0.128 C
HETATM    2  N5  UNL     1      18.969  37.643  46.568  1.00  0.00    -0.291 N
ATOM      3  H5  UNL     1      19.285  38.612  46.537  1.00  0.00     0.188 HD
ENDROOT
BRANCH   1   4
HETATM    4  C15 UNL     1      21.143  37.418  47.355  1.00  0.00     0.015 A
HETATM    5  C2  UNL     1      21.387  37.905  48.618  1.00  0.00    -0.046 A
HETATM    6  C1  UNL     1      20.368  37.906  49.697  1.00  0.00     0.049 C
HETATM    7  C3  UNL     1      22.667  38.431  48.847  1.00  0.00     0.039 A
HETATM    8  C4  UNL     1      23.644  38.472  47.879  1.00  0.00     0.058 A
HETATM    9  C13 UNL     1      23.339  37.970  46.634  1.00  0.00     0.032 A
HETATM   10  C14 UNL     1      22.110  37.441  46.341  1.00  0.00     0.018 A
BRANCH   8  11
HETATM   11  N1  UNL     1      24.938  39.022  48.134  1.00  0.00    -0.250 N
HETATM   12  C5  UNL     1      25.482  39.228  49.344  1.00  0.00     0.208 A
HETATM   13  N2  UNL     1      26.707  39.755  49.183  1.00  0.00    -0.335 N
HETATM   14  C6  UNL     1      26.953  39.889  47.854  1.00  0.00     0.131 A
ATOM     15  H2  UNL     1      27.347  40.011  49.935  1.00  0.00     0.168 HD
HETATM   16  C7  UNL     1      28.157  40.414  47.248  1.00  0.00     0.009 A
HETATM   17  N4  UNL     1      25.836  39.425  47.249  1.00  0.00    -0.277 N
HETATM   18  C8  UNL     1      28.249  40.488  45.883  1.00  0.00     0.018 A
HETATM   19  C12 UNL     1      29.194  40.828  48.043  1.00  0.00     0.018 A
HETATM   20  C9  UNL     1      29.411  40.990  45.306  1.00  0.00     0.037 A
HETATM   21  C10 UNL     1      30.463  41.410  46.086  1.00  0.00     0.102 A
HETATM   22  C11 UNL     1      30.361  41.332  47.455  1.00  0.00     0.037 A
ATOM     23  H4  UNL     1      25.703  39.391  46.238  1.00  0.00     0.189 HD
BRANCH  21  24
HETATM   24  N3  UNL     1      31.648  41.920  45.500  1.00  0.00    -0.116 N
HETATM   25  O1  UNL     1      32.180  41.389  44.517  1.00  0.00    -0.532 OA
HETATM   26  O2  UNL     1      32.233  43.042  46.031  1.00  0.00    -0.532 OA
ENDBRANCH  21  24
ENDBRANCH   8  11
ENDBRANCH   1   4
BRANCH   1  27
HETATM   27  N7  UNL     1      19.513  35.494  47.011  1.00  0.00    -0.362 N
HETATM   28  C17 UNL     1      19.857  34.667  45.884  1.00  0.00     0.152 C
HETATM   29  C18 UNL     1      20.335  33.298  46.184  1.00  0.00     0.252 C
HETATM   30  N8  UNL     1      20.437  32.482  44.992  1.00  0.00    -0.072 N
HETATM   31  C19 UNL     1      19.275  31.681  44.728  1.00  0.00     0.259 C
ATOM     32  H82 UNL     1      20.664  33.059  44.182  1.00  0.00     0.277 HD
ATOM     33  H81 UNL     1      21.272  31.897  45.029  1.00  0.00     0.277 HD
HETATM   34  C20 UNL     1      19.391  30.348  45.431  1.00  0.00     0.259 C
HETATM   35  N9  UNL     1      18.226  30.117  46.247  1.00  0.00    -0.072 N
HETATM   36  C21 UNL     1      17.025  30.028  45.436  1.00  0.00     0.259 C
ATOM     37  H92 UNL     1      18.341  29.295  46.840  1.00  0.00     0.277 HD
ATOM     38  H91 UNL     1      18.133  30.823  46.978  1.00  0.00     0.277 HD
HETATM   39  C22 UNL     1      15.818  30.574  46.166  1.00  0.00     0.259 C
HETATM   40  N10 UNL     1      16.231  30.942  47.505  1.00  0.00    -0.072 N
HETATM   41  C23 UNL     1      15.302  31.842  48.146  1.00  0.00     0.259 C
ATOM     42 2H10 UNL     1      16.393  30.114  48.078  1.00  0.00     0.277 HD
ATOM     43 1H10 UNL     1      17.175  31.329  47.503  1.00  0.00     0.277 HD
HETATM   44  C24 UNL     1      15.982  32.864  49.025  1.00  0.00     0.259 C
HETATM   45  N11 UNL     1      17.356  33.088  48.690  1.00  0.00    -0.072 N
HETATM   46  C25 UNL     1      17.532  34.193  47.733  1.00  0.00     0.252 C
ATOM     47 2H11 UNL     1      17.918  33.236  49.528  1.00  0.00     0.277 HD
ATOM     48 1H11 UNL     1      17.794  32.233  48.347  1.00  0.00     0.277 HD
HETATM   49  C26 UNL     1      18.795  34.898  48.101  1.00  0.00     0.152 C
ENDBRANCH   1  27
BRANCH   2  50
HETATM   50  N6  UNL     1      17.707  37.502  46.152  1.00  0.00    -0.344 N
ATOM     51  H62 UNL     1      17.050  37.571  46.930  1.00  0.00     0.176 HD
ATOM     52  H61 UNL     1      17.262  37.343  45.248  1.00  0.00     0.176 HD
ENDBRANCH   2  50
TORSDOF 5
ENDMDL