MODEL 2
REMARK VINA RESULT: -9.187342917      4.645     12.544
REMARK  9 active torsions:
REMARK  status: ('A' for Active; 'I' for Inactive)
REMARK    1  A    between atoms: N1_1  and  C1_5
REMARK    2  A    between atoms: C3_7  and  O1_8
REMARK    3  A    between atoms: C4_10  and  N2_11
REMARK    4  A    between atoms: C7_16  and  N4_17
REMARK    5  A    between atoms: N4_17  and  C8_19
REMARK    6  A    between atoms: C11_22  and  N5_23
REMARK    7  A    between atoms: N6_26  and  C14_27
REMARK    8  A    between atoms: C26_43  and  O2_44
REMARK    9  A    between atoms: C27_46  and  O3_47
ROOT
HETATM    1  N2  UNL     1      22.334  35.830  44.389  1.00  0.00    -0.317 N
HETATM    2  C5  UNL     1      22.969  36.573  45.314  1.00  0.00     0.185 A
HETATM    3  N3  UNL     1      22.356  36.471  46.522  1.00  0.00    -0.346 N
ATOM      4  H3  UNL     1      22.636  36.934  47.387  1.00  0.00     0.167 HD
HETATM    5  C6  UNL     1      21.326  35.657  46.358  1.00  0.00     0.122 A
HETATM    6  C7  UNL     1      20.361  35.218  47.302  1.00  0.00     0.133 A
HETATM    7  N7  UNL     1      19.444  34.385  46.782  1.00  0.00    -0.337 N
ATOM      8  H7  UNL     1      18.718  34.028  47.404  1.00  0.00     0.168 HD
HETATM    9  C24 UNL     1      19.421  33.988  45.489  1.00  0.00     0.183 A
HETATM   10  N8  UNL     1      20.342  34.417  44.617  1.00  0.00    -0.336 N
ATOM     11  H8  UNL     1      20.320  34.117  43.642  1.00  0.00     0.168 HD
HETATM   12  C25 UNL     1      21.290  35.249  45.058  1.00  0.00     0.141 A
ENDROOT
BRANCH   6  13
HETATM   13  N4  UNL     1      20.435  35.621  48.475  1.00  0.00    -0.370 N
ATOM     14  H4  UNL     1      21.340  35.316  48.833  1.00  0.00     0.161 HD
BRANCH  13  15
HETATM   15  C8  UNL     1      19.820  36.295  49.486  1.00  0.00     0.083 C
HETATM   16  C9  UNL     1      19.571  35.390  50.713  1.00  0.00     0.027 C
HETATM   17  C10 UNL     1      19.666  36.169  51.995  1.00  0.00     0.038 C
HETATM   18  C11 UNL     1      19.061  37.534  51.945  1.00  0.00     0.223 C
HETATM   19  C22 UNL     1      19.528  38.344  50.740  1.00  0.00     0.038 C
HETATM   20  C23 UNL     1      20.547  37.543  49.923  1.00  0.00     0.027 C
BRANCH  18  21
HETATM   21  N5  UNL     1      19.454  38.272  53.129  1.00  0.00     0.096 N
HETATM   22  C12 UNL     1      19.659  39.676  52.876  1.00  0.00     0.303 C
HETATM   23  C13 UNL     1      20.401  40.249  54.071  1.00  0.00     0.303 C
HETATM   24  N6  UNL     1      19.523  40.071  55.238  1.00  0.00     0.096 N
HETATM   25  C20 UNL     1      19.286  38.688  55.478  1.00  0.00     0.303 C
HETATM   26  C21 UNL     1      18.584  38.106  54.245  1.00  0.00     0.303 C
BRANCH  24  27
HETATM   27  C14 UNL     1      20.134  40.769  56.336  1.00  0.00     0.223 C
HETATM   28  C15 UNL     1      19.350  41.890  56.911  1.00  0.00     0.036 C
HETATM   29  C16 UNL     1      20.119  43.206  56.731  1.00  0.00     0.002 C
HETATM   30  C17 UNL     1      21.402  43.069  57.512  1.00  0.00     0.000 C
HETATM   31  C18 UNL     1      22.175  41.826  57.116  1.00  0.00     0.002 C
HETATM   32  C19 UNL     1      21.502  41.243  55.892  1.00  0.00     0.036 C
ENDBRANCH  24  27
ENDBRANCH  18  21
ENDBRANCH  13  15
ENDBRANCH   6  13
BRANCH   1  33
HETATM   33  C4  UNL     1      22.673  35.677  42.988  1.00  0.00     0.152 C
HETATM   34  C3  UNL     1      21.730  36.360  42.054  1.00  0.00     0.146 C
HETATM   35  C2  UNL     1      21.915  35.777  40.661  1.00  0.00     0.069 C
HETATM   36  C1  UNL     1      23.360  35.352  40.465  1.00  0.00     0.217 C
HETATM   37  C27 UNL     1      23.727  34.182  41.341  1.00  0.00     0.179 C
HETATM   38  C26 UNL     1      22.955  34.233  42.637  1.00  0.00     0.174 C
BRANCH  34  39
HETATM   39  O1  UNL     1      20.414  36.378  42.443  1.00  0.00    -0.393 OA
ATOM     40  H1  UNL     1      19.938  35.612  42.145  1.00  0.00     0.210 HD
ENDBRANCH  34  39
BRANCH  36  41
HETATM   41  N1  UNL     1      23.558  35.000  39.065  1.00  0.00    -0.072 N
ATOM     42  H13 UNL     1      22.912  35.488  38.445  1.00  0.00     0.274 HD
ATOM     43  H12 UNL     1      24.427  35.376  38.687  1.00  0.00     0.274 HD
ATOM     44  H11 UNL     1      23.497  33.986  38.971  1.00  0.00     0.274 HD
ENDBRANCH  36  41
BRANCH  37  45
HETATM   45  O3  UNL     1      25.084  34.167  41.659  1.00  0.00    -0.391 OA
ATOM     46  H3  UNL     1      25.326  34.884  42.233  1.00  0.00     0.210 HD
ENDBRANCH  37  45
BRANCH  38  47
HETATM   47  O2  UNL     1      21.847  33.434  42.572  1.00  0.00    -0.391 OA
ATOM     48  H2  UNL     1      21.299  33.575  41.808  1.00  0.00     0.210 HD
ENDBRANCH  38  47
ENDBRANCH   1  33
TORSDOF 9
ENDMDL