MODEL 3
REMARK VINA RESULT: -8.915080199      0.956      1.446
REMARK  9 active torsions:
REMARK  status: ('A' for Active; 'I' for Inactive)
REMARK    1  A    between atoms: C3_5  and  C4_6
REMARK    2  A    between atoms: C4_6  and  O1_9
REMARK    3  A    between atoms: C7_12  and  N3_13
REMARK       I    between atoms: N3_13  and  C8_15
REMARK    4  A    between atoms: C8_15  and  C9_17
REMARK    5  A    between atoms: N5_23  and  C12_24
REMARK    6  A    between atoms: C13_27  and  N7_28
REMARK    7  A    between atoms: N7_28  and  C14_30
REMARK    8  A    between atoms: C18_36  and  N9_37
REMARK    9  A    between atoms: N9_37  and  C19_39
ROOT
HETATM    1  C9  UNL     1      18.807  36.343  50.751  1.00  0.00     0.393 C
HETATM    2  N4  UNL     1      18.027  35.052  50.573  1.00  0.00    -0.043 N
ATOM      3  H41 UNL     1      17.965  34.634  49.644  1.00  0.00     0.280 HD
ATOM      4  H42 UNL     1      17.010  35.071  50.653  1.00  0.00     0.280 HD
HETATM    5  C10 UNL     1      18.833  34.355  51.637  1.00  0.00     0.255 C
HETATM    6  C11 UNL     1      18.468  35.295  52.717  1.00  0.00     0.171 C
HETATM    7  N5  UNL     1      18.345  36.670  51.984  1.00  0.00    -0.176 N
ENDROOT
BRANCH   7   8
HETATM    8  C12 UNL     1      17.941  37.660  52.909  1.00  0.00     0.711 A
HETATM    9  N6  UNL     1      18.701  38.562  53.493  1.00  0.00    -0.021 N
HETATM   10  C13 UNL     1      18.297  39.439  54.479  1.00  0.00     0.707 A
ATOM     11  H6  UNL     1      19.673  38.618  53.191  1.00  0.00     0.203 HD
HETATM   12  N8  UNL     1      17.022  39.355  54.884  1.00  0.00    -0.021 N
HETATM   13  C18 UNL     1      16.156  38.433  54.332  1.00  0.00     0.707 A
ATOM     14  H8  UNL     1      16.686  39.984  55.614  1.00  0.00     0.203 HD
HETATM   15  N10 UNL     1      16.639  37.631  53.368  1.00  0.00    -0.021 N
ATOM     16  H10 UNL     1      16.001  36.956  52.947  1.00  0.00     0.203 HD
BRANCH  10  17
HETATM   17  N7  UNL     1      19.193  40.128  54.955  1.00  0.00    -0.217 N
ATOM     18  H7  UNL     1      19.508  40.792  54.247  1.00  0.00     0.178 HD
BRANCH  17  19
HETATM   19  C14 UNL     1      19.927  40.325  56.107  1.00  0.00     0.036 C
HETATM   20  C15 UNL     1      19.838  39.013  56.982  1.00  0.00     0.038 C
HETATM   21  C16 UNL     1      19.515  41.465  56.972  1.00  0.00     0.038 C
HETATM   22  C17 UNL     1      21.407  40.517  55.789  1.00  0.00     0.038 C
ENDBRANCH  17  19
ENDBRANCH  10  17
BRANCH  13  23
HETATM   23  N9  UNL     1      14.988  38.313  54.831  1.00  0.00    -0.220 N
ATOM     24  H9  UNL     1      14.801  39.085  55.470  1.00  0.00     0.178 HD
BRANCH  23  25
HETATM   25  C19 UNL     1      13.927  37.493  54.782  1.00  0.00     0.103 C
HETATM   26  C20 UNL     1      14.288  36.299  55.797  1.00  0.00     0.052 C
HETATM   27  C21 UNL     1      13.451  35.111  55.365  1.00  0.00     0.169 C
HETATM   28  O3  UNL     1      12.113  35.434  55.452  1.00  0.00    -0.391 OA
HETATM   29  C22 UNL     1      11.690  36.542  54.799  1.00  0.00     0.169 C
HETATM   30  C23 UNL     1      12.528  37.784  55.090  1.00  0.00     0.052 C
ENDBRANCH  23  25
ENDBRANCH  13  23
ENDBRANCH   7   8
BRANCH   1  31
HETATM   31  C8  UNL     1      17.966  37.193  49.467  1.00  0.00     0.274 C
HETATM   32  N3  UNL     1      18.926  38.137  49.409  1.00  0.00    -0.304 N
ATOM     33  H3  UNL     1      18.903  38.987  49.973  1.00  0.00     0.171 HD
HETATM   34  O2  UNL     1      17.130  36.364  49.522  1.00  0.00    -0.269 OA
BRANCH  32  35
HETATM   35  C7  UNL     1      19.928  37.859  48.535  1.00  0.00     0.155 A
HETATM   36  N1  UNL     1      21.220  38.087  48.557  1.00  0.00    -0.319 N
HETATM   37  C1  UNL     1      21.824  38.688  49.777  1.00  0.00     0.159 C
HETATM   38  C2  UNL     1      21.946  37.773  47.516  1.00  0.00     0.136 A
HETATM   39  N2  UNL     1      23.413  37.868  47.517  1.00  0.00    -0.081 NA
HETATM   40  C3  UNL     1      21.311  37.204  46.408  1.00  0.00     0.061 A
HETATM   41  S1  UNL     1      19.686  37.180  47.001  1.00  0.00    -0.052 SA
BRANCH  40  42
HETATM   42  C4  UNL     1      21.865  36.662  45.143  1.00  0.00     0.087 C
HETATM   43  C5  UNL     1      20.618  36.810  44.155  1.00  0.00     0.051 C
HETATM   44  C6  UNL     1      22.107  35.211  45.168  1.00  0.00     0.051 C
BRANCH  42  45
HETATM   45  O1  UNL     1      22.853  37.481  44.624  1.00  0.00    -0.385 OA
ATOM     46  H1  UNL     1      22.619  37.816  43.766  1.00  0.00     0.211 HD
ENDBRANCH  42  45
ENDBRANCH  40  42
ENDBRANCH  32  35
ENDBRANCH   1  31
TORSDOF 9
ENDMDL