MODEL 2
REMARK VINA RESULT: -10.538888241      3.550      6.831
REMARK  6 active torsions:
REMARK  status: ('A' for Active; 'I' for Inactive)
REMARK    1  A    between atoms: C4_7  and  C5_8
REMARK    2  A    between atoms: N6_22  and  C13_24
REMARK    3  A    between atoms: C14_27  and  N8_28
REMARK    4  A    between atoms: N8_28  and  C15_30
REMARK    5  A    between atoms: C20_36  and  N9_37
REMARK    6  A    between atoms: C25_45  and  N11_46
ROOT
HETATM    1  N1  UNL     1      17.287  39.381  52.887  1.00  0.00    -0.191 NA
HETATM    2  C1  UNL     1      17.992  39.037  52.053  1.00  0.00     0.104 C
HETATM    3  C2  UNL     1      18.867  38.604  51.000  1.00  0.00     0.104 A
HETATM    4  C3  UNL     1      18.336  37.834  49.965  1.00  0.00     0.116 A
HETATM    5  N2  UNL     1      19.156  37.430  48.977  1.00  0.00    -0.349 N
ATOM      6  H2  UNL     1      18.781  36.868  48.213  1.00  0.00     0.167 HD
HETATM    7  C4  UNL     1      20.461  37.756  48.979  1.00  0.00     0.134 A
HETATM    8  N5  UNL     1      20.969  38.501  49.983  1.00  0.00    -0.325 N
ATOM      9  H5  UNL     1      21.960  38.740  49.973  1.00  0.00     0.169 HD
HETATM   10  C12 UNL     1      20.204  38.932  50.991  1.00  0.00     0.144 A
HETATM   11  N6  UNL     1      20.646  39.649  51.962  1.00  0.00    -0.174 N
ATOM     12  H6  UNL     1      19.998  39.945  52.691  1.00  0.00     0.186 HD
ENDROOT
BRANCH  11  13
HETATM   13  C13 UNL     1      22.017  40.047  52.050  1.00  0.00     0.713 A
HETATM   14  N7  UNL     1      22.498  40.265  53.310  1.00  0.00    -0.021 N
HETATM   15  C14 UNL     1      23.760  40.644  53.500  1.00  0.00     0.707 A
ATOM     16  H7  UNL     1      21.884  40.135  54.115  1.00  0.00     0.203 HD
HETATM   17  N10 UNL     1      24.570  40.812  52.415  1.00  0.00    -0.022 N
HETATM   18  C25 UNL     1      24.103  40.599  51.183  1.00  0.00     0.705 A
ATOM     19  H10 UNL     1      25.539  41.102  52.547  1.00  0.00     0.203 HD
HETATM   20  N12 UNL     1      22.818  40.213  50.982  1.00  0.00    -0.021 N
ATOM     21  H12 UNL     1      22.465  40.053  50.039  1.00  0.00     0.203 HD
BRANCH  15  22
HETATM   22  N8  UNL     1      24.328  40.891  54.616  1.00  0.00    -0.218 N
ATOM     23  H8  UNL     1      25.089  40.262  54.869  1.00  0.00     0.178 HD
BRANCH  22  24
HETATM   24  C15 UNL     1      24.045  41.924  55.557  1.00  0.00     0.124 C
HETATM   25  C16 UNL     1      23.092  41.375  56.606  1.00  0.00     0.054 C
HETATM   26  C17 UNL     1      22.053  42.407  56.992  1.00  0.00     0.169 C
HETATM   27  O1  UNL     1      22.611  43.210  57.974  1.00  0.00    -0.391 OA
HETATM   28  C18 UNL     1      23.649  43.928  57.432  1.00  0.00     0.169 C
HETATM   29  C19 UNL     1      24.974  43.200  57.431  1.00  0.00     0.053 C
HETATM   30  C20 UNL     1      25.283  42.530  56.105  1.00  0.00     0.108 C
BRANCH  30  31
HETATM   31  N9  UNL     1      25.991  43.304  55.207  1.00  0.00    -0.383 N
HETATM   32  C21 UNL     1      27.400  43.280  55.109  1.00  0.00     0.148 C
HETATM   33  C22 UNL     1      27.799  42.696  53.742  1.00  0.00     0.187 C
HETATM   34  O2  UNL     1      26.722  42.608  52.897  1.00  0.00    -0.385 OA
HETATM   35  C23 UNL     1      25.920  43.749  52.872  1.00  0.00     0.212 C
HETATM   36  C24 UNL     1      25.391  44.126  54.247  1.00  0.00     0.084 C
ENDBRANCH  30  31
ENDBRANCH  22  24
ENDBRANCH  15  22
BRANCH  18  37
HETATM   37  N11 UNL     1      24.848  40.755  50.153  1.00  0.00    -0.234 N
ATOM     38 2H11 UNL     1      24.960  41.699  49.784  1.00  0.00     0.174 HD
ATOM     39 1H11 UNL     1      25.319  39.962  49.716  1.00  0.00     0.174 HD
ENDBRANCH  18  37
ENDBRANCH  11  13
BRANCH   7  40
HETATM   40  C5  UNL     1      21.299  37.298  47.881  1.00  0.00     0.079 A
HETATM   41  C6  UNL     1      21.123  36.166  47.138  1.00  0.00     0.065 A
HETATM   42  C7  UNL     1      22.147  36.102  46.191  1.00  0.00     0.061 A
HETATM   43  N3  UNL     1      22.460  35.215  45.216  1.00  0.00    -0.364 N
HETATM   44  C11 UNL     1      22.924  37.218  46.395  1.00  0.00     0.059 A
HETATM   45  C8  UNL     1      23.535  35.413  44.434  1.00  0.00     0.088 A
ATOM     46  H3  UNL     1      21.875  34.392  45.074  1.00  0.00     0.165 HD
HETATM   47  C9  UNL     1      24.347  36.507  44.592  1.00  0.00     0.019 A
HETATM   48  C10 UNL     1      24.024  37.428  45.601  1.00  0.00     0.033 A
HETATM   49  N4  UNL     1      22.407  37.935  47.413  1.00  0.00    -0.351 N
ATOM     50  H4  UNL     1      22.785  38.810  47.774  1.00  0.00     0.166 HD
ENDBRANCH   7  40
TORSDOF 6
ENDMDL