MODEL 3
REMARK VINA RESULT: -8.425573013      2.877      5.052
REMARK  8 active torsions:
REMARK  status: ('A' for Active; 'I' for Inactive)
REMARK    1  A    between atoms: N3_19  and  C16_20
REMARK    2  A    between atoms: C19_24  and  O2_25
REMARK    3  A    between atoms: O2_25  and  C20_26
REMARK    4  A    between atoms: C21_28  and  C22_29
REMARK    5  A    between atoms: C22_29  and  O4_30
REMARK    6  A    between atoms: C23_32  and  O5_33
REMARK    7  A    between atoms: C24_35  and  O6_36
REMARK    8  A    between atoms: C25_38  and  O7_39
ROOT
HETATM    1  C1  UNL     1      20.380  37.143  50.922  1.00  0.00     0.309 C
HETATM    2  N1  UNL     1      20.447  37.002  49.489  1.00  0.00     0.085 N
HETATM    3  C2  UNL     1      21.754  37.446  49.053  1.00  0.00     0.272 C
HETATM    4  C3  UNL     1      21.729  37.978  47.639  1.00  0.00     0.030 C
HETATM    5  C4  UNL     1      22.228  36.929  46.696  1.00  0.00     0.002 C
HETATM    6  C5  UNL     1      23.384  37.364  45.856  1.00  0.00     0.012 C
HETATM    7  C6  UNL     1      22.973  37.544  44.408  1.00  0.00     0.094 C
HETATM    8  C7  UNL     1      22.561  36.371  43.761  1.00  0.00    -0.102 C
HETATM    9  C8  UNL     1      22.228  35.425  43.265  1.00  0.00    -0.079 C
HETATM   10  C9  UNL     1      21.812  34.241  42.676  1.00  0.00     0.062 C
HETATM   11  C10 UNL     1      21.512  33.115  43.304  1.00  0.00     0.001 C
HETATM   12  C11 UNL     1      21.572  32.923  44.752  1.00  0.00     0.142 C
HETATM   13  N2  UNL     1      20.641  33.684  45.510  1.00  0.00    -0.418 N
ATOM     14  H2  UNL     1      20.946  34.363  46.207  1.00  0.00     0.153 HD
HETATM   15  C12 UNL     1      19.267  33.450  45.247  1.00  0.00     0.114 C
HETATM   16  C13 UNL     1      18.380  34.634  45.533  1.00  0.00     0.024 C
HETATM   17  C14 UNL     1      17.186  34.297  46.383  1.00  0.00     0.046 C
HETATM   18  C15 UNL     1      17.599  34.041  47.825  1.00  0.00     0.061 C
HETATM   19  N3  UNL     1      17.886  35.169  48.590  1.00  0.00    -0.364 N
HETATM   20  C26 UNL     1      18.985  35.018  49.524  1.00  0.00     0.154 C
HETATM   21  C27 UNL     1      20.261  35.628  49.049  1.00  0.00     0.291 C
ENDROOT
BRANCH  19  22
HETATM   22  C16 UNL     1      17.027  36.210  48.818  1.00  0.00     0.251 C
HETATM   23  O1  UNL     1      15.686  36.063  48.463  1.00  0.00    -0.364 OA
HETATM   24  C17 UNL     1      15.231  37.377  48.564  1.00  0.00     0.173 C
HETATM   25  C18 UNL     1      15.998  38.038  49.703  1.00  0.00     0.063 C
HETATM   26  C19 UNL     1      16.892  36.852  50.151  1.00  0.00     0.175 C
BRANCH  26  27
HETATM   27  O2  UNL     1      16.160  36.227  51.104  1.00  0.00    -0.349 OA
BRANCH  27  28
HETATM   28  C20 UNL     1      16.750  36.108  52.341  1.00  0.00     0.292 C
HETATM   29  O3  UNL     1      17.696  35.128  52.325  1.00  0.00    -0.348 OA
HETATM   30  C21 UNL     1      17.463  33.990  53.033  1.00  0.00     0.179 C
HETATM   31  C23 UNL     1      16.973  34.155  54.432  1.00  0.00     0.180 C
HETATM   32  C24 UNL     1      16.593  35.581  54.700  1.00  0.00     0.183 C
HETATM   33  C25 UNL     1      15.770  36.029  53.482  1.00  0.00     0.204 C
BRANCH  30  34
HETATM   34  C22 UNL     1      16.583  32.977  52.320  1.00  0.00     0.198 C
BRANCH  34  35
HETATM   35  O4  UNL     1      16.912  31.672  52.682  1.00  0.00    -0.398 OA
ATOM     36  H4  UNL     1      16.864  31.082  51.939  1.00  0.00     0.209 HD
ENDBRANCH  34  35
ENDBRANCH  30  34
BRANCH  31  37
HETATM   37  O5  UNL     1      15.809  33.383  54.656  1.00  0.00    -0.390 OA
ATOM     38  H5  UNL     1      16.009  32.455  54.644  1.00  0.00     0.210 HD
ENDBRANCH  31  37
BRANCH  32  39
HETATM   39  O6  UNL     1      15.773  35.644  55.798  1.00  0.00    -0.390 OA
ATOM     40  H6  UNL     1      15.556  36.550  55.986  1.00  0.00     0.210 HD
ENDBRANCH  32  39
BRANCH  33  41
HETATM   41  O7  UNL     1      15.266  37.286  53.842  1.00  0.00    -0.388 OA
ATOM     42  H7  UNL     1      14.338  37.370  53.660  1.00  0.00     0.210 HD
ENDBRANCH  33  41
ENDBRANCH  27  28
ENDBRANCH  26  27
ENDBRANCH  19  22
TORSDOF 8
ENDMDL