MODEL 4
REMARK VINA RESULT: -8.072934952      2.556      4.962
REMARK  8 active torsions:
REMARK  status: ('A' for Active; 'I' for Inactive)
REMARK    1  A    between atoms: C1_2  and  C2_3
REMARK       I    between atoms: C1_2  and  N1_11
REMARK    2  A    between atoms: C10_14  and  N2_15
REMARK    3  A    between atoms: N2_15  and  C11_17
REMARK    4  A    between atoms: C13_19  and  O2_20
REMARK    5  A    between atoms: O2_20  and  C14_21
REMARK    6  A    between atoms: C17_26  and  O3_27
REMARK    7  A    between atoms: O3_27  and  C18_28
REMARK    8  A    between atoms: C18_28  and  C19_29
ROOT
HETATM    1  N2  UNL     1      61.022  40.968  22.522  1.00  0.00    -0.381 N
ATOM      2  H2  UNL     1      60.968  41.984  22.604  1.00  0.00     0.160 HD
ENDROOT
BRANCH   1   3
HETATM    3  C10 UNL     1      60.480  40.336  21.362  1.00  0.00     0.101 C
HETATM    4  C9  UNL     1      61.615  40.054  20.390  1.00  0.00     0.046 C
HETATM    5  C8  UNL     1      62.048  41.461  20.039  1.00  0.00     0.128 C
HETATM    6  N1  UNL     1      60.827  42.218  20.073  1.00  0.00    -0.346 N
HETATM    7  C1  UNL     1      60.653  43.571  19.722  1.00  0.00     0.255 C
HETATM    8  C20 UNL     1      59.716  41.385  20.541  1.00  0.00     0.151 C
HETATM    9  O1  UNL     1      59.558  44.173  19.775  1.00  0.00    -0.267 OA
BRANCH   7  10
HETATM   10  C2  UNL     1      61.802  44.339  19.265  1.00  0.00     0.053 A
HETATM   11  C3  UNL     1      62.114  44.391  17.935  1.00  0.00     0.020 A
HETATM   12  C4  UNL     1      63.202  45.117  17.501  1.00  0.00     0.025 A
HETATM   13  C5  UNL     1      63.960  45.781  18.420  1.00  0.00     0.035 A
HETATM   14 CL1  UNL     1      65.341  46.697  17.818  1.00  0.00    -0.084 Cl
HETATM   15  C6  UNL     1      63.678  45.752  19.764  1.00  0.00     0.048 A
HETATM   16  C7  UNL     1      62.574  45.012  20.185  1.00  0.00     0.051 A
HETATM   17 CL2  UNL     1      62.178  44.949  21.893  1.00  0.00    -0.083 Cl
ENDBRANCH   7  10
ENDBRANCH   1   3
BRANCH   1  18
HETATM   18  C11 UNL     1      61.630  40.226  23.560  1.00  0.00     0.064 A
HETATM   19  C12 UNL     1      62.478  39.200  23.247  1.00  0.00     0.069 A
HETATM   20  C13 UNL     1      63.091  38.467  24.265  1.00  0.00     0.077 A
HETATM   21  C15 UNL     1      62.843  38.775  25.576  1.00  0.00     0.040 A
HETATM   22  C16 UNL     1      61.982  39.815  25.856  1.00  0.00     0.042 A
HETATM   23  C17 UNL     1      61.356  40.567  24.890  1.00  0.00     0.095 A
BRANCH  20  24
HETATM   24  O2  UNL     1      63.937  37.444  23.934  1.00  0.00    -0.290 OA
BRANCH  24  25
HETATM   25  C14 UNL     1      65.246  37.535  23.479  1.00  0.00     0.505 C
HETATM   26  F1  UNL     1      65.297  37.904  22.132  1.00  0.00    -0.184 F
HETATM   27  F2  UNL     1      65.782  36.239  23.536  1.00  0.00    -0.184 F
ENDBRANCH  24  25
ENDBRANCH  20  24
BRANCH  23  28
HETATM   28  O3  UNL     1      60.488  41.615  25.184  1.00  0.00    -0.344 OA
BRANCH  28  29
HETATM   29  C18 UNL     1      59.237  41.305  25.736  1.00  0.00     0.246 C
BRANCH  29  30
HETATM   30  C19 UNL     1      58.117  41.628  24.776  1.00  0.00     0.377 C
HETATM   31  F3  UNL     1      58.196  40.756  23.702  1.00  0.00    -0.212 F
HETATM   32  F4  UNL     1      56.897  41.422  25.391  1.00  0.00    -0.212 F
ENDBRANCH  29  30
ENDBRANCH  28  29
ENDBRANCH  23  28
ENDBRANCH   1  18
TORSDOF 8
ENDMDL