MODEL 3
REMARK VINA RESULT: -9.455279221      2.891      4.287
REMARK  9 active torsions:
REMARK  status: ('A' for Active; 'I' for Inactive)
REMARK    1  A    between atoms: C3_3  and  C4_4
REMARK    2  A    between atoms: C6_6  and  O1_7
REMARK    3  A    between atoms: O1_7  and  C7_8
REMARK    4  A    between atoms: C7_8  and  C8_9
REMARK    5  A    between atoms: C11_12  and  N1_13
REMARK    6  A    between atoms: N1_13  and  C12_15
REMARK    7  A    between atoms: C20_26  and  O3_27
REMARK    8  A    between atoms: O3_27  and  C21_28
REMARK    9  A    between atoms: C21_28  and  C22_31
ROOT
HETATM    1  O1  UNL     1      60.327  41.519  26.326  1.00  0.00    -0.351 OA
ENDROOT
BRANCH   1   2
HETATM    2  C6  UNL     1      59.017  41.490  25.803  1.00  0.00     0.072 A
HETATM    3  C5  UNL     1      57.923  41.508  26.616  1.00  0.00     0.048 A
HETATM    4  C4  UNL     1      56.584  41.480  26.154  1.00  0.00    -0.031 A
HETATM    5  C23 UNL     1      56.419  41.435  24.802  1.00  0.00     0.048 A
HETATM    6  C20 UNL     1      57.526  41.416  23.937  1.00  0.00     0.079 A
HETATM    7  C19 UNL     1      58.795  41.444  24.449  1.00  0.00     0.073 A
BRANCH   4   8
HETATM    8  C3  UNL     1      55.522  41.501  27.141  1.00  0.00     0.007 C
HETATM    9  C2  UNL     1      54.334  41.032  27.081  1.00  0.00    -0.030 C
HETATM   10  C1  UNL     1      53.593  40.318  26.047  1.00  0.00     0.036 C
ENDBRANCH   4   8
BRANCH   6  11
HETATM   11  O3  UNL     1      57.287  41.369  22.553  1.00  0.00    -0.279 OA
BRANCH  11  12
HETATM   12  C21 UNL     1      58.155  40.758  21.653  1.00  0.00     0.418 C
HETATM   13  F2  UNL     1      58.890  39.737  22.221  1.00  0.00    -0.169 F
HETATM   14  F3  UNL     1      57.357  40.154  20.673  1.00  0.00    -0.169 F
BRANCH  12  15
HETATM   15  C22 UNL     1      59.097  41.664  20.933  1.00  0.00     0.455 C
HETATM   16  F4  UNL     1      60.236  41.035  20.472  1.00  0.00    -0.205 F
HETATM   17  F5  UNL     1      59.531  42.615  21.859  1.00  0.00    -0.205 F
ENDBRANCH  12  15
ENDBRANCH  11  12
ENDBRANCH   6  11
ENDBRANCH   1   2
BRANCH   1  18
HETATM   18  C7  UNL     1      61.315  40.796  25.621  1.00  0.00     0.184 C
BRANCH  18  19
HETATM   19  C8  UNL     1      61.618  41.454  24.278  1.00  0.00     0.065 C
HETATM   20  C9  UNL     1      62.370  42.718  24.515  1.00  0.00     0.013 C
HETATM   21  C10 UNL     1      63.381  43.008  23.411  1.00  0.00     0.025 C
HETATM   22  C11 UNL     1      62.900  42.468  22.091  1.00  0.00     0.083 C
HETATM   23  C17 UNL     1      62.807  40.953  22.130  1.00  0.00     0.085 C
HETATM   24  C18 UNL     1      62.398  40.431  23.486  1.00  0.00     0.186 C
HETATM   25  F1  UNL     1      61.573  39.341  23.288  1.00  0.00    -0.225 F
HETATM   26 CL1  UNL     1      63.793  39.848  24.420  1.00  0.00    -0.082 Cl
BRANCH  22  27
HETATM   27  N1  UNL     1      63.528  43.014  21.004  1.00  0.00    -0.392 N
ATOM     28  H1  UNL     1      64.513  42.773  20.900  1.00  0.00     0.156 HD
BRANCH  27  29
HETATM   29  C12 UNL     1      63.017  43.841  20.030  1.00  0.00     0.216 C
HETATM   30  C13 UNL     1      62.084  44.887  20.569  1.00  0.00     0.053 C
HETATM   31  C14 UNL     1      61.070  45.242  19.468  1.00  0.00     0.006 C
HETATM   32  C15 UNL     1      61.834  45.221  18.142  1.00  0.00     0.026 C
HETATM   33  C16 UNL     1      62.127  43.734  17.905  1.00  0.00     0.170 C
HETATM   34  O2  UNL     1      62.217  43.072  19.131  1.00  0.00    -0.367 OA
ENDBRANCH  27  29
ENDBRANCH  22  27
ENDBRANCH  18  19
ENDBRANCH   1  18
TORSDOF 9
ENDMDL