MODEL 2
REMARK VINA RESULT: -9.860747746      1.059      1.293
REMARK  11 active torsions:
REMARK  status: ('A' for Active; 'I' for Inactive)
REMARK    1  A    between atoms: C1_2  and  C2_4
REMARK    2  A    between atoms: C2_4  and  C3_5
REMARK    3  A    between atoms: C3_5  and  C4_6
REMARK    4  A    between atoms: C4_6  and  C5_7
REMARK    5  A    between atoms: C5_7  and  C6_8
REMARK    6  A    between atoms: C6_8  and  O3_9
REMARK    7  A    between atoms: O3_9  and  C7_10
REMARK    8  A    between atoms: C11_15  and  C12_16
REMARK    9  A    between atoms: C17_21  and  C18_22
REMARK   10  A    between atoms: C19_28  and  C20_29
REMARK   11  A    between atoms: C20_29  and  C21_30
ROOT
HETATM    1  C12 UNL     1      59.202  41.345  22.996  1.00  0.00     0.023 A
HETATM    2  C13 UNL     1      58.133  41.355  22.070  1.00  0.00     0.026 A
HETATM    3  C14 UNL     1      56.865  41.402  22.548  1.00  0.00     0.004 A
HETATM    4  C15 UNL     1      56.653  41.439  23.901  1.00  0.00     0.032 A
HETATM    5  C16 UNL     1      57.714  41.429  24.777  1.00  0.00     0.072 A
HETATM    6  C17 UNL     1      57.766  41.481  26.150  1.00  0.00     0.145 A
HETATM    7  N1  UNL     1      59.021  41.464  26.480  1.00  0.00    -0.340 N
ATOM      8  H1  UNL     1      59.358  41.494  27.442  1.00  0.00     0.167 HD
HETATM    9  C19 UNL     1      59.848  41.399  25.372  1.00  0.00     0.097 A
HETATM   10  N2  UNL     1      59.014  41.380  24.326  1.00  0.00    -0.302 N
ENDROOT
BRANCH   1  11
HETATM   11  C11 UNL     1      60.572  41.333  22.403  1.00  0.00     0.041 C
HETATM   12  C10 UNL     1      60.749  39.919  21.877  1.00  0.00     0.011 C
HETATM   13  C9  UNL     1      61.151  39.845  20.459  1.00  0.00     0.006 C
HETATM   14  C8  UNL     1      62.390  40.750  20.296  1.00  0.00     0.074 C
HETATM   15  C7  UNL     1      61.808  42.151  20.343  1.00  0.00     0.205 C
HETATM   16  F1  UNL     1      61.436  42.424  19.028  1.00  0.00    -0.212 F
HETATM   17  C22 UNL     1      60.562  42.211  21.151  1.00  0.00     0.084 C
BRANCH  15  18
HETATM   18  O3  UNL     1      62.743  43.129  20.658  1.00  0.00    -0.351 OA
BRANCH  18  19
HETATM   19  C6  UNL     1      64.038  42.683  20.521  1.00  0.00     0.171 C
BRANCH  19  20
HETATM   20  C5  UNL     1      64.657  43.385  19.335  1.00  0.00     0.026 C
BRANCH  20  21
HETATM   21  C4  UNL     1      65.091  44.790  19.661  1.00  0.00     0.002 C
BRANCH  21  22
HETATM   22  C3  UNL     1      64.389  45.826  18.857  1.00  0.00     0.010 C
BRANCH  22  23
HETATM   23  C2  UNL     1      63.096  46.254  19.466  1.00  0.00     0.113 C
BRANCH  23  24
HETATM   24  C1  UNL     1      61.890  45.654  18.884  1.00  0.00     0.172 C
HETATM   25  O1  UNL     1      62.043  45.181  17.697  1.00  0.00    -0.648 OA
HETATM   26  O2  UNL     1      60.653  45.551  19.471  1.00  0.00    -0.648 OA
ENDBRANCH  23  24
ENDBRANCH  22  23
ENDBRANCH  21  22
ENDBRANCH  20  21
ENDBRANCH  19  20
ENDBRANCH  18  19
ENDBRANCH  15  18
ENDBRANCH   1  11
BRANCH   9  27
HETATM   27  C20 UNL     1      61.296  41.396  25.449  1.00  0.00     0.194 C
BRANCH  27  28
HETATM   28  C21 UNL     1      61.955  42.760  25.356  1.00  0.00     0.394 C
HETATM   29  F5  UNL     1      61.465  43.638  24.478  1.00  0.00    -0.171 F
HETATM   30  F6  UNL     1      61.916  43.378  26.617  1.00  0.00    -0.171 F
HETATM   31  F7  UNL     1      63.327  42.531  25.147  1.00  0.00    -0.171 F
ENDBRANCH  27  28
ENDBRANCH   9  27
BRANCH   6  32
HETATM   32  C18 UNL     1      56.526  41.545  26.996  1.00  0.00     0.434 C
HETATM   33  F2  UNL     1      55.444  41.062  26.295  1.00  0.00    -0.165 F
HETATM   34  F3  UNL     1      56.726  40.728  28.100  1.00  0.00    -0.165 F
HETATM   35  F4  UNL     1      56.368  42.866  27.354  1.00  0.00    -0.165 F
ENDBRANCH   6  32
TORSDOF 11
ENDMDL