MODEL 1
REMARK VINA RESULT: -8.676536584      0.000      0.000
REMARK  11 active torsions:
REMARK  status: ('A' for Active; 'I' for Inactive)
REMARK    1  A    between atoms: N1_2  and  C1_4
REMARK    2  A    between atoms: C1_4  and  C2_6
REMARK    3  A    between atoms: C2_6  and  C3_8
REMARK    4  A    between atoms: C3_8  and  C4_9
REMARK    5  A    between atoms: C4_9  and  C5_10
REMARK    6  A    between atoms: C5_10  and  C6_11
REMARK    7  A    between atoms: C6_11  and  C7_12
REMARK    8  A    between atoms: C7_12  and  N2_14
REMARK    9  A    between atoms: N2_14  and  C8_16
REMARK   10  A    between atoms: C11_20  and  S2_21
REMARK   11  A    between atoms: S2_21  and  C12_22
ROOT
HETATM    1  N2  UNL     1      60.790  42.335  23.492  1.00  0.00    -0.348 N
ATOM      2  H2  UNL     1      60.116  42.669  24.182  1.00  0.00     0.166 HD
ENDROOT
BRANCH   1   3
HETATM    3  C7  UNL     1      60.967  43.038  22.281  1.00  0.00     0.078 C
HETATM    4  S1  UNL     1      61.637  44.526  22.301  1.00  0.00    -0.065 SA
BRANCH   3   5
HETATM    5  C6  UNL     1      60.606  42.456  20.958  1.00  0.00     0.069 C
BRANCH   5   6
HETATM    6  C5  UNL     1      61.746  41.664  20.378  1.00  0.00     0.007 C
BRANCH   6   7
HETATM    7  C4  UNL     1      61.995  41.866  18.933  1.00  0.00     0.002 C
BRANCH   7   8
HETATM    8  C3  UNL     1      63.055  42.820  18.522  1.00  0.00     0.024 C
BRANCH   8   9
HETATM    9  C2  UNL     1      63.614  43.742  19.532  1.00  0.00     0.126 C
HETATM   10 CL2  UNL     1      65.124  43.200  20.257  1.00  0.00    -0.121 Cl
BRANCH   9  11
HETATM   11  C1  UNL     1      63.968  45.063  18.801  1.00  0.00     0.269 C
HETATM   12 CL1  UNL     1      65.657  45.413  19.217  1.00  0.00    -0.094 Cl
BRANCH  11  13
HETATM   13  N1  UNL     1      63.114  46.119  19.246  1.00  0.00    -0.134 N
HETATM   14  O1  UNL     1      63.593  47.090  19.852  1.00  0.00    -0.535 OA
HETATM   15  O2  UNL     1      61.750  46.118  19.034  1.00  0.00    -0.535 OA
ENDBRANCH  11  13
ENDBRANCH   9  11
ENDBRANCH   8   9
ENDBRANCH   7   8
ENDBRANCH   6   7
ENDBRANCH   5   6
ENDBRANCH   3   5
ENDBRANCH   1   3
BRANCH   1  16
HETATM   16  C8  UNL     1      61.545  41.171  23.749  1.00  0.00     0.077 A
HETATM   17  C9  UNL     1      62.792  41.217  24.343  1.00  0.00     0.063 A
HETATM   18 CL3  UNL     1      63.430  42.813  24.775  1.00  0.00    -0.082 Cl
HETATM   19  C10 UNL     1      63.499  40.072  24.582  1.00  0.00     0.045 A
HETATM   20  C11 UNL     1      62.969  38.853  24.230  1.00  0.00     0.012 A
HETATM   21  C13 UNL     1      61.728  38.804  23.639  1.00  0.00     0.045 A
HETATM   22  C14 UNL     1      61.000  39.943  23.389  1.00  0.00     0.063 A
HETATM   23 CL4  UNL     1      59.404  39.899  22.632  1.00  0.00    -0.082 Cl
BRANCH  20  24
HETATM   24  S2  UNL     1      63.848  37.342  24.521  1.00  0.00    -0.016 SA
BRANCH  24  25
HETATM   25  C12 UNL     1      65.300  37.301  23.457  1.00  0.00     0.448 C
HETATM   26  F1  UNL     1      66.417  37.811  24.087  1.00  0.00    -0.160 F
HETATM   27  F2  UNL     1      65.522  35.983  23.101  1.00  0.00    -0.160 F
HETATM   28  F3  UNL     1      65.023  38.008  22.307  1.00  0.00    -0.160 F
ENDBRANCH  24  25
ENDBRANCH  20  24
ENDBRANCH   1  16
TORSDOF 11
ENDMDL