MODEL 4
REMARK VINA RESULT: -9.217477223      1.252      2.391
REMARK  11 active torsions:
REMARK  status: ('A' for Active; 'I' for Inactive)
REMARK    1  A    between atoms: C2_2  and  C3_3
REMARK    2  A    between atoms: C3_3  and  C4_4
REMARK    3  A    between atoms: C4_4  and  C5_6
REMARK    4  A    between atoms: C6_7  and  C7_8
REMARK    5  A    between atoms: C7_8  and  N1_9
REMARK    6  A    between atoms: N1_9  and  C8_12
REMARK    7  A    between atoms: C8_12  and  C9_13
REMARK    8  A    between atoms: C9_13  and  N2_14
REMARK    9  A    between atoms: C16_24  and  C17_25
REMARK   10  A    between atoms: C20_28  and  C21_29
REMARK   11  A    between atoms: C23_33  and  C24_34
ROOT
HETATM    1  C5  UNL     1      59.466  40.586  23.443  1.00  0.00     0.054 A
HETATM    2  C6  UNL     1      58.419  41.331  24.043  1.00  0.00     0.006 A
HETATM    3  C15 UNL     1      58.778  41.437  25.358  1.00  0.00     0.152 A
HETATM    4  O2  UNL     1      59.898  40.828  25.513  1.00  0.00    -0.320 OA
HETATM    5  C16 UNL     1      60.378  40.294  24.424  1.00  0.00     0.100 A
ENDROOT
BRANCH   2   6
HETATM    6  C7  UNL     1      57.215  41.856  23.329  1.00  0.00     0.273 C
BRANCH   6   7
HETATM    7  N1  UNL     1      56.082  41.624  24.184  1.00  0.00    -0.070 N
ATOM      8  H12 UNL     1      56.362  41.491  25.156  1.00  0.00     0.277 HD
ATOM      9  H11 UNL     1      55.518  42.465  24.302  1.00  0.00     0.277 HD
BRANCH   7  10
HETATM   10  C8  UNL     1      55.304  40.524  23.699  1.00  0.00     0.262 C
BRANCH  10  11
HETATM   11  C9  UNL     1      53.849  40.788  23.863  1.00  0.00     0.299 C
BRANCH  11  12
HETATM   12  N2  UNL     1      53.349  40.329  25.156  1.00  0.00     0.090 N
HETATM   13  C10 UNL     1      52.011  40.781  25.386  1.00  0.00     0.278 C
HETATM   14  C11 UNL     1      51.998  41.677  26.615  1.00  0.00     0.109 C
HETATM   15  C12 UNL     1      52.465  40.924  27.840  1.00  0.00     0.246 C
HETATM   16  F1  UNL     1      52.847  41.853  28.784  1.00  0.00    -0.206 F
HETATM   17  F2  UNL     1      51.386  40.190  28.295  1.00  0.00    -0.206 F
HETATM   18  C13 UNL     1      53.606  39.990  27.493  1.00  0.00     0.109 C
HETATM   19  C14 UNL     1      54.257  40.554  26.236  1.00  0.00     0.278 C
ENDBRANCH  11  12
ENDBRANCH  10  11
ENDBRANCH   7  10
ENDBRANCH   6   7
ENDBRANCH   2   6
BRANCH   1  20
HETATM   20  C4  UNL     1      59.381  40.256  22.031  1.00  0.00     0.163 C
HETATM   21  O1  UNL     1      58.643  39.326  21.562  1.00  0.00    -0.292 OA
BRANCH  20  22
HETATM   22  C3  UNL     1      60.191  41.030  21.056  1.00  0.00     0.084 C
BRANCH  22  23
HETATM   23  C2  UNL     1      61.375  40.234  20.553  1.00  0.00     0.003 C
HETATM   24  C1  UNL     1      62.163  41.117  19.615  1.00  0.00     0.005 C
ENDBRANCH  22  23
ENDBRANCH  20  22
ENDBRANCH   1  20
BRANCH   5  25
HETATM   25  C17 UNL     1      61.634  39.543  24.335  1.00  0.00     0.014 A
HETATM   26  C18 UNL     1      61.703  38.200  24.652  1.00  0.00     0.016 A
HETATM   27  C19 UNL     1      62.903  37.474  24.604  1.00  0.00     0.013 A
HETATM   28  C20 UNL     1      64.076  38.061  24.239  1.00  0.00     0.006 A
HETATM   29  C22 UNL     1      64.026  39.389  23.922  1.00  0.00     0.029 A
HETATM   30  C23 UNL     1      62.825  40.134  23.965  1.00  0.00     0.061 A
BRANCH  28  31
HETATM   31  C21 UNL     1      65.360  37.297  24.183  1.00  0.00     0.386 C
HETATM   32  F3  UNL     1      65.333  36.339  23.190  1.00  0.00    -0.209 F
HETATM   33  F4  UNL     1      66.371  38.219  23.999  1.00  0.00    -0.209 F
ENDBRANCH  28  31
BRANCH  30  34
HETATM   34  C24 UNL     1      62.933  41.556  23.625  1.00  0.00     0.418 C
HETATM   35  F5  UNL     1      61.761  42.277  23.764  1.00  0.00    -0.166 F
HETATM   36  F6  UNL     1      63.519  41.858  22.438  1.00  0.00    -0.166 F
HETATM   37  F7  UNL     1      63.769  42.171  24.619  1.00  0.00    -0.166 F
ENDBRANCH  30  34
ENDBRANCH   5  25
TORSDOF 11
ENDMDL