MODEL 5
REMARK VINA RESULT: -8.358077546      1.787      4.086
REMARK  13 active torsions:
REMARK  status: ('A' for Active; 'I' for Inactive)
REMARK    1  A    between atoms: C1_2  and  O2_3
REMARK    2  A    between atoms: C1_2  and  C4_7
REMARK    3  A    between atoms: O2_3  and  C2_4
REMARK    4  A    between atoms: C2_4  and  C3_5
REMARK    5  A    between atoms: C4_7  and  N1_8
REMARK    6  A    between atoms: N1_8  and  C5_10
REMARK    7  A    between atoms: C5_10  and  C6_12
REMARK    8  A    between atoms: C6_12  and  C7_13
REMARK    9  A    between atoms: C7_13  and  S2_14
REMARK   10  A    between atoms: S2_14  and  C8_15
REMARK   11  A    between atoms: C8_15  and  C9_16
REMARK   12  A    between atoms: C11_18  and  C12_19
REMARK   13  A    between atoms: C14_24  and  C15_25
ROOT
HETATM    1  C7  UNL     1      58.355  41.036  21.932  1.00  0.00     0.081 C
ENDROOT
BRANCH   1   2
HETATM    2  C6  UNL     1      59.293  39.827  22.126  1.00  0.00     0.079 C
BRANCH   2   3
HETATM    3  C5  UNL     1      60.312  40.107  23.139  1.00  0.00     0.075 C
HETATM    4  S1  UNL     1      59.751  40.948  24.512  1.00  0.00    -0.066 SA
BRANCH   3   5
HETATM    5  N1  UNL     1      61.652  39.802  23.126  1.00  0.00    -0.366 N
ATOM      6  H1  UNL     1      62.089  40.095  22.253  1.00  0.00     0.161 HD
BRANCH   5   7
HETATM    7  C4  UNL     1      62.589  39.195  23.989  1.00  0.00     0.119 C
HETATM    8  C17 UNL     1      62.265  37.895  24.618  1.00  0.00     0.041 C
HETATM    9  C18 UNL     1      63.581  37.179  24.810  1.00  0.00     0.003 C
HETATM   10  C19 UNL     1      64.509  37.728  23.768  1.00  0.00     0.003 C
HETATM   11  C20 UNL     1      63.882  38.973  23.193  1.00  0.00     0.041 C
BRANCH   7  12
HETATM   12  C1  UNL     1      62.992  40.125  25.093  1.00  0.00     0.287 C
HETATM   13  O1  UNL     1      62.671  39.906  26.279  1.00  0.00    -0.262 OA
BRANCH  12  14
HETATM   14  O2  UNL     1      63.721  41.251  24.813  1.00  0.00    -0.317 OA
BRANCH  14  15
HETATM   15  C2  UNL     1      63.105  42.547  25.005  1.00  0.00     0.210 C
BRANCH  15  16
HETATM   16  C3  UNL     1      62.965  43.167  23.613  1.00  0.00     0.248 C
HETATM   17  F1  UNL     1      63.388  42.334  22.625  1.00  0.00    -0.253 F
ENDBRANCH  15  16
ENDBRANCH  14  15
ENDBRANCH  12  14
ENDBRANCH   7  12
ENDBRANCH   5   7
ENDBRANCH   3   5
ENDBRANCH   2   3
ENDBRANCH   1   2
BRANCH   1  18
HETATM   18  S2  UNL     1      59.003  42.284  20.928  1.00  0.00    -0.164 SA
BRANCH  18  19
HETATM   19  C8  UNL     1      60.393  43.231  21.298  1.00  0.00     0.112 C
BRANCH  19  20
HETATM   20  C9  UNL     1      61.388  43.436  20.218  1.00  0.00    -0.047 A
HETATM   21  C10 UNL     1      61.487  42.363  19.302  1.00  0.00     0.024 A
HETATM   22  C11 UNL     1      62.449  42.409  18.324  1.00  0.00     0.049 A
HETATM   23  C13 UNL     1      63.295  43.488  18.248  1.00  0.00     0.032 A
HETATM   24  C14 UNL     1      63.192  44.551  19.163  1.00  0.00     0.049 A
HETATM   25  C16 UNL     1      62.215  44.500  20.148  1.00  0.00     0.024 A
BRANCH  22  26
HETATM   26  C12 UNL     1      62.577  41.265  17.342  1.00  0.00     0.417 C
HETATM   27  F2  UNL     1      61.542  41.358  16.460  1.00  0.00    -0.166 F
HETATM   28  F3  UNL     1      62.507  40.045  18.012  1.00  0.00    -0.166 F
HETATM   29  F4  UNL     1      63.744  41.374  16.648  1.00  0.00    -0.166 F
ENDBRANCH  22  26
BRANCH  24  30
HETATM   30  C15 UNL     1      64.163  45.662  19.056  1.00  0.00     0.417 C
HETATM   31  F5  UNL     1      65.303  45.328  19.743  1.00  0.00    -0.166 F
HETATM   32  F6  UNL     1      63.616  46.788  19.698  1.00  0.00    -0.166 F
HETATM   33  F7  UNL     1      64.406  45.940  17.736  1.00  0.00    -0.166 F
ENDBRANCH  24  30
ENDBRANCH  19  20
ENDBRANCH  18  19
ENDBRANCH   1  18
TORSDOF 13
ENDMDL