MODEL 4
REMARK VINA RESULT: -9.380262383      3.144      7.156
REMARK  11 active torsions:
REMARK  status: ('A' for Active; 'I' for Inactive)
REMARK    1  A    between atoms: C2_2  and  C3_3
REMARK    2  A    between atoms: C2_2  and  N1_17
REMARK    3  A    between atoms: C4_4  and  C5_5
REMARK    4  A    between atoms: C5_5  and  C6_6
REMARK    5  A    between atoms: C10_11  and  C11_12
REMARK    6  A    between atoms: N1_17  and  C14_19
REMARK    7  A    between atoms: C14_19  and  C15_20
REMARK    8  A    between atoms: C15_20  and  O3_21
REMARK    9  A    between atoms: O3_21  and  C16_22
REMARK   10  A    between atoms: C18_24  and  C19_25
REMARK   11  A    between atoms: C21_30  and  C22_31
ROOT
HETATM    1  N1  UNL     1      63.488  40.555  24.695  1.00  0.00    -0.412 N
ATOM      2  H1  UNL     1      64.199  40.384  25.408  1.00  0.00     0.153 HD
ENDROOT
BRANCH   1   3
HETATM    3  C2  UNL     1      62.906  39.490  23.902  1.00  0.00     0.095 C
HETATM    4  C1  UNL     1      63.911  38.343  23.741  1.00  0.00     0.036 C
BRANCH   3   5
HETATM    5  C3  UNL     1      62.817  40.052  22.513  1.00  0.00    -0.007 C
HETATM    6  C4  UNL     1      61.781  40.123  21.712  1.00  0.00    -0.026 C
BRANCH   6   7
HETATM    7  C5  UNL     1      62.045  40.751  20.379  1.00  0.00     0.067 C
BRANCH   7   8
HETATM    8  C6  UNL     1      61.578  42.130  20.185  1.00  0.00     0.098 C
HETATM    9  C7  UNL     1      60.100  42.281  20.452  1.00  0.00     0.050 C
HETATM   10  C8  UNL     1      61.735  42.568  18.721  1.00  0.00     0.081 C
HETATM   11  C9  UNL     1      62.258  44.022  18.819  1.00  0.00     0.205 C
HETATM   12  F1  UNL     1      62.139  44.510  17.549  1.00  0.00    -0.246 F
HETATM   13  C10 UNL     1      63.684  43.851  19.291  1.00  0.00     0.198 C
HETATM   14  O1  UNL     1      63.603  42.990  20.392  1.00  0.00    -0.232 OA
HETATM   15  O2  UNL     1      62.383  42.987  20.905  1.00  0.00    -0.229 OA
BRANCH  13  16
HETATM   16  C11 UNL     1      64.369  45.098  19.696  1.00  0.00     0.020 A
HETATM   17  C12 UNL     1      64.714  46.219  18.808  1.00  0.00     0.008 A
HETATM   18  C13 UNL     1      65.802  45.231  19.089  1.00  0.00     0.008 A
ENDBRANCH  13  16
ENDBRANCH   7   8
ENDBRANCH   6   7
ENDBRANCH   3   5
ENDBRANCH   1   3
BRANCH   1  19
HETATM   19  C14 UNL     1      62.993  41.857  24.405  1.00  0.00     0.141 C
BRANCH  19  20
HETATM   20  C15 UNL     1      61.884  42.415  25.214  1.00  0.00     0.195 C
BRANCH  20  21
HETATM   21  O3  UNL     1      60.865  41.620  25.646  1.00  0.00    -0.350 OA
BRANCH  21  22
HETATM   22  C16 UNL     1      59.557  41.487  25.349  1.00  0.00     0.070 A
HETATM   23  C17 UNL     1      58.568  41.641  26.351  1.00  0.00     0.052 A
HETATM   24  C18 UNL     1      57.244  41.505  26.039  1.00  0.00     0.051 A
HETATM   25  C20 UNL     1      56.794  41.214  24.753  1.00  0.00     0.032 A
HETATM   26  C21 UNL     1      57.743  41.063  23.772  1.00  0.00     0.051 A
HETATM   27  C23 UNL     1      59.083  41.203  24.106  1.00  0.00     0.052 A
BRANCH  24  28
HETATM   28  C19 UNL     1      56.229  41.699  27.133  1.00  0.00     0.417 C
HETATM   29  F2  UNL     1      54.984  41.322  26.657  1.00  0.00    -0.166 F
HETATM   30  F3  UNL     1      56.202  43.008  27.520  1.00  0.00    -0.166 F
HETATM   31  F4  UNL     1      56.593  40.903  28.173  1.00  0.00    -0.166 F
ENDBRANCH  24  28
BRANCH  26  32
HETATM   32  C22 UNL     1      57.361  40.726  22.375  1.00  0.00     0.417 C
HETATM   33  F5  UNL     1      57.225  41.838  21.597  1.00  0.00    -0.166 F
HETATM   34  F6  UNL     1      58.328  39.878  21.879  1.00  0.00    -0.166 F
HETATM   35  F7  UNL     1      56.179  39.981  22.418  1.00  0.00    -0.166 F
ENDBRANCH  26  32
ENDBRANCH  21  22
ENDBRANCH  20  21
ENDBRANCH  19  20
ENDBRANCH   1  19
TORSDOF 11
ENDMDL