MODEL 4
REMARK VINA RESULT: -9.353815576      1.837      2.301
REMARK  11 active torsions:
REMARK  status: ('A' for Active; 'I' for Inactive)
REMARK    1  A    between atoms: C2_2  and  C9_12
REMARK       I    between atoms: N1_3  and  C3_5
REMARK    2  A    between atoms: C3_5  and  C4_7
REMARK    3  A    between atoms: C4_7  and  C5_8
REMARK    4  A    between atoms: C5_8  and  C6_9
REMARK    5  A    between atoms: C9_12  and  C10_13
REMARK    6  A    between atoms: C10_13  and  C11_14
REMARK    7  A    between atoms: N2_24  and  O2_26
REMARK    8  A    between atoms: O2_26  and  C17_27
REMARK    9  A    between atoms: C17_27  and  C18_28
REMARK   10  A    between atoms: C18_28  and  O3_29
REMARK   11  A    between atoms: C18_28  and  C19_31
ROOT
HETATM    1  C9  UNL     1      62.862  41.857  22.380  1.00  0.00     0.058 C
HETATM    2  N2  UNL     1      63.365  40.803  21.739  1.00  0.00    -0.269 N
ATOM      3  H2  UNL     1      63.798  40.971  20.831  1.00  0.00     0.194 HD
ENDROOT
BRANCH   1   4
HETATM    4  C2  UNL     1      63.006  43.098  21.680  1.00  0.00     0.033 C
HETATM    5  C1  UNL     1      62.162  44.265  22.167  1.00  0.00     0.070 C
HETATM    6  N1  UNL     1      63.752  43.344  20.707  1.00  0.00    -0.329 N
HETATM    7  C3  UNL     1      63.990  44.479  19.945  1.00  0.00     0.222 C
ATOM      8  H1  UNL     1      64.303  42.539  20.409  1.00  0.00     0.168 HD
HETATM    9  O1  UNL     1      65.214  44.878  19.932  1.00  0.00    -0.273 OA
BRANCH   7  10
HETATM   10  C4  UNL     1      63.004  45.240  19.177  1.00  0.00     0.103 C
BRANCH  10  11
HETATM   11  C5  UNL     1      62.633  44.644  17.884  1.00  0.00     0.013 C
BRANCH  11  12
HETATM   12  C6  UNL     1      61.556  43.643  17.818  1.00  0.00    -0.022 C
HETATM   13  C7  UNL     1      60.570  43.709  18.961  1.00  0.00     0.009 C
HETATM   14  C8  UNL     1      62.135  42.210  17.893  1.00  0.00     0.009 C
ENDBRANCH  11  12
ENDBRANCH  10  11
ENDBRANCH   7  10
ENDBRANCH   1   4
BRANCH   1  15
HETATM   15  C10 UNL     1      62.227  41.572  23.629  1.00  0.00     0.104 C
BRANCH  15  16
HETATM   16  C11 UNL     1      60.785  41.372  23.724  1.00  0.00     0.011 A
HETATM   17  C12 UNL     1      60.027  41.054  22.625  1.00  0.00     0.146 A
HETATM   18  F1  UNL     1      60.572  40.752  21.416  1.00  0.00    -0.204 F
HETATM   19  C13 UNL     1      58.641  40.927  22.659  1.00  0.00     0.074 A
HETATM   20 CL1  UNL     1      57.702  40.520  21.223  1.00  0.00    -0.081 Cl
HETATM   21  C14 UNL     1      57.969  41.122  23.830  1.00  0.00     0.052 A
HETATM   22  C15 UNL     1      58.719  41.442  24.957  1.00  0.00     0.058 A
HETATM   23 CL2  UNL     1      57.811  41.684  26.446  1.00  0.00    -0.082 Cl
HETATM   24  C16 UNL     1      60.090  41.568  24.926  1.00  0.00     0.065 A
HETATM   25 CL3  UNL     1      60.902  41.975  26.412  1.00  0.00    -0.082 Cl
ENDBRANCH  15  16
ENDBRANCH   1  15
BRANCH   2  26
HETATM   26  O2  UNL     1      63.349  39.546  22.188  1.00  0.00    -0.277 OA
BRANCH  26  27
HETATM   27  C17 UNL     1      64.426  38.875  22.780  1.00  0.00     0.242 C
BRANCH  27  28
HETATM   28  C18 UNL     1      64.058  37.789  23.707  1.00  0.00     0.251 C
BRANCH  28  29
HETATM   29  O3  UNL     1      65.248  37.302  24.292  1.00  0.00    -0.384 OA
ATOM     30  H3  UNL     1      65.015  36.576  24.859  1.00  0.00     0.210 HD
ENDBRANCH  28  29
BRANCH  28  31
HETATM   31  C19 UNL     1      63.125  38.141  24.810  1.00  0.00     0.415 C
HETATM   32  F2  UNL     1      63.238  37.169  25.816  1.00  0.00    -0.168 F
HETATM   33  F3  UNL     1      63.519  39.319  25.418  1.00  0.00    -0.168 F
HETATM   34  F4  UNL     1      61.813  38.193  24.472  1.00  0.00    -0.168 F
ENDBRANCH  28  31
ENDBRANCH  27  28
ENDBRANCH  26  27
ENDBRANCH   2  26
TORSDOF 11
ENDMDL