MODEL 1
REMARK VINA RESULT: -10.175004863      0.000      0.000
REMARK  11 active torsions:
REMARK  status: ('A' for Active; 'I' for Inactive)
REMARK    1  A    between atoms: C2_2  and  C3_3
REMARK    2  A    between atoms: C3_3  and  C4_4
REMARK    3  A    between atoms: C4_4  and  C5_5
REMARK    4  A    between atoms: C7_7  and  C8_8
REMARK    5  A    between atoms: C8_8  and  O1_9
REMARK    6  A    between atoms: O1_9  and  C9_10
REMARK    7  A    between atoms: C10_11  and  C11_12
REMARK    8  A    between atoms: C15_22  and  C16_23
REMARK    9  A    between atoms: C18_25  and  O3_26
REMARK   10  A    between atoms: O3_26  and  C19_27
REMARK   11  A    between atoms: C22_32  and  C23_33
ROOT
HETATM    1  C9  UNL     1      58.478  41.455  24.683  1.00  0.00     0.119 C
HETATM    2  C10 UNL     1      57.226  41.688  25.069  1.00  0.00     0.187 C
HETATM    3  O2  UNL     1      56.362  42.011  24.001  1.00  0.00    -0.339 OA
HETATM    4  C12 UNL     1      56.450  41.351  22.775  1.00  0.00     0.260 C
HETATM    5  C13 UNL     1      57.833  41.126  22.250  1.00  0.00     0.295 C
HETATM    6  F4  UNL     1      57.935  41.794  21.036  1.00  0.00    -0.198 F
HETATM    7  F5  UNL     1      58.037  39.773  21.986  1.00  0.00    -0.198 F
HETATM    8  C14 UNL     1      58.842  41.554  23.239  1.00  0.00     0.052 C
HETATM    9  C15 UNL     1      60.030  42.052  22.985  1.00  0.00     0.028 C
ENDROOT
BRANCH   1  10
HETATM   10  O1  UNL     1      59.382  41.133  25.649  1.00  0.00    -0.344 OA
BRANCH  10  11
HETATM   11  C8  UNL     1      60.710  41.588  25.602  1.00  0.00     0.203 C
BRANCH  11  12
HETATM   12  C7  UNL     1      61.722  40.509  25.507  1.00  0.00     0.002 C
HETATM   13  C5  UNL     1      62.966  40.664  25.070  1.00  0.00    -0.085 C
HETATM   14  C6  UNL     1      63.390  42.025  24.656  1.00  0.00     0.043 C
BRANCH  13  15
HETATM   15  C4  UNL     1      63.882  39.528  25.017  1.00  0.00     0.037 C
BRANCH  15  16
HETATM   16  C3  UNL     1      63.270  38.178  24.910  1.00  0.00     0.030 C
BRANCH  16  17
HETATM   17  C2  UNL     1      64.066  37.154  24.234  1.00  0.00    -0.037 C
HETATM   18  C1  UNL     1      65.166  37.462  23.555  1.00  0.00     0.007 C
ENDBRANCH  16  17
ENDBRANCH  15  16
ENDBRANCH  13  15
ENDBRANCH  11  12
ENDBRANCH  10  11
ENDBRANCH   1  10
BRANCH   9  19
HETATM   19  C16 UNL     1      60.532  42.209  21.636  1.00  0.00    -0.016 A
HETATM   20  C17 UNL     1      60.244  43.297  20.851  1.00  0.00     0.049 A
HETATM   21  C18 UNL     1      60.735  43.469  19.557  1.00  0.00     0.075 A
HETATM   22  C20 UNL     1      61.548  42.460  19.095  1.00  0.00     0.038 A
HETATM   23  C21 UNL     1      61.856  41.357  19.855  1.00  0.00     0.022 A
HETATM   24  C22 UNL     1      61.354  41.216  21.133  1.00  0.00     0.051 A
BRANCH  21  25
HETATM   25  O3  UNL     1      60.400  44.588  18.837  1.00  0.00    -0.290 OA
BRANCH  25  26
HETATM   26  C19 UNL     1      61.259  45.639  18.516  1.00  0.00     0.505 C
HETATM   27  F6  UNL     1      61.992  45.922  19.683  1.00  0.00    -0.184 F
HETATM   28  F7  UNL     1      62.191  45.284  17.553  1.00  0.00    -0.184 F
ENDBRANCH  25  26
ENDBRANCH  21  25
BRANCH  24  29
HETATM   29  C23 UNL     1      61.718  40.042  21.906  1.00  0.00     0.210 C
HETATM   30  O4  UNL     1      62.912  39.700  21.971  1.00  0.00    -0.644 OA
HETATM   31  O5  UNL     1      60.758  39.320  22.559  1.00  0.00    -0.644 OA
ENDBRANCH  24  29
ENDBRANCH   9  19
BRANCH   2  32
HETATM   32  C11 UNL     1      56.772  41.619  26.476  1.00  0.00     0.441 C
HETATM   33  F1  UNL     1      56.737  42.860  27.022  1.00  0.00    -0.164 F
HETATM   34  F2  UNL     1      57.595  40.771  27.232  1.00  0.00    -0.164 F
HETATM   35  F3  UNL     1      55.462  41.124  26.536  1.00  0.00    -0.164 F
ENDBRANCH   2  32
TORSDOF 11
ENDMDL