MODEL 4
REMARK VINA RESULT: -10.184673918      1.587      2.968
REMARK  11 active torsions:
REMARK  status: ('A' for Active; 'I' for Inactive)
REMARK    1  A    between atoms: C6_6  and  C7_7
REMARK    2  A    between atoms: C8_11  and  C9_12
REMARK    3  A    between atoms: C9_12  and  C10_13
REMARK    4  A    between atoms: C10_13  and  C11_14
REMARK    5  A    between atoms: C11_14  and  C12_15
REMARK    6  A    between atoms: C12_15  and  C13_17
REMARK    7  A    between atoms: C12_15  and  C14_20
REMARK    8  A    between atoms: C14_20  and  C15_21
REMARK    9  A    between atoms: C14_20  and  N1_30
REMARK   10  A    between atoms: C15_21  and  C16_22
REMARK   11  A    between atoms: C18_24  and  C19_25
ROOT
HETATM    1  C12 UNL     1      61.434  42.322  24.100  1.00  0.00     0.151 C
HETATM    2 CL1  UNL     1      63.207  42.288  24.008  1.00  0.00    -0.105 Cl
ENDROOT
BRANCH   1   3
HETATM    3  C11 UNL     1      60.824  43.541  23.525  1.00  0.00     0.039 C
BRANCH   3   4
HETATM    4  C10 UNL     1      61.762  44.448  22.785  1.00  0.00     0.003 C
BRANCH   4   5
HETATM    5  C9  UNL     1      61.628  44.256  21.263  1.00  0.00     0.006 C
BRANCH   5   6
HETATM    6  C8  UNL     1      62.941  44.554  20.607  1.00  0.00     0.002 C
HETATM    7  C2  UNL     1      63.861  43.360  20.532  1.00  0.00    -0.014 C
HETATM    8  C1  UNL     1      63.218  42.077  20.135  1.00  0.00     0.010 C
HETATM    9  C3  UNL     1      65.091  43.565  19.705  1.00  0.00     0.005 C
HETATM   10  C4  UNL     1      65.354  45.037  19.575  1.00  0.00     0.001 C
HETATM   11  C5  UNL     1      64.225  45.765  18.892  1.00  0.00     0.014 C
HETATM   12  C6  UNL     1      62.872  45.410  19.408  1.00  0.00     0.098 C
BRANCH  12  13
HETATM   13  C7  UNL     1      61.999  44.982  18.283  1.00  0.00     0.391 C
HETATM   14  F1  UNL     1      62.346  45.575  17.085  1.00  0.00    -0.171 F
HETATM   15  F2  UNL     1      60.682  45.372  18.504  1.00  0.00    -0.171 F
HETATM   16  F3  UNL     1      61.952  43.631  18.061  1.00  0.00    -0.171 F
ENDBRANCH  12  13
ENDBRANCH   5   6
ENDBRANCH   4   5
ENDBRANCH   3   4
ENDBRANCH   1   3
BRANCH   1  17
HETATM   17  C13 UNL     1      61.132  42.233  25.579  1.00  0.00     0.200 C
HETATM   18  O1  UNL     1      60.359  41.383  26.066  1.00  0.00    -0.646 OA
HETATM   19  O2  UNL     1      61.726  43.129  26.452  1.00  0.00    -0.646 OA
ENDBRANCH   1  17
BRANCH   1  20
HETATM   20  C14 UNL     1      60.910  41.079  23.431  1.00  0.00     0.196 C
BRANCH  20  21
HETATM   21  C15 UNL     1      61.922  40.365  22.598  1.00  0.00     0.099 C
BRANCH  21  22
HETATM   22  C16 UNL     1      62.631  39.295  23.380  1.00  0.00     0.055 A
HETATM   23  C17 UNL     1      63.907  38.812  23.086  1.00  0.00     0.047 A
HETATM   24  C18 UNL     1      64.204  37.848  24.016  1.00  0.00     0.030 A
HETATM   25  C20 UNL     1      63.106  37.770  24.845  1.00  0.00     0.154 A
HETATM   26  O3  UNL     1      62.220  38.638  24.426  1.00  0.00    -0.326 OA
BRANCH  24  27
HETATM   27  C19 UNL     1      65.471  37.057  24.092  1.00  0.00     0.388 C
HETATM   28  F4  UNL     1      65.561  36.175  23.024  1.00  0.00    -0.209 F
HETATM   29  F5  UNL     1      66.574  37.897  24.073  1.00  0.00    -0.209 F
ENDBRANCH  24  27
ENDBRANCH  21  22
ENDBRANCH  20  21
BRANCH  20  30
HETATM   30  N1  UNL     1      59.623  41.254  22.803  1.00  0.00    -0.148 N
HETATM   31  O4  UNL     1      58.525  41.238  23.398  1.00  0.00    -0.536 OA
HETATM   32  O5  UNL     1      59.505  41.442  21.424  1.00  0.00    -0.536 OA
ENDBRANCH  20  30
ENDBRANCH   1  20
TORSDOF 11
ENDMDL