MODEL 1
REMARK VINA RESULT: -5.121590495      0.000      0.000
REMARK  4 active torsions:
REMARK  status: ('A' for Active; 'I' for Inactive)
REMARK    1  A    between atoms: N1_1  and  N2_4
REMARK       I    between atoms: C1_6  and  N4_8
REMARK    2  A    between atoms: N4_8  and  C2_10
REMARK    3  A    between atoms: C2_10  and  C3_11
REMARK    4  A    between atoms: C3_11  and  N5_12
ROOT
HETATM    1  N2  UNL     1       8.354  50.114  19.743  1.00  0.00    -0.280 N
ATOM      2  H2  UNL     1       7.581  49.701  20.267  1.00  0.00     0.189 HD
HETATM    3  C1  UNL     1       8.242  51.316  19.227  1.00  0.00     0.202 C
HETATM    4  N3  UNL     1       7.046  52.012  19.405  1.00  0.00    -0.062 NA
HETATM    5  N4  UNL     1       9.311  51.868  18.519  1.00  0.00    -0.359 N
ATOM      6  H4  UNL     1       9.901  51.230  17.984  1.00  0.00     0.162 HD
ENDROOT
BRANCH   5   7
HETATM    7  C2  UNL     1       9.646  53.267  18.485  1.00  0.00     0.166 C
BRANCH   7   8
HETATM    8  C3  UNL     1      11.125  53.509  18.659  1.00  0.00     0.077 C
BRANCH   8   9
HETATM    9  N5  UNL     1      11.567  53.110  19.937  1.00  0.00    -0.388 N
HETATM   10  C4  UNL     1      12.292  54.105  20.647  1.00  0.00     0.148 C
HETATM   11  C5  UNL     1      12.408  53.670  22.100  1.00  0.00     0.187 C
HETATM   12  O1  UNL     1      13.135  52.493  22.135  1.00  0.00    -0.388 OA
HETATM   13  C6  UNL     1      12.494  51.455  21.459  1.00  0.00     0.187 C
HETATM   14  C7  UNL     1      12.152  51.820  20.045  1.00  0.00     0.148 C
ENDBRANCH   8   9
ENDBRANCH   7   8
ENDBRANCH   5   7
BRANCH   1  15
HETATM   15  N1  UNL     1       9.557  49.401  19.565  1.00  0.00    -0.343 N
ATOM     16  H12 UNL     1       9.533  48.384  19.492  1.00  0.00     0.176 HD
ATOM     17  H11 UNL     1      10.435  49.917  19.513  1.00  0.00     0.176 HD
ENDBRANCH   1  15
TORSDOF 4
ENDMDL