MODEL 2
REMARK VINA RESULT: -5.171003504      2.560      3.046
REMARK  7 active torsions:
REMARK  status: ('A' for Active; 'I' for Inactive)
REMARK    1  A    between atoms: C1_2  and  N1_3
REMARK    2  A    between atoms: N1_3  and  C2_4
REMARK    3  A    between atoms: N1_3  and  C6_10
REMARK    4  A    between atoms: C2_4  and  C3_5
REMARK    5  A    between atoms: C4_6  and  C5_7
REMARK    6  A    between atoms: C5_7  and  O2_8
REMARK    7  A    between atoms: C10_14  and  O3_15
ROOT
HETATM    1  N1  UNL     1      11.579  51.944  20.523  1.00  0.00    -0.341 N
ENDROOT
BRANCH   1   2
HETATM    2  C1  UNL     1      11.874  50.571  20.504  1.00  0.00     0.352 C
HETATM    3  O1  UNL     1      13.019  50.161  20.780  1.00  0.00    -0.283 OA
ENDBRANCH   1   2
BRANCH   1   4
HETATM    4  C2  UNL     1      12.661  52.874  20.809  1.00  0.00     0.220 C
BRANCH   4   5
HETATM    5  C3  UNL     1      12.234  53.649  21.985  1.00  0.00    -0.085 C
HETATM    6  C4  UNL     1      11.872  54.292  22.935  1.00  0.00    -0.079 C
BRANCH   6   7
HETATM    7  C5  UNL     1      11.411  55.075  24.084  1.00  0.00     0.257 C
BRANCH   7   8
HETATM    8  O2  UNL     1      11.917  54.461  25.222  1.00  0.00    -0.389 OA
ATOM      9  H2  UNL     1      11.261  53.840  25.516  1.00  0.00     0.210 HD
ENDBRANCH   7   8
ENDBRANCH   6   7
ENDBRANCH   4   5
ENDBRANCH   1   4
BRANCH   1  10
HETATM   10  C6  UNL     1      10.271  52.515  20.271  1.00  0.00     0.123 A
HETATM   11  C7  UNL     1       9.262  51.448  20.087  1.00  0.00     0.055 A
HETATM   12  C8  UNL     1       8.771  51.528  18.716  1.00  0.00    -0.026 A
HETATM   13  C9  UNL     1       9.295  52.567  18.114  1.00  0.00     0.003 A
HETATM   14  C10 UNL     1      10.202  53.319  19.000  1.00  0.00     0.164 A
BRANCH  14  15
HETATM   15  O3  UNL     1      11.470  53.474  18.473  1.00  0.00    -0.390 OA
ATOM     16  H3  UNL     1      11.475  54.189  17.848  1.00  0.00     0.210 HD
ENDBRANCH  14  15
ENDBRANCH   1  10
TORSDOF 7
ENDMDL