MODEL 3
REMARK VINA RESULT: -3.657653972      1.430      1.533
REMARK  4 active torsions:
REMARK  status: ('A' for Active; 'I' for Inactive)
REMARK       I    between atoms: C1_4  and  N3_6
REMARK    1  A    between atoms: N4_9  and  C4_10
REMARK    2  A    between atoms: C4_10  and  C5_11
REMARK    3  A    between atoms: C5_11  and  C6_12
REMARK    4  A    between atoms: C6_12  and  N5_13
ROOT
HETATM    1  N1  UNL     1       6.842  50.945  19.694  1.00  0.00    -0.374 N
ATOM      2  H11 UNL     1       6.563  51.901  19.915  1.00  0.00     0.158 HD
ATOM      3  H12 UNL     1       6.159  50.190  19.754  1.00  0.00     0.158 HD
HETATM    4  C1  UNL     1       8.048  50.694  19.344  1.00  0.00     0.184 C
HETATM    5  N2  UNL     1       8.433  49.373  19.038  1.00  0.00    -0.064 NA
HETATM    6  N3  UNL     1       8.987  51.732  19.262  1.00  0.00    -0.353 N
HETATM    7  C2  UNL     1       9.045  52.728  18.204  1.00  0.00     0.156 C
HETATM    8  C3  UNL     1       9.918  53.874  18.572  1.00  0.00     0.292 C
HETATM    9  N4  UNL     1      11.296  53.509  18.947  1.00  0.00     0.091 N
HETATM   10  C7  UNL     1      11.306  52.142  19.418  1.00  0.00     0.292 C
HETATM   11  C8  UNL     1      10.046  51.928  20.271  1.00  0.00     0.156 C
ENDROOT
BRANCH   9  12
HETATM   12  C4  UNL     1      11.778  54.395  19.951  1.00  0.00     0.274 C
BRANCH  12  13
HETATM   13  C5  UNL     1      12.904  53.903  20.764  1.00  0.00     0.057 C
BRANCH  13  14
HETATM   14  C6  UNL     1      12.602  53.184  22.028  1.00  0.00     0.231 C
BRANCH  14  15
HETATM   15  N5  UNL     1      13.313  51.872  21.996  1.00  0.00    -0.079 N
ATOM     16  H53 UNL     1      13.600  51.557  22.923  1.00  0.00     0.274 HD
ATOM     17  H52 UNL     1      12.692  51.094  21.772  1.00  0.00     0.274 HD
ATOM     18  H51 UNL     1      14.095  51.953  21.347  1.00  0.00     0.274 HD
ENDBRANCH  14  15
ENDBRANCH  13  14
ENDBRANCH  12  13
ENDBRANCH   9  12
TORSDOF 4
ENDMDL