MODEL 1
REMARK VINA RESULT: -4.025691687      0.000      0.000
REMARK  2 active torsions:
REMARK  status: ('A' for Active; 'I' for Inactive)
REMARK    1  A    between atoms: C2_2  and  N1_3
REMARK       I    between atoms: N2_6  and  C5_7
REMARK       I    between atoms: C5_7  and  N4_11
REMARK    2  A    between atoms: N4_11  and  N5_13
ROOT
HETATM    1  N1  UNL     1      12.281  54.337  20.412  1.00  0.00    -0.391 N
HETATM    2  C3  UNL     1      12.178  53.798  21.690  1.00  0.00     0.078 C
HETATM    3  C4  UNL     1      11.265  52.625  21.802  1.00  0.00     0.185 C
HETATM    4  N2  UNL     1      11.087  51.917  20.557  1.00  0.00    -0.211 N
HETATM    5  C5  UNL     1      11.108  50.519  20.385  1.00  0.00     0.688 C
HETATM    6  N3  UNL     1      12.238  49.914  20.276  1.00  0.00    -0.233 N
ATOM      7  H31 UNL     1      12.253  48.902  20.152  1.00  0.00     0.174 HD
ATOM      8  H32 UNL     1      13.104  50.451  20.314  1.00  0.00     0.174 HD
HETATM    9  N4  UNL     1       9.907  49.774  20.332  1.00  0.00    -0.132 N
ATOM     10  H4  UNL     1       9.602  49.283  21.172  1.00  0.00     0.205 HD
HETATM   11  C7  UNL     1      10.877  52.748  19.352  1.00  0.00     0.161 C
HETATM   12  C8  UNL     1      12.203  53.522  19.265  1.00  0.00     0.142 C
ENDROOT
BRANCH   9  13
HETATM   13  N5  UNL     1       9.120  49.681  19.182  1.00  0.00    -0.284 N
HETATM   14  C6  UNL     1       8.082  50.416  19.041  1.00  0.00     0.207 C
HETATM   15  N6  UNL     1       7.737  51.326  20.057  1.00  0.00    -0.095 NA
ATOM     16  H5  UNL     1       9.375  49.021  18.448  1.00  0.00     0.187 HD
ENDBRANCH   9  13
BRANCH   1  17
HETATM   17  C2  UNL     1      12.665  55.683  20.231  1.00  0.00     0.117 C
HETATM   18  C1  UNL     1      13.449  56.146  21.436  1.00  0.00     0.026 C
ENDBRANCH   1  17
TORSDOF 2
ENDMDL