MODEL 2
REMARK VINA RESULT: -3.559276044      1.387      4.110
REMARK  4 active torsions:
REMARK  status: ('A' for Active; 'I' for Inactive)
REMARK    1  A    between atoms: N1_2  and  C3_4
REMARK    2  A    between atoms: C3_4  and  C4_5
REMARK    3  A    between atoms: C6_7  and  C7_8
REMARK    4  A    between atoms: C7_8  and  N2_9
REMARK       I    between atoms: N3_14  and  C9_15
ROOT
HETATM    1  C4  UNL     1      10.747  53.197  19.797  1.00  0.00     0.115 C
HETATM    2  C5  UNL     1       9.893  52.025  20.245  1.00  0.00     0.035 C
HETATM    3  C6  UNL     1       9.060  51.628  19.052  1.00  0.00     0.031 C
HETATM    4  C8  UNL     1       9.361  52.618  17.952  1.00  0.00     0.132 C
HETATM    5  N3  UNL     1      10.183  53.657  18.562  1.00  0.00    -0.349 N
HETATM    6  C9  UNL     1      10.383  54.933  17.998  1.00  0.00     0.184 C
HETATM    7  N4  UNL     1      11.147  55.069  16.985  1.00  0.00    -0.374 N
ATOM      8  H41 UNL     1      11.292  55.993  16.576  1.00  0.00     0.158 HD
ATOM      9  H42 UNL     1      11.618  54.262  16.575  1.00  0.00     0.158 HD
HETATM   10  N5  UNL     1       9.732  56.047  18.563  1.00  0.00    -0.064 NA
ENDROOT
BRANCH   3  11
HETATM   11  C7  UNL     1       7.600  51.718  19.496  1.00  0.00     0.236 C
BRANCH  11  12
HETATM   12  N2  UNL     1       7.173  50.363  19.766  1.00  0.00    -0.079 N
ATOM     13  H23 UNL     1       6.170  50.279  19.930  1.00  0.00     0.274 HD
ATOM     14  H22 UNL     1       7.218  49.754  18.950  1.00  0.00     0.274 HD
ATOM     15  H21 UNL     1       7.740  50.034  20.548  1.00  0.00     0.274 HD
ENDBRANCH  11  12
ENDBRANCH   3  11
BRANCH   1  16
HETATM   16  C3  UNL     1      12.152  52.666  19.618  1.00  0.00     0.296 C
BRANCH  16  17
HETATM   17  N1  UNL     1      13.074  53.201  20.600  1.00  0.00     0.082 N
HETATM   18  C1  UNL     1      12.880  52.369  21.801  1.00  0.00     0.309 C
HETATM   19  C2  UNL     1      12.638  54.546  21.005  1.00  0.00     0.309 C
ENDBRANCH  16  17
ENDBRANCH   1  16
TORSDOF 4
ENDMDL