MODEL 1
REMARK VINA RESULT: -4.657367574      0.000      0.000
REMARK  4 active torsions:
REMARK  status: ('A' for Active; 'I' for Inactive)
REMARK    1  A    between atoms: N1_1  and  C1_5
REMARK    2  A    between atoms: C5_9  and  N2_10
REMARK    3  A    between atoms: N2_10  and  C6_12
REMARK    4  A    between atoms: C9_16  and  O2_17
ROOT
HETATM    1  C1  UNL     1       8.521  50.834  19.308  1.00  0.00     0.212 C
HETATM    2  C2  UNL     1       8.862  51.710  18.147  1.00  0.00     0.040 C
HETATM    3  C3  UNL     1       9.447  53.022  18.672  1.00  0.00    -0.010 C
HETATM    4  C4  UNL     1      10.966  52.857  18.673  1.00  0.00     0.030 C
HETATM    5  C5  UNL     1      11.372  52.750  20.125  1.00  0.00     0.090 C
HETATM    6  C7  UNL     1      10.136  52.149  20.725  1.00  0.00     0.039 C
HETATM    7  C8  UNL     1       9.122  53.160  20.150  1.00  0.00     0.014 C
HETATM    8  C9  UNL     1       9.735  50.814  20.249  1.00  0.00     0.154 C
ENDROOT
BRANCH   1   9
HETATM    9  N1  UNL     1       8.384  49.457  18.802  1.00  0.00    -0.073 N
ATOM     10  H13 UNL     1       9.081  48.821  19.189  1.00  0.00     0.274 HD
ATOM     11  H12 UNL     1       7.555  48.983  19.162  1.00  0.00     0.274 HD
ATOM     12  H11 UNL     1       8.407  49.500  17.784  1.00  0.00     0.274 HD
ENDBRANCH   1   9
BRANCH   8  13
HETATM   13  O2  UNL     1      10.684  50.057  19.615  1.00  0.00    -0.393 OA
ATOM     14  H2  UNL     1      10.276  49.215  19.454  1.00  0.00     0.210 HD
ENDBRANCH   8  13
BRANCH   5  15
HETATM   15  N2  UNL     1      12.603  52.102  20.371  1.00  0.00    -0.363 N
ATOM     16  H2  UNL     1      13.238  51.894  19.599  1.00  0.00     0.162 HD
BRANCH  15  17
HETATM   17  C6  UNL     1      12.951  51.745  21.697  1.00  0.00     0.348 C
HETATM   18  O1  UNL     1      14.069  51.240  21.944  1.00  0.00    -0.284 OA
ENDBRANCH  15  17
ENDBRANCH   5  15
TORSDOF 4
ENDMDL