MODEL 2
REMARK VINA RESULT: -5.312973551      0.614      1.379
REMARK  2 active torsions:
REMARK  status: ('A' for Active; 'I' for Inactive)
REMARK    1  A    between atoms: C4_4  and  N1_5
REMARK    2  A    between atoms: N1_5  and  N2_6
ROOT
HETATM    1  C1  UNL     1      36.531  42.572  -0.765  1.00  0.00     0.000 C
HETATM    2  C2  UNL     1      36.842  43.424  -1.961  1.00  0.00     0.002 C
HETATM    3  C3  UNL     1      37.342  42.477  -3.058  1.00  0.00     0.022 C
HETATM    4  C4  UNL     1      36.129  41.749  -3.554  1.00  0.00     0.093 C
HETATM    5  C8  UNL     1      35.498  41.004  -2.438  1.00  0.00     0.022 C
HETATM    6  C9  UNL     1      36.188  41.156  -1.113  1.00  0.00     0.002 C
ENDROOT
BRANCH   4   7
HETATM    7  N1  UNL     1      36.440  40.949  -4.713  1.00  0.00    -0.159 NA
BRANCH   7   8
HETATM    8  N2  UNL     1      35.303  40.475  -5.369  1.00  0.00    -0.224 NA
HETATM    9  C5  UNL     1      35.563  39.116  -5.752  1.00  0.00     0.120 C
HETATM   10  C6  UNL     1      34.366  38.640  -6.565  1.00  0.00     0.091 C
HETATM   11  S1  UNL     1      34.157  40.125  -7.629  1.00  0.00    -0.152 SA
HETATM   12  C7  UNL     1      35.141  41.259  -6.569  1.00  0.00     0.183 C
ENDBRANCH   7   8
ENDBRANCH   4   7
TORSDOF 2
ENDMDL