MODEL 2
REMARK VINA RESULT: -6.064233734      2.741      4.640
REMARK  3 active torsions:
REMARK  status: ('A' for Active; 'I' for Inactive)
REMARK    1  A    between atoms: C2_3  and  C3_4
REMARK    2  A    between atoms: C2_3  and  C4_7
REMARK    3  A    between atoms: C3_4  and  O1_5
ROOT
HETATM    1  N1  UNL     1      37.478  43.486  -2.579  1.00  0.00    -0.196 NA
HETATM    2  C1  UNL     1      36.820  42.612  -3.008  1.00  0.00     0.072 C
HETATM    3  C2  UNL     1      36.015  41.536  -3.528  1.00  0.00     0.161 C
ENDROOT
BRANCH   3   4
HETATM    4  C3  UNL     1      35.787  41.826  -5.016  1.00  0.00     0.189 C
BRANCH   4   5
HETATM    5  O1  UNL     1      36.909  42.368  -5.598  1.00  0.00    -0.399 OA
ATOM      6  H1  UNL     1      37.607  41.727  -5.667  1.00  0.00     0.209 HD
ENDBRANCH   4   5
ENDBRANCH   3   4
BRANCH   3   7
HETATM    7  C4  UNL     1      36.747  40.230  -3.370  1.00  0.00     0.003 C
HETATM    8  N2  UNL     1      37.945  40.006  -3.747  1.00  0.00    -0.386 N
HETATM    9  C5  UNL     1      38.374  38.672  -3.463  1.00  0.00     0.030 C
ATOM     10  H2  UNL     1      38.534  40.704  -4.201  1.00  0.00     0.160 HD
HETATM   11  C6  UNL     1      39.811  38.557  -3.076  1.00  0.00     0.031 C
HETATM   12  C9  UNL     1      38.212  37.711  -4.582  1.00  0.00     0.031 C
HETATM   13  C10 UNL     1      37.448  38.287  -2.297  1.00  0.00     0.036 C
HETATM   14  C7  UNL     1      40.017  37.037  -3.109  1.00  0.00     0.002 C
HETATM   15  C8  UNL     1      39.114  36.556  -4.198  1.00  0.00     0.002 C
HETATM   16  C11 UNL     1      36.198  38.992  -2.762  1.00  0.00     0.056 C
ENDBRANCH   3   7
TORSDOF 3
ENDMDL