MODEL 4
REMARK VINA RESULT: -5.635753406      1.010      1.010
REMARK  3 active torsions:
REMARK  status: ('A' for Active; 'I' for Inactive)
REMARK    1  A    between atoms: N1_9  and  C9_10
REMARK    2  A    between atoms: C9_10  and  C10_11
REMARK    3  A    between atoms: N2_12  and  O1_14
ROOT
HETATM    1  C1  UNL     1      37.391  44.029  -0.983  1.00  0.00     0.012 C
HETATM    2  C2  UNL     1      36.471  43.085  -1.668  1.00  0.00     0.015 C
HETATM    3  C3  UNL     1      36.166  41.881  -0.829  1.00  0.00     0.008 C
HETATM    4  C4  UNL     1      35.104  41.086  -1.561  1.00  0.00     0.036 C
HETATM    5  C5  UNL     1      35.574  40.847  -2.974  1.00  0.00     0.224 C
HETATM    6  C6  UNL     1      36.986  40.250  -2.932  1.00  0.00     0.038 C
HETATM    7  C7  UNL     1      37.853  41.459  -3.004  1.00  0.00     0.038 C
HETATM    8  C8  UNL     1      36.937  42.650  -3.024  1.00  0.00     0.227 C
HETATM    9  N1  UNL     1      35.783  42.105  -3.704  1.00  0.00     0.102 N
ENDROOT
BRANCH   9  10
HETATM   10  C9  UNL     1      36.020  41.741  -5.073  1.00  0.00     0.320 C
BRANCH  10  11
HETATM   11  C10 UNL     1      34.810  41.483  -5.869  1.00  0.00     0.116 C
HETATM   12  N2  UNL     1      34.417  40.382  -6.384  1.00  0.00    -0.283 N
ATOM     13  H2  UNL     1      33.545  40.383  -6.912  1.00  0.00     0.192 HD
BRANCH  12  14
HETATM   14  O1  UNL     1      35.099  39.204  -6.268  1.00  0.00    -0.291 OA
ATOM     15  H1  UNL     1      35.275  38.622  -6.998  1.00  0.00     0.244 HD
ENDBRANCH  12  14
ENDBRANCH  10  11
ENDBRANCH   9  10
TORSDOF 3
ENDMDL