MODEL 5
REMARK VINA RESULT: -5.386661595      3.325      4.422
REMARK  2 active torsions:
REMARK  status: ('A' for Active; 'I' for Inactive)
REMARK    1  A    between atoms: C6_9  and  C7_10
REMARK    2  A    between atoms: C7_10  and  N2_11
ROOT
HETATM    1  N1  UNL     1      35.741  42.147  -4.487  1.00  0.00    -0.405 N
ATOM      2  H11 UNL     1      35.486  41.372  -5.099  1.00  0.00     0.155 HD
ATOM      3  H12 UNL     1      35.554  43.078  -4.857  1.00  0.00     0.155 HD
HETATM    4  C1  UNL     1      36.260  42.015  -3.343  1.00  0.00    -0.015 C
HETATM    5  C2  UNL     1      36.632  43.141  -2.452  1.00  0.00     0.052 C
HETATM    6  C3  UNL     1      36.133  42.929  -1.041  1.00  0.00     0.006 C
HETATM    7  C4  UNL     1      36.220  41.521  -0.550  1.00  0.00     0.001 C
HETATM    8  C5  UNL     1      35.651  40.549  -1.557  1.00  0.00     0.012 C
HETATM    9  C6  UNL     1      36.535  40.645  -2.798  1.00  0.00     0.059 C
ENDROOT
BRANCH   9  10
HETATM   10  C7  UNL     1      36.235  39.577  -3.783  1.00  0.00     0.283 C
BRANCH  10  11
HETATM   11  N2  UNL     1      37.451  38.909  -4.172  1.00  0.00     0.093 N
HETATM   12  C8  UNL     1      38.616  39.483  -3.509  1.00  0.00     0.298 C
HETATM   13  C9  UNL     1      39.688  38.415  -3.496  1.00  0.00     0.198 C
HETATM   14  O1  UNL     1      39.345  37.513  -2.485  1.00  0.00    -0.388 OA
HETATM   15  C10 UNL     1      38.060  37.074  -2.638  1.00  0.00     0.198 C
HETATM   16  C11 UNL     1      37.396  37.480  -3.926  1.00  0.00     0.298 C
ENDBRANCH  10  11
ENDBRANCH   9  10
TORSDOF 2
ENDMDL