MODEL 3
REMARK VINA RESULT: -5.065819959      4.586      9.006
REMARK  3 active torsions:
REMARK  status: ('A' for Active; 'I' for Inactive)
REMARK    1  A    between atoms: C1_2  and  C2_3
REMARK    2  A    between atoms: C2_3  and  S1_4
REMARK    3  A    between atoms: S1_4  and  C3_5
ROOT
HETATM    1  C3  UNL     1      36.767  40.539  -2.806  1.00  0.00     0.052 C
HETATM    2  C4  UNL     1      35.584  40.143  -1.926  1.00  0.00     0.016 C
HETATM    3  C5  UNL     1      36.114  38.950  -1.132  1.00  0.00     0.008 C
HETATM    4  C6  UNL     1      37.423  38.623  -1.743  1.00  0.00     0.008 C
HETATM    5  C7  UNL     1      37.753  37.179  -1.905  1.00  0.00     0.118 C
HETATM    6  N2  UNL     1      39.115  37.140  -2.345  1.00  0.00    -0.421 N
ATOM      7  H2  UNL     1      39.708  36.326  -2.185  1.00  0.00     0.153 HD
HETATM    8  C8  UNL     1      39.592  38.292  -3.013  1.00  0.00     0.114 C
HETATM    9  C9  UNL     1      38.578  39.076  -3.798  1.00  0.00     0.025 C
HETATM   10  C10 UNL     1      37.233  39.141  -3.169  1.00  0.00     0.006 C
ENDROOT
BRANCH   1  11
HETATM   11  S1  UNL     1      36.308  41.530  -4.215  1.00  0.00    -0.150 SA
BRANCH  11  12
HETATM   12  C2  UNL     1      35.495  40.500  -5.483  1.00  0.00     0.197 C
BRANCH  12  13
HETATM   13  C1  UNL     1      35.041  41.424  -6.537  1.00  0.00     0.069 C
HETATM   14  N1  UNL     1      34.907  41.995  -7.527  1.00  0.00    -0.197 NA
ENDBRANCH  12  13
ENDBRANCH  11  12
ENDBRANCH   1  11
TORSDOF 3
ENDMDL