MODEL 3
REMARK VINA RESULT: -5.991648679      1.992      3.789
REMARK  3 active torsions:
REMARK  status: ('A' for Active; 'I' for Inactive)
REMARK    1  A    between atoms: C2_3  and  C3_4
REMARK    2  A    between atoms: C3_4  and  C4_5
REMARK    3  A    between atoms: C4_5  and  O1_6
ROOT
HETATM    1  N1  UNL     1      37.439  43.006  -2.921  1.00  0.00    -0.197 NA
HETATM    2  C1  UNL     1      36.824  42.235  -3.528  1.00  0.00     0.059 C
HETATM    3  C2  UNL     1      36.025  41.268  -4.288  1.00  0.00     0.127 C
ENDROOT
BRANCH   3   4
HETATM    4  C3  UNL     1      35.145  42.057  -5.221  1.00  0.00     0.054 C
BRANCH   4   5
HETATM    5  C4  UNL     1      34.883  41.333  -6.526  1.00  0.00     0.080 C
HETATM    6  C5  UNL     1      33.566  41.822  -7.057  1.00  0.00     0.040 C
HETATM    7  C6  UNL     1      33.523  41.911  -8.559  1.00  0.00     0.003 C
HETATM    8  C7  UNL     1      32.783  40.759  -9.197  1.00  0.00     0.000 C
HETATM    9  C8  UNL     1      33.707  39.624  -9.582  1.00  0.00     0.002 C
HETATM   10  C9  UNL     1      33.230  38.357  -8.882  1.00  0.00     0.026 C
HETATM   11  C10 UNL     1      34.078  38.237  -7.619  1.00  0.00     0.167 C
HETATM   12  O2  UNL     1      33.680  39.280  -6.787  1.00  0.00    -0.388 OA
HETATM   13  C11 UNL     1      34.822  39.846  -6.201  1.00  0.00     0.205 C
BRANCH   5  14
HETATM   14  O1  UNL     1      35.946  41.635  -7.373  1.00  0.00    -0.388 OA
ATOM     15  H1  UNL     1      35.570  41.844  -8.221  1.00  0.00     0.210 HD
ENDBRANCH   5  14
ENDBRANCH   4   5
ENDBRANCH   3   4
TORSDOF 3
ENDMDL