MODEL 4
REMARK VINA RESULT: -5.549585853      5.198      6.355
REMARK  3 active torsions:
REMARK  status: ('A' for Active; 'I' for Inactive)
REMARK    1  A    between atoms: N1_1  and  C1_5
REMARK    2  A    between atoms: N2_7  and  C3_8
REMARK    3  A    between atoms: C3_8  and  C4_9
ROOT
HETATM    1  C1  UNL     1      36.112  41.140  -4.669  1.00  0.00     0.348 C
HETATM    2  C2  UNL     1      35.501  39.929  -5.296  1.00  0.00     0.336 C
HETATM    3  N2  UNL     1      35.114  40.282  -6.649  1.00  0.00     0.116 N
HETATM    4  C11 UNL     1      35.179  41.731  -6.602  1.00  0.00     0.442 C
HETATM    5  O1  UNL     1      36.202  42.052  -5.716  1.00  0.00    -0.328 OA
ENDROOT
BRANCH   3   6
HETATM    6  C3  UNL     1      33.721  39.859  -6.797  1.00  0.00     0.280 C
BRANCH   6   7
HETATM    7  C4  UNL     1      33.618  38.402  -7.180  1.00  0.00     0.014 C
HETATM    8  C5  UNL     1      32.691  37.700  -6.243  1.00  0.00     0.006 C
HETATM    9  C6  UNL     1      32.241  36.353  -6.710  1.00  0.00     0.000 C
HETATM   10  C7  UNL     1      30.902  36.530  -7.441  1.00  0.00     0.000 C
HETATM   11  C8  UNL     1      31.231  36.870  -8.873  1.00  0.00     0.000 C
HETATM   12  C9  UNL     1      31.771  38.299  -8.876  1.00  0.00     0.000 C
HETATM   13  C10 UNL     1      33.242  38.314  -8.616  1.00  0.00     0.006 C
ENDBRANCH   6   7
ENDBRANCH   3   6
BRANCH   1  14
HETATM   14  N1  UNL     1      35.258  41.708  -3.632  1.00  0.00    -0.051 N
ATOM     15  H13 UNL     1      35.077  41.031  -2.890  1.00  0.00     0.277 HD
ATOM     16  H12 UNL     1      35.756  42.414  -3.089  1.00  0.00     0.277 HD
ATOM     17  H11 UNL     1      34.389  42.080  -4.014  1.00  0.00     0.277 HD
ENDBRANCH   1  14
TORSDOF 3
ENDMDL