MODEL 1
REMARK VINA RESULT: -5.250758353      0.000      0.000
REMARK  2 active torsions:
REMARK  status: ('A' for Active; 'I' for Inactive)
REMARK    1  A    between atoms: C2_2  and  S1_3
REMARK    2  A    between atoms: S1_3  and  C3_4
ROOT
HETATM    1  C3  UNL     1      36.781  39.013  -4.011  1.00  0.00     0.071 C
HETATM    2  C4  UNL     1      35.663  38.803  -3.035  1.00  0.00     0.183 C
HETATM    3  O1  UNL     1      35.222  39.961  -2.426  1.00  0.00    -0.384 OA
HETATM    4  C5  UNL     1      36.234  40.576  -1.674  1.00  0.00     0.128 C
HETATM    5  C6  UNL     1      35.600  41.700  -0.922  1.00  0.00     0.051 C
HETATM    6  C7  UNL     1      36.134  43.057  -1.194  1.00  0.00     0.116 C
HETATM    7  N1  UNL     1      36.492  43.345  -2.546  1.00  0.00    -0.421 N
ATOM      8  H1  UNL     1      36.722  44.287  -2.863  1.00  0.00     0.153 HD
HETATM    9  C8  UNL     1      36.504  42.209  -3.425  1.00  0.00     0.120 C
HETATM   10  C9  UNL     1      37.224  41.100  -2.669  1.00  0.00     0.033 C
HETATM   11  C10 UNL     1      37.761  40.072  -3.610  1.00  0.00     0.026 C
ENDROOT
BRANCH   1  12
HETATM   12  S1  UNL     1      37.715  37.449  -4.103  1.00  0.00    -0.163 SA
BRANCH  12  13
HETATM   13  C2  UNL     1      38.983  37.339  -2.831  1.00  0.00     0.070 C
HETATM   14  C1  UNL     1      38.402  37.018  -1.462  1.00  0.00     0.016 C
ENDBRANCH  12  13
ENDBRANCH   1  12
TORSDOF 2
ENDMDL