MODEL 2
REMARK VINA RESULT: -5.169330548      7.876      9.515
REMARK  3 active torsions:
REMARK  status: ('A' for Active; 'I' for Inactive)
REMARK    1  A    between atoms: O1_1  and  C1_3
REMARK    2  A    between atoms: C1_3  and  C2_4
REMARK    3  A    between atoms: C2_4  and  C3_5
ROOT
HETATM    1  C1  UNL     1      36.087  41.221  -2.443  1.00  0.00     0.080 C
HETATM    2  C6  UNL     1      36.518  41.610  -1.075  1.00  0.00     0.042 C
HETATM    3  C7  UNL     1      36.588  43.107  -0.860  1.00  0.00     0.029 C
HETATM    4  C8  UNL     1      37.407  43.784  -1.941  1.00  0.00     0.167 C
HETATM    5  O2  UNL     1      37.460  43.004  -3.096  1.00  0.00    -0.388 OA
HETATM    6  C9  UNL     1      36.209  42.480  -3.324  1.00  0.00     0.205 C
ENDROOT
BRANCH   1   7
HETATM    7  O1  UNL     1      34.720  40.916  -2.492  1.00  0.00    -0.388 OA
ATOM      8  H1  UNL     1      34.231  41.297  -1.773  1.00  0.00     0.210 HD
ENDBRANCH   1   7
BRANCH   1   9
HETATM    9  C2  UNL     1      36.935  40.178  -3.072  1.00  0.00     0.055 C
BRANCH   9  10
HETATM   10  C3  UNL     1      37.504  39.131  -2.211  1.00  0.00     0.051 C
HETATM   11  C4  UNL     1      36.668  38.041  -1.657  1.00  0.00     0.025 C
HETATM   12  C5  UNL     1      37.995  37.331  -1.318  1.00  0.00     0.075 C
HETATM   13  S1  UNL     1      38.537  37.867  -2.989  1.00  0.00    -0.164 SA
ENDBRANCH   9  10
ENDBRANCH   1   9
TORSDOF 3
ENDMDL