MODEL 2
REMARK VINA RESULT: -5.326989153      1.513      1.660
REMARK  3 active torsions:
REMARK  status: ('A' for Active; 'I' for Inactive)
REMARK    1  A    between atoms: O1_1  and  C1_3
REMARK    2  A    between atoms: C1_3  and  C2_4
REMARK    3  A    between atoms: C2_4  and  N1_5
ROOT
HETATM    1  N1  UNL     1      35.737  39.635  -3.412  1.00  0.00     0.109 N
HETATM    2  C3  UNL     1      35.759  39.110  -2.054  1.00  0.00     0.224 C
HETATM    3  C4  UNL     1      36.073  40.175  -1.038  1.00  0.00     0.036 C
HETATM    4  C5  UNL     1      35.316  41.452  -1.238  1.00  0.00     0.003 C
HETATM    5  C6  UNL     1      36.326  42.569  -1.421  1.00  0.00     0.010 C
HETATM    6  C7  UNL     1      36.557  42.666  -2.933  1.00  0.00     0.076 C
HETATM    7  S1  UNL     1      37.764  41.467  -3.463  1.00  0.00    -0.134 SA
HETATM    8  C8  UNL     1      37.159  39.822  -3.716  1.00  0.00     0.284 C
HETATM    9  C9  UNL     1      37.918  38.806  -2.897  1.00  0.00     0.049 C
HETATM   10  C10 UNL     1      36.900  38.110  -2.019  1.00  0.00     0.038 C
ENDROOT
BRANCH   1  11
HETATM   11  C2  UNL     1      35.284  38.591  -4.299  1.00  0.00     0.300 C
BRANCH  11  12
HETATM   12  C1  UNL     1      35.335  38.943  -5.757  1.00  0.00     0.194 C
BRANCH  12  13
HETATM   13  O1  UNL     1      34.110  39.603  -6.025  1.00  0.00    -0.399 OA
ATOM     14  H1  UNL     1      33.433  38.987  -5.773  1.00  0.00     0.209 HD
ENDBRANCH  12  13
ENDBRANCH  11  12
ENDBRANCH   1  11
TORSDOF 3
ENDMDL