MODEL 2
REMARK VINA RESULT: -7.243597578      1.196      1.527
REMARK  12 active torsions:
REMARK  status: ('A' for Active; 'I' for Inactive)
REMARK    1  A    between atoms: N2_5  and  C4_6
REMARK    2  A    between atoms: C4_6  and  C5_7
REMARK    3  A    between atoms: C5_7  and  C6_8
REMARK    4  A    between atoms: C6_8  and  N3_9
REMARK    5  A    between atoms: N3_9  and  C7_12
REMARK    6  A    between atoms: C7_12  and  C8_13
REMARK    7  A    between atoms: C8_13  and  C9_14
REMARK    8  A    between atoms: C9_14  and  N4_15
REMARK       I    between atoms: N4_15  and  C10_17
REMARK       I    between atoms: C10_17  and  N6_21
REMARK    9  A    between atoms: N6_21  and  C11_23
REMARK   10  A    between atoms: C11_23  and  C12_24
REMARK   11  A    between atoms: C12_24  and  N7_25
REMARK   12  A    between atoms: C13_29  and  O1_30
ROOT
HETATM    1  C7  UNL     1      22.286  46.865  18.675  1.00  0.00     0.234 C
ENDROOT
BRANCH   1   2
HETATM    2  N3  UNL     1      23.353  46.545  17.738  1.00  0.00    -0.075 N
ATOM      3  H32 UNL     1      24.012  47.311  17.602  1.00  0.00     0.277 HD
ATOM      4  H31 UNL     1      23.033  46.478  16.772  1.00  0.00     0.277 HD
BRANCH   2   5
HETATM    5  C6  UNL     1      23.988  45.311  18.227  1.00  0.00     0.234 C
BRANCH   5   6
HETATM    6  C5  UNL     1      24.407  44.589  16.926  1.00  0.00     0.057 C
BRANCH   6   7
HETATM    7  C4  UNL     1      23.149  44.140  16.228  1.00  0.00     0.277 C
BRANCH   7   8
HETATM    8  N2  UNL     1      23.262  44.450  14.828  1.00  0.00     0.120 N
HETATM    9  C3  UNL     1      24.638  44.786  14.464  1.00  0.00     0.295 C
HETATM   10  C2  UNL     1      24.711  44.705  12.950  1.00  0.00     0.146 C
HETATM   11  N1  UNL     1      23.724  45.475  12.280  1.00  0.00    -0.411 N
HETATM   12  C1  UNL     1      24.146  46.727  11.740  1.00  0.00     0.143 C
HETATM   13  C14 UNL     1      22.420  45.490  12.863  1.00  0.00     0.180 C
HETATM   14  C13 UNL     1      22.455  45.569  14.393  1.00  0.00     0.374 C
BRANCH  14  15
HETATM   15  O1  UNL     1      23.009  46.791  14.761  1.00  0.00    -0.366 OA
ATOM     16  H1  UNL     1      23.952  46.808  14.643  1.00  0.00     0.212 HD
ENDBRANCH  14  15
ENDBRANCH   7   8
ENDBRANCH   6   7
ENDBRANCH   5   6
ENDBRANCH   2   5
ENDBRANCH   1   2
BRANCH   1  17
HETATM   17  C8  UNL     1      20.986  46.219  18.223  1.00  0.00     0.048 C
BRANCH  17  18
HETATM   18  C9  UNL     1      20.438  45.257  19.261  1.00  0.00     0.139 C
BRANCH  18  19
HETATM   19  N4  UNL     1      19.139  44.776  18.770  1.00  0.00    -0.227 N
HETATM   20  C10 UNL     1      19.107  43.405  18.365  1.00  0.00     0.667 C
HETATM   21  N5  UNL     1      19.211  42.507  19.307  1.00  0.00    -0.235 N
HETATM   22  N6  UNL     1      18.971  43.014  17.022  1.00  0.00    -0.225 N
ATOM     23  H52 UNL     1      19.309  42.790  20.282  1.00  0.00     0.174 HD
ATOM     24  H51 UNL     1      19.188  41.529  19.017  1.00  0.00     0.174 HD
ATOM     25  H6  UNL     1      19.546  43.451  16.301  1.00  0.00     0.177 HD
ATOM     26  H4  UNL     1      18.317  45.378  18.722  1.00  0.00     0.177 HD
BRANCH  22  27
HETATM   27  C11 UNL     1      18.016  41.994  16.665  1.00  0.00     0.165 C
BRANCH  27  28
HETATM   28  C12 UNL     1      16.627  42.622  16.587  1.00  0.00     0.249 C
BRANCH  28  29
HETATM   29  N7  UNL     1      15.814  42.248  17.725  1.00  0.00    -0.078 N
ATOM     30  H73 UNL     1      15.840  41.242  17.889  1.00  0.00     0.274 HD
ATOM     31  H72 UNL     1      16.230  42.561  18.602  1.00  0.00     0.274 HD
ATOM     32  H71 UNL     1      14.857  42.586  17.624  1.00  0.00     0.274 HD
ENDBRANCH  28  29
ENDBRANCH  27  28
ENDBRANCH  22  27
ENDBRANCH  18  19
ENDBRANCH  17  18
ENDBRANCH   1  17
TORSDOF 12
ENDMDL