MODEL 5
REMARK VINA RESULT: -6.809792194      2.818      3.763
REMARK  13 active torsions:
REMARK  status: ('A' for Active; 'I' for Inactive)
REMARK    1  A    between atoms: C2_2  and  N1_3
REMARK    2  A    between atoms: N1_3  and  C3_4
REMARK    3  A    between atoms: N1_3  and  N8_28
REMARK    4  A    between atoms: C3_4  and  C4_5
REMARK    5  A    between atoms: C4_5  and  C5_6
REMARK    6  A    between atoms: C5_6  and  C6_7
REMARK    7  A    between atoms: C6_7  and  N2_8
REMARK    8  A    between atoms: N2_8  and  C7_10
REMARK    9  A    between atoms: C8_13  and  N4_14
REMARK   10  A    between atoms: C10_19  and  N6_20
REMARK   11  A    between atoms: N6_20  and  C11_22
REMARK   12  A    between atoms: C11_22  and  C12_23
REMARK   13  A    between atoms: C12_23  and  O1_24
ROOT
HETATM    1  C7  UNL     1      22.008  44.024  17.704  1.00  0.00     0.707 A
HETATM    2  N3  UNL     1      22.350  45.264  18.103  1.00  0.00    -0.022 N
ATOM      3  H3  UNL     1      23.244  45.663  17.819  1.00  0.00     0.203 HD
HETATM    4  C8  UNL     1      21.511  45.974  18.877  1.00  0.00     0.706 A
HETATM    5  N5  UNL     1      20.350  45.413  19.224  1.00  0.00    -0.022 N
ATOM      6  H5  UNL     1      19.710  45.948  19.810  1.00  0.00     0.203 HD
HETATM    7  C10 UNL     1      19.980  44.169  18.838  1.00  0.00     0.707 A
HETATM    8  N7  UNL     1      20.839  43.467  18.059  1.00  0.00    -0.022 N
ATOM      9  H7  UNL     1      20.599  42.526  17.745  1.00  0.00     0.203 HD
ENDROOT
BRANCH   1  10
HETATM   10  N2  UNL     1      22.841  43.387  16.966  1.00  0.00    -0.225 N
ATOM     11  H2  UNL     1      22.595  42.425  16.735  1.00  0.00     0.177 HD
BRANCH  10  12
HETATM   12  C6  UNL     1      24.073  43.870  16.433  1.00  0.00     0.138 C
BRANCH  12  13
HETATM   13  C5  UNL     1      24.004  44.014  14.932  1.00  0.00     0.021 C
BRANCH  13  14
HETATM   14  C4  UNL     1      25.275  43.593  14.235  1.00  0.00     0.018 C
BRANCH  14  15
HETATM   15  C3  UNL     1      25.946  42.520  15.025  1.00  0.00     0.113 C
BRANCH  15  16
HETATM   16  N1  UNL     1      27.372  42.728  15.197  1.00  0.00    -0.237 NA
BRANCH  16  17
HETATM   17  C2  UNL     1      28.008  41.721  14.327  1.00  0.00     0.109 C
HETATM   18  C1  UNL     1      27.520  40.328  14.686  1.00  0.00     0.022 C
ENDBRANCH  16  17
BRANCH  16  19
HETATM   19  N8  UNL     1      27.749  43.958  14.696  1.00  0.00    -0.359 N
HETATM   20  C13 UNL     1      29.066  44.025  14.151  1.00  0.00     0.161 C
ATOM     21  H8  UNL     1      27.127  44.766  14.714  1.00  0.00     0.173 HD
ENDBRANCH  16  19
ENDBRANCH  15  16
ENDBRANCH  14  15
ENDBRANCH  13  14
ENDBRANCH  12  13
ENDBRANCH  10  12
ENDBRANCH   1  10
BRANCH   4  22
HETATM   22  N4  UNL     1      21.809  47.174  19.282  1.00  0.00    -0.229 N
HETATM   23  C9  UNL     1      22.301  48.191  18.384  1.00  0.00     0.165 C
ATOM     24  H4  UNL     1      21.690  47.404  20.269  1.00  0.00     0.177 HD
ENDBRANCH   4  22
BRANCH   7  25
HETATM   25  N6  UNL     1      18.858  43.645  19.183  1.00  0.00    -0.223 N
ATOM     26  H6  UNL     1      18.363  43.988  20.006  1.00  0.00     0.177 HD
BRANCH  25  27
HETATM   27  C11 UNL     1      18.305  42.574  18.399  1.00  0.00     0.164 C
BRANCH  27  28
HETATM   28  C12 UNL     1      18.608  41.272  19.088  1.00  0.00     0.184 C
BRANCH  28  29
HETATM   29  O1  UNL     1      19.797  40.708  18.684  1.00  0.00    -0.399 OA
ATOM     30  H1  UNL     1      20.560  41.158  19.026  1.00  0.00     0.209 HD
ENDBRANCH  28  29
ENDBRANCH  27  28
ENDBRANCH  25  27
ENDBRANCH   7  25
TORSDOF 13
ENDMDL