MODEL 1
REMARK VINA RESULT: -7.212636696      0.000      0.000
REMARK  13 active torsions:
REMARK  status: ('A' for Active; 'I' for Inactive)
REMARK    1  A    between atoms: N1_2  and  C2_3
REMARK    2  A    between atoms: C2_3  and  C3_4
REMARK    3  A    between atoms: C3_4  and  N2_5
REMARK    4  A    between atoms: N2_5  and  C4_7
REMARK    5  A    between atoms: C4_7  and  C5_8
REMARK    6  A    between atoms: C5_8  and  C6_9
REMARK    7  A    between atoms: C6_9  and  C7_10
REMARK    8  A    between atoms: C7_10  and  N3_11
REMARK    9  A    between atoms: N3_11  and  C8_13
REMARK   10  A    between atoms: C8_13  and  C9_14
REMARK   11  A    between atoms: C11_16  and  O1_17
REMARK   12  A    between atoms: C12_19  and  C13_20
REMARK   13  A    between atoms: C13_20  and  O2_21
ROOT
HETATM    1  N3  UNL     1      18.822  44.044  19.325  1.00  0.00    -0.419 N
ATOM      2  H3  UNL     1      17.953  43.982  19.856  1.00  0.00     0.153 HD
ENDROOT
BRANCH   1   3
HETATM    3  C7  UNL     1      19.646  45.202  19.367  1.00  0.00     0.113 C
BRANCH   3   4
HETATM    4  C6  UNL     1      21.033  44.889  18.916  1.00  0.00     0.021 C
BRANCH   4   5
HETATM    5  C5  UNL     1      21.930  46.087  18.909  1.00  0.00     0.021 C
BRANCH   5   6
HETATM    6  C4  UNL     1      22.050  46.762  17.590  1.00  0.00     0.119 C
BRANCH   6   7
HETATM    7  N2  UNL     1      21.474  45.941  16.523  1.00  0.00    -0.398 N
ATOM      8  H2  UNL     1      20.536  45.549  16.588  1.00  0.00     0.158 HD
BRANCH   7   9
HETATM    9  C3  UNL     1      22.294  45.729  15.407  1.00  0.00     0.108 C
BRANCH   9  10
HETATM   10  C2  UNL     1      23.726  45.604  15.713  1.00  0.00     0.218 C
BRANCH  10  11
HETATM   11  N1  UNL     1      24.392  44.433  16.023  1.00  0.00    -0.050 N
HETATM   12  C1  UNL     1      24.704  43.643  14.780  1.00  0.00     0.278 C
HETATM   13  C14 UNL     1      24.248  43.619  17.152  1.00  0.00     0.244 C
HETATM   14  C15 UNL     1      25.145  44.505  17.949  1.00  0.00     0.057 C
HETATM   15  C16 UNL     1      25.751  44.775  16.561  1.00  0.00     0.244 C
ENDBRANCH  10  11
ENDBRANCH   9  10
ENDBRANCH   7   9
ENDBRANCH   6   7
ENDBRANCH   5   6
ENDBRANCH   4   5
ENDBRANCH   3   4
ENDBRANCH   1   3
BRANCH   1  16
HETATM   16  C8  UNL     1      19.273  42.981  18.505  1.00  0.00     0.147 C
BRANCH  16  17
HETATM   17  C9  UNL     1      18.328  42.658  17.378  1.00  0.00     0.206 C
HETATM   18  C10 UNL     1      17.001  43.322  17.586  1.00  0.00     0.068 C
HETATM   19  C11 UNL     1      16.034  42.158  17.588  1.00  0.00     0.153 C
HETATM   20  C12 UNL     1      16.735  41.145  16.700  1.00  0.00     0.238 C
HETATM   21  N4  UNL     1      18.095  41.257  17.216  1.00  0.00    -0.061 N
ATOM     22  H42 UNL     1      18.792  40.789  16.637  1.00  0.00     0.278 HD
ATOM     23  H41 UNL     1      18.257  40.714  18.064  1.00  0.00     0.278 HD
BRANCH  19  24
HETATM   24  O1  UNL     1      16.014  41.619  18.867  1.00  0.00    -0.393 OA
ATOM     25  H1  UNL     1      15.106  41.502  19.123  1.00  0.00     0.210 HD
ENDBRANCH  19  24
BRANCH  20  26
HETATM   26  C13 UNL     1      16.752  41.567  15.252  1.00  0.00     0.199 C
BRANCH  26  27
HETATM   27  O2  UNL     1      15.506  41.993  14.809  1.00  0.00    -0.399 OA
ATOM     28  H2  UNL     1      15.127  41.401  14.170  1.00  0.00     0.209 HD
ENDBRANCH  26  27
ENDBRANCH  20  26
ENDBRANCH  16  17
ENDBRANCH   1  16
TORSDOF 13
ENDMDL