MODEL 4
REMARK VINA RESULT: -8.095850044      2.346      3.037
REMARK  13 active torsions:
REMARK  status: ('A' for Active; 'I' for Inactive)
REMARK    1  A    between atoms: N1_1  and  C1_5
REMARK    2  A    between atoms: C1_5  and  C2_6
REMARK    3  A    between atoms: C2_6  and  N2_7
REMARK    4  A    between atoms: N2_7  and  C3_9
REMARK    5  A    between atoms: C5_16  and  N5_17
REMARK    6  A    between atoms: N5_17  and  C6_19
REMARK    7  A    between atoms: C6_19  and  C7_20
REMARK    8  A    between atoms: C7_20  and  C8_21
REMARK    9  A    between atoms: C8_21  and  C9_22
REMARK   10  A    between atoms: C9_22  and  C10_23
REMARK   11  A    between atoms: C10_23  and  C11_24
REMARK   12  A    between atoms: C11_24  and  C12_25
REMARK   13  A    between atoms: C12_25  and  N6_26
ROOT
HETATM    1  C3  UNL     1      17.129  42.554  18.061  1.00  0.00     0.696 A
HETATM    2  N3  UNL     1      17.934  41.503  18.293  1.00  0.00    -0.140 N
ATOM      3  H3  UNL     1      17.554  40.559  18.232  1.00  0.00     0.189 HD
HETATM    4  C4  UNL     1      19.231  41.673  18.602  1.00  0.00     0.352 A
HETATM    5  O1  UNL     1      19.946  40.640  18.812  1.00  0.00    -0.246 OA
HETATM    6  N4  UNL     1      19.761  42.885  18.689  1.00  0.00    -0.140 N
ATOM      7  H4  UNL     1      20.747  43.005  18.925  1.00  0.00     0.189 HD
HETATM    8  C5  UNL     1      18.967  43.966  18.458  1.00  0.00     0.696 A
HETATM    9  N9  UNL     1      17.691  43.779  18.155  1.00  0.00    -0.022 N
ATOM     10  H9  UNL     1      17.107  44.597  17.984  1.00  0.00     0.203 HD
ENDROOT
BRANCH   8  11
HETATM   11  N5  UNL     1      19.543  45.101  18.559  1.00  0.00    -0.225 N
ATOM     12  H5  UNL     1      19.021  45.950  18.341  1.00  0.00     0.177 HD
BRANCH  11  13
HETATM   13  C6  UNL     1      20.919  45.203  18.973  1.00  0.00     0.138 C
BRANCH  13  14
HETATM   14  C7  UNL     1      21.502  46.418  18.337  1.00  0.00     0.020 C
BRANCH  14  15
HETATM   15  C8  UNL     1      22.537  46.097  17.251  1.00  0.00     0.002 C
BRANCH  15  16
HETATM   16  C9  UNL     1      22.060  46.475  15.910  1.00  0.00     0.000 C
BRANCH  16  17
HETATM   17  C10 UNL     1      22.043  45.484  14.816  1.00  0.00     0.002 C
BRANCH  17  18
HETATM   18  C11 UNL     1      23.204  45.211  13.973  1.00  0.00     0.020 C
BRANCH  18  19
HETATM   19  C12 UNL     1      24.489  44.766  14.539  1.00  0.00     0.122 C
BRANCH  19  20
HETATM   20  N6  UNL     1      24.164  43.547  15.342  1.00  0.00    -0.367 N
HETATM   21  C13 UNL     1      24.840  43.299  16.398  1.00  0.00     0.196 C
HETATM   22  N7  UNL     1      25.878  44.164  16.797  1.00  0.00    -0.067 NA
HETATM   23  N8  UNL     1      24.538  42.151  17.160  1.00  0.00    -0.067 NA
ATOM     24  H6  UNL     1      23.411  42.922  15.050  1.00  0.00     0.161 HD
ENDBRANCH  19  20
ENDBRANCH  18  19
ENDBRANCH  17  18
ENDBRANCH  16  17
ENDBRANCH  15  16
ENDBRANCH  14  15
ENDBRANCH  13  14
ENDBRANCH  11  13
ENDBRANCH   8  11
BRANCH   1  25
HETATM   25  N2  UNL     1      15.904  42.389  17.769  1.00  0.00    -0.224 N
ATOM     26  H2  UNL     1      15.199  42.778  18.395  1.00  0.00     0.177 HD
BRANCH  25  27
HETATM   27  C2  UNL     1      15.465  41.682  16.602  1.00  0.00     0.165 C
BRANCH  27  28
HETATM   28  C1  UNL     1      16.092  42.227  15.339  1.00  0.00     0.249 C
BRANCH  28  29
HETATM   29  N1  UNL     1      17.047  41.264  14.829  1.00  0.00    -0.078 N
ATOM     30  H13 UNL     1      17.795  41.071  15.494  1.00  0.00     0.274 HD
ATOM     31  H12 UNL     1      16.657  40.324  14.773  1.00  0.00     0.274 HD
ATOM     32  H11 UNL     1      17.402  41.590  13.930  1.00  0.00     0.274 HD
ENDBRANCH  28  29
ENDBRANCH  27  28
ENDBRANCH  25  27
ENDBRANCH   1  25
TORSDOF 13
ENDMDL