MODEL 1
REMARK VINA RESULT: -7.456471355      0.000      0.000
REMARK  15 active torsions:
REMARK  status: ('A' for Active; 'I' for Inactive)
REMARK    1  A    between atoms: C3_3  and  N1_4
REMARK    2  A    between atoms: N1_4  and  C4_6
REMARK    3  A    between atoms: C5_9  and  N3_10
REMARK    4  A    between atoms: N3_10  and  C6_12
REMARK    5  A    between atoms: C6_12  and  C7_13
REMARK    6  A    between atoms: C7_13  and  C8_14
REMARK    7  A    between atoms: C8_14  and  O1_15
REMARK    8  A    between atoms: C9_19  and  N5_20
REMARK    9  A    between atoms: N5_20  and  C10_22
REMARK   10  A    between atoms: C10_22  and  C11_23
REMARK   11  A    between atoms: C11_23  and  C12_24
REMARK   12  A    between atoms: C12_24  and  C13_25
REMARK   13  A    between atoms: C13_25  and  N6_26
REMARK   14  A    between atoms: N6_26  and  C14_29
REMARK   15  A    between atoms: C14_29  and  O2_30
ROOT
HETATM    1  C1  UNL     1      23.099  47.406  10.617  1.00  0.00     0.014 C
HETATM    2  C2  UNL     1      23.704  46.693  11.385  1.00  0.00    -0.097 C
HETATM    3  C3  UNL     1      24.440  45.821  12.322  1.00  0.00     0.231 C
ENDROOT
BRANCH   3   4
HETATM    4  N1  UNL     1      23.503  45.056  13.100  1.00  0.00    -0.215 N
ATOM      5  H1  UNL     1      22.538  45.004  12.776  1.00  0.00     0.178 HD
BRANCH   4   6
HETATM    6  C4  UNL     1      23.816  44.432  14.181  1.00  0.00     0.708 A
HETATM    7  N2  UNL     1      23.040  44.481  15.303  1.00  0.00    -0.021 N
HETATM    8  C5  UNL     1      23.402  43.816  16.414  1.00  0.00     0.707 A
ATOM      9  H2  UNL     1      22.179  45.028  15.298  1.00  0.00     0.203 HD
HETATM   10  N4  UNL     1      24.536  43.103  16.402  1.00  0.00    -0.022 N
HETATM   11  C9  UNL     1      25.329  43.027  15.318  1.00  0.00     0.707 A
ATOM     12  H4  UNL     1      24.808  42.598  17.246  1.00  0.00     0.203 HD
HETATM   13  N7  UNL     1      24.946  43.706  14.210  1.00  0.00    -0.021 N
ATOM     14  H7  UNL     1      25.530  43.665  13.376  1.00  0.00     0.203 HD
BRANCH   8  15
HETATM   15  N3  UNL     1      22.687  43.855  17.461  1.00  0.00    -0.225 N
ATOM     16  H3  UNL     1      23.144  43.559  18.324  1.00  0.00     0.177 HD
BRANCH  15  17
HETATM   17  C6  UNL     1      21.325  44.262  17.585  1.00  0.00     0.140 C
BRANCH  17  18
HETATM   18  C7  UNL     1      21.057  45.057  18.862  1.00  0.00     0.046 C
BRANCH  18  19
HETATM   19  C8  UNL     1      19.602  44.771  19.239  1.00  0.00     0.165 C
BRANCH  19  20
HETATM   20  O1  UNL     1      19.222  45.510  20.330  1.00  0.00    -0.401 OA
ATOM     21  H1  UNL     1      18.707  44.988  20.934  1.00  0.00     0.209 HD
ENDBRANCH  19  20
ENDBRANCH  18  19
ENDBRANCH  17  18
ENDBRANCH  15  17
ENDBRANCH   8  15
BRANCH  11  22
HETATM   22  N5  UNL     1      26.413  42.373  15.239  1.00  0.00    -0.225 N
ATOM     23  H5  UNL     1      27.011  42.396  16.065  1.00  0.00     0.177 HD
BRANCH  22  24
HETATM   24  C10 UNL     1      26.899  41.607  14.133  1.00  0.00     0.138 C
BRANCH  24  25
HETATM   25  C11 UNL     1      27.674  40.427  14.706  1.00  0.00     0.022 C
BRANCH  25  26
HETATM   26  C12 UNL     1      26.784  39.181  14.656  1.00  0.00     0.029 C
BRANCH  26  27
HETATM   27  C13 UNL     1      26.770  38.496  15.995  1.00  0.00     0.235 C
BRANCH  27  28
HETATM   28  N6  UNL     1      25.720  37.546  16.143  1.00  0.00    -0.054 N
ATOM     29  H62 UNL     1      24.921  37.808  15.565  1.00  0.00     0.279 HD
ATOM     30  H61 UNL     1      25.975  36.663  15.700  1.00  0.00     0.279 HD
BRANCH  28  31
HETATM   31  C14 UNL     1      25.308  37.325  17.489  1.00  0.00     0.396 C
BRANCH  31  32
HETATM   32  O2  UNL     1      26.019  38.035  18.425  1.00  0.00    -0.375 OA
ATOM     33  H2  UNL     1      25.501  38.656  18.925  1.00  0.00     0.211 HD
ENDBRANCH  31  32
ENDBRANCH  28  31
ENDBRANCH  27  28
ENDBRANCH  26  27
ENDBRANCH  25  26
ENDBRANCH  24  25
ENDBRANCH  22  24
ENDBRANCH  11  22
ENDBRANCH   4   6
ENDBRANCH   3   4
TORSDOF 15
ENDMDL