MODEL 3
REMARK VINA RESULT: -7.575673434      3.579      7.161
REMARK  12 active torsions:
REMARK  status: ('A' for Active; 'I' for Inactive)
REMARK    1  A    between atoms: C4_4  and  N1_5
REMARK    2  A    between atoms: N1_5  and  C5_7
REMARK    3  A    between atoms: C5_7  and  C6_8
REMARK    4  A    between atoms: C6_8  and  N2_9
REMARK    5  A    between atoms: N2_9  and  C7_12
REMARK    6  A    between atoms: C7_12  and  C8_13
REMARK    7  A    between atoms: C8_13  and  C9_14
REMARK    8  A    between atoms: C9_14  and  N3_15
REMARK    9  A    between atoms: N4_21  and  C11_22
REMARK   10  A    between atoms: C11_22  and  C12_23
REMARK   11  A    between atoms: C12_23  and  C13_24
REMARK   12  A    between atoms: C13_24  and  N5_25
REMARK       I    between atoms: N5_25  and  C14_27
ROOT
HETATM    1  C1  UNL     1      23.626  45.912  14.202  1.00  0.00     0.016 C
HETATM    2  C2  UNL     1      23.322  44.461  14.588  1.00  0.00     0.025 C
HETATM    3  C3  UNL     1      24.606  43.731  14.529  1.00  0.00     0.014 C
HETATM    4  C4  UNL     1      25.440  43.747  15.547  1.00  0.00     0.093 C
HETATM    5  C10 UNL     1      25.049  44.416  16.816  1.00  0.00     0.273 C
HETATM    6  O1  UNL     1      25.794  44.472  17.805  1.00  0.00    -0.266 OA
HETATM    7  N4  UNL     1      23.747  45.019  16.876  1.00  0.00    -0.326 N
HETATM    8  C15 UNL     1      22.752  44.395  15.988  1.00  0.00     0.139 C
ENDROOT
BRANCH   4   9
HETATM    9  N1  UNL     1      26.668  43.076  15.529  1.00  0.00    -0.384 N
ATOM     10  H1  UNL     1      27.157  43.053  16.424  1.00  0.00     0.159 HD
BRANCH   9  11
HETATM   11  C5  UNL     1      27.346  42.420  14.459  1.00  0.00     0.147 C
BRANCH  11  12
HETATM   12  C6  UNL     1      27.661  40.976  14.672  1.00  0.00     0.251 C
BRANCH  12  13
HETATM   13  N2  UNL     1      26.728  40.251  15.483  1.00  0.00    -0.074 N
ATOM     14  H22 UNL     1      26.493  40.760  16.335  1.00  0.00     0.277 HD
ATOM     15  H21 UNL     1      25.800  40.225  15.060  1.00  0.00     0.277 HD
BRANCH  13  16
HETATM   16  C7  UNL     1      27.221  38.927  15.769  1.00  0.00     0.234 C
BRANCH  16  17
HETATM   17  C8  UNL     1      26.054  38.072  16.262  1.00  0.00     0.055 C
BRANCH  17  18
HETATM   18  C9  UNL     1      25.550  38.754  17.542  1.00  0.00     0.231 C
BRANCH  18  19
HETATM   19  N3  UNL     1      24.157  38.424  17.766  1.00  0.00    -0.079 N
ATOM     20  H33 UNL     1      24.045  37.493  18.167  1.00  0.00     0.274 HD
ATOM     21  H32 UNL     1      23.755  38.966  18.531  1.00  0.00     0.274 HD
ATOM     22  H31 UNL     1      23.628  38.534  16.901  1.00  0.00     0.274 HD
ENDBRANCH  18  19
ENDBRANCH  17  18
ENDBRANCH  16  17
ENDBRANCH  13  16
ENDBRANCH  12  13
ENDBRANCH  11  12
ENDBRANCH   9  11
ENDBRANCH   4   9
BRANCH   7  23
HETATM   23  C11 UNL     1      23.437  46.139  17.672  1.00  0.00     0.069 C
BRANCH  23  24
HETATM   24  C12 UNL     1      22.729  45.986  18.955  1.00  0.00     0.064 C
BRANCH  24  25
HETATM   25  C13 UNL     1      21.257  45.748  18.930  1.00  0.00     0.127 C
BRANCH  25  26
HETATM   26  N5  UNL     1      20.810  44.481  19.407  1.00  0.00    -0.365 N
HETATM   27  C14 UNL     1      19.787  43.681  18.836  1.00  0.00     0.181 C
HETATM   28  N6  UNL     1      18.572  43.885  19.187  1.00  0.00    -0.374 N
HETATM   29  N7  UNL     1      20.125  42.662  17.884  1.00  0.00    -0.064 NA
ATOM     30  H62 UNL     1      18.331  44.610  19.863  1.00  0.00     0.158 HD
ATOM     31  H61 UNL     1      17.837  43.310  18.776  1.00  0.00     0.158 HD
ATOM     32  H5  UNL     1      21.271  44.113  20.239  1.00  0.00     0.162 HD
ENDBRANCH  25  26
ENDBRANCH  24  25
ENDBRANCH  23  24
ENDBRANCH   7  23
TORSDOF 12
ENDMDL