MODEL 2
REMARK VINA RESULT: -7.182518337      1.516      2.135
REMARK  12 active torsions:
REMARK  status: ('A' for Active; 'I' for Inactive)
REMARK    1  A    between atoms: C4_6  and  N2_7
REMARK    2  A    between atoms: N2_7  and  C5_9
REMARK    3  A    between atoms: C5_9  and  C6_10
REMARK    4  A    between atoms: C6_10  and  O1_11
REMARK    5  A    between atoms: O1_11  and  C7_12
REMARK    6  A    between atoms: C7_12  and  C8_13
REMARK    7  A    between atoms: C8_13  and  N3_14
REMARK    8  A    between atoms: N3_14  and  C9_16
REMARK    9  A    between atoms: C9_16  and  C10_17
REMARK   10  A    between atoms: C10_17  and  C11_18
REMARK   11  A    between atoms: C11_18  and  N4_19
REMARK   12  A    between atoms: C12_25  and  N6_26
REMARK       I    between atoms: N6_26  and  C13_28
ROOT
HETATM    1  C1  UNL     1      26.407  43.102  12.715  1.00  0.00     0.054 C
HETATM    2  C2  UNL     1      25.604  43.226  13.969  1.00  0.00    -0.001 A
HETATM    3  C3  UNL     1      24.545  44.081  14.004  1.00  0.00     0.116 A
HETATM    4  N1  UNL     1      23.830  44.172  15.162  1.00  0.00    -0.201 N
ATOM      5  H1  UNL     1      23.033  44.809  15.202  1.00  0.00     0.183 HD
HETATM    6  C4  UNL     1      24.140  43.452  16.245  1.00  0.00     0.679 A
HETATM    7  N5  UNL     1      25.192  42.617  16.176  1.00  0.00    -0.176 N
ATOM      8  H5  UNL     1      25.429  42.067  17.002  1.00  0.00     0.186 HD
HETATM    9  C12 UNL     1      25.946  42.471  15.075  1.00  0.00     0.130 A
ENDROOT
BRANCH   6  10
HETATM   10  N2  UNL     1      23.430  43.585  17.304  1.00  0.00    -0.224 N
ATOM     11  H2  UNL     1      22.939  42.762  17.654  1.00  0.00     0.177 HD
BRANCH  10  12
HETATM   12  C5  UNL     1      23.279  44.814  18.032  1.00  0.00     0.164 C
BRANCH  12  13
HETATM   13  C6  UNL     1      21.854  45.180  18.285  1.00  0.00     0.188 C
BRANCH  13  14
HETATM   14  O1  UNL     1      21.193  44.411  19.201  1.00  0.00    -0.385 OA
BRANCH  14  15
HETATM   15  C7  UNL     1      19.924  44.034  18.868  1.00  0.00     0.212 C
BRANCH  15  16
HETATM   16  C8  UNL     1      19.889  43.049  17.730  1.00  0.00     0.086 C
BRANCH  16  17
HETATM   17  N3  UNL     1      19.766  41.702  18.075  1.00  0.00    -0.380 N
ATOM     18  H3  UNL     1      20.615  41.152  18.208  1.00  0.00     0.164 HD
BRANCH  17  19
HETATM   19  C9  UNL     1      18.533  41.079  18.244  1.00  0.00     0.062 C
BRANCH  19  20
HETATM   20  C10 UNL     1      17.468  41.433  17.233  1.00  0.00     0.072 C
BRANCH  20  21
HETATM   21  C11 UNL     1      16.305  42.155  17.870  1.00  0.00     0.234 C
BRANCH  21  22
HETATM   22  N4  UNL     1      16.670  42.585  19.207  1.00  0.00    -0.079 N
ATOM     23  H43 UNL     1      15.855  42.843  19.765  1.00  0.00     0.274 HD
ATOM     24  H42 UNL     1      17.002  41.811  19.783  1.00  0.00     0.274 HD
ATOM     25  H41 UNL     1      17.351  43.342  19.150  1.00  0.00     0.274 HD
ENDBRANCH  21  22
ENDBRANCH  20  21
ENDBRANCH  19  20
ENDBRANCH  17  19
ENDBRANCH  16  17
ENDBRANCH  15  16
ENDBRANCH  14  15
ENDBRANCH  13  14
ENDBRANCH  12  13
ENDBRANCH  10  12
ENDBRANCH   6  10
BRANCH   9  26
HETATM   26  N6  UNL     1      26.943  41.693  14.974  1.00  0.00    -0.316 N
HETATM   27  C13 UNL     1      26.963  40.309  14.941  1.00  0.00     0.187 C
HETATM   28  N7  UNL     1      26.786  39.675  13.850  1.00  0.00    -0.373 N
HETATM   29  N8  UNL     1      27.185  39.579  16.128  1.00  0.00    -0.064 NA
ATOM     30  H72 UNL     1      26.626  40.202  12.992  1.00  0.00     0.158 HD
ATOM     31  H71 UNL     1      26.801  38.655  13.826  1.00  0.00     0.158 HD
ATOM     32  H6  UNL     1      27.853  42.150  14.908  1.00  0.00     0.170 HD
ENDBRANCH   9  26
TORSDOF 12
ENDMDL