MODEL 3
REMARK VINA RESULT: -7.704166984      1.018      1.349
REMARK  12 active torsions:
REMARK  status: ('A' for Active; 'I' for Inactive)
REMARK       I    between atoms: C1_4  and  N3_6
REMARK    1  A    between atoms: N3_6  and  C2_8
REMARK    2  A    between atoms: C2_8  and  C3_9
REMARK    3  A    between atoms: C3_9  and  C4_10
REMARK    4  A    between atoms: C4_10  and  C5_11
REMARK    5  A    between atoms: C5_11  and  C6_12
REMARK    6  A    between atoms: C6_12  and  N4_13
REMARK    7  A    between atoms: C8_15  and  N5_16
REMARK    8  A    between atoms: N5_16  and  C9_18
REMARK    9  A    between atoms: C9_18  and  C10_19
REMARK   10  A    between atoms: C10_19  and  C11_20
REMARK   11  A    between atoms: C11_20  and  N6_21
REMARK   12  A    between atoms: C13_26  and  N7_27
ROOT
HETATM    1  N4  UNL     1      22.727  45.188  16.369  1.00  0.00    -0.348 N
HETATM    2  C7  UNL     1      22.858  44.542  17.622  1.00  0.00     0.150 C
HETATM    3  C8  UNL     1      22.328  45.231  18.822  1.00  0.00     0.097 C
HETATM    4  C12 UNL     1      21.976  46.661  18.715  1.00  0.00     0.069 C
HETATM    5  C13 UNL     1      21.807  47.254  17.374  1.00  0.00     0.276 C
HETATM    6  C14 UNL     1      22.502  46.567  16.289  1.00  0.00     0.250 C
HETATM    7  O1  UNL     1      22.890  47.258  15.286  1.00  0.00    -0.271 OA
ENDROOT
BRANCH   1   8
HETATM    8  C6  UNL     1      22.829  44.416  15.141  1.00  0.00     0.126 C
BRANCH   8   9
HETATM    9  C5  UNL     1      24.175  43.801  14.966  1.00  0.00     0.020 C
BRANCH   9  10
HETATM   10  C4  UNL     1      24.983  44.601  13.986  1.00  0.00     0.003 C
BRANCH  10  11
HETATM   11  C3  UNL     1      25.341  43.873  12.729  1.00  0.00     0.020 C
BRANCH  11  12
HETATM   12  C2  UNL     1      24.992  44.705  11.501  1.00  0.00     0.122 C
BRANCH  12  13
HETATM   13  N3  UNL     1      23.757  45.416  11.714  1.00  0.00    -0.365 N
HETATM   14  C1  UNL     1      23.624  46.765  11.242  1.00  0.00     0.181 C
HETATM   15  N1  UNL     1      23.196  46.970  10.051  1.00  0.00    -0.374 N
HETATM   16  N2  UNL     1      23.958  47.854  12.074  1.00  0.00    -0.064 NA
ATOM     17  H12 UNL     1      23.101  47.928   9.715  1.00  0.00     0.158 HD
ATOM     18  H11 UNL     1      22.954  46.183   9.449  1.00  0.00     0.158 HD
ATOM     19  H3  UNL     1      22.981  44.963  12.198  1.00  0.00     0.162 HD
ENDBRANCH  12  13
ENDBRANCH  11  12
ENDBRANCH  10  11
ENDBRANCH   9  10
ENDBRANCH   8   9
ENDBRANCH   1   8
BRANCH   3  20
HETATM   20  N5  UNL     1      21.242  44.499  19.458  1.00  0.00    -0.415 N
ATOM     21  H5  UNL     1      21.327  44.090  20.390  1.00  0.00     0.153 HD
BRANCH  20  22
HETATM   22  C9  UNL     1      20.052  44.396  18.683  1.00  0.00     0.115 C
BRANCH  22  23
HETATM   23  C10 UNL     1      19.404  43.052  18.669  1.00  0.00     0.046 C
BRANCH  23  24
HETATM   24  C11 UNL     1      17.968  43.176  18.174  1.00  0.00     0.231 C
BRANCH  24  25
HETATM   25  N6  UNL     1      17.010  42.894  19.233  1.00  0.00    -0.079 N
ATOM     26  H63 UNL     1      17.478  42.722  20.123  1.00  0.00     0.274 HD
ATOM     27  H62 UNL     1      16.482  43.729  19.490  1.00  0.00     0.274 HD
ATOM     28  H61 UNL     1      16.391  42.123  18.983  1.00  0.00     0.274 HD
ENDBRANCH  24  25
ENDBRANCH  23  24
ENDBRANCH  22  23
ENDBRANCH  20  22
ENDBRANCH   3  20
BRANCH   5  29
HETATM   29  N7  UNL     1      20.419  47.419  16.972  1.00  0.00    -0.066 N
ATOM     30  H73 UNL     1      19.934  46.523  16.982  1.00  0.00     0.275 HD
ATOM     31  H72 UNL     1      19.892  47.908  17.695  1.00  0.00     0.275 HD
ATOM     32  H71 UNL     1      20.301  47.880  16.069  1.00  0.00     0.275 HD
ENDBRANCH   5  29
TORSDOF 12
ENDMDL