MODEL 4
REMARK VINA RESULT: -7.048132665      1.873      2.250
REMARK  13 active torsions:
REMARK  status: ('A' for Active; 'I' for Inactive)
REMARK    1  A    between atoms: C2_2  and  C3_3
REMARK    2  A    between atoms: C3_3  and  S1_4
REMARK    3  A    between atoms: S1_4  and  C4_6
REMARK    4  A    between atoms: C4_6  and  C5_7
REMARK    5  A    between atoms: C5_7  and  C6_8
REMARK    6  A    between atoms: C6_8  and  N1_9
REMARK    7  A    between atoms: N1_9  and  C7_12
REMARK    8  A    between atoms: C7_12  and  C8_13
REMARK    9  A    between atoms: C8_13  and  C9_14
REMARK   10  A    between atoms: C9_14  and  N2_15
REMARK   11  A    between atoms: N2_15  and  C10_17
REMARK   12  A    between atoms: C11_20  and  N4_21
REMARK   13  A    between atoms: C12_26  and  N6_27
ROOT
HETATM    1  N2  UNL     1      18.877  44.579  18.218  1.00  0.00    -0.225 N
ATOM      2  H2  UNL     1      18.695  45.263  17.485  1.00  0.00     0.177 HD
ENDROOT
BRANCH   1   3
HETATM    3  C9  UNL     1      19.680  44.983  19.343  1.00  0.00     0.139 C
BRANCH   3   4
HETATM    4  C8  UNL     1      21.142  45.109  18.988  1.00  0.00     0.048 C
BRANCH   4   5
HETATM    5  C7  UNL     1      21.471  46.486  18.483  1.00  0.00     0.234 C
BRANCH   5   6
HETATM    6  N1  UNL     1      21.541  46.574  17.044  1.00  0.00    -0.075 N
ATOM      7  H12 UNL     1      21.703  47.534  16.739  1.00  0.00     0.277 HD
ATOM      8  H11 UNL     1      20.627  46.422  16.618  1.00  0.00     0.277 HD
BRANCH   6   9
HETATM    9  C6  UNL     1      22.531  45.677  16.494  1.00  0.00     0.233 C
BRANCH   9  10
HETATM   10  C5  UNL     1      23.930  45.997  16.896  1.00  0.00     0.040 C
BRANCH  10  11
HETATM   11  C4  UNL     1      24.639  44.802  17.506  1.00  0.00     0.110 C
BRANCH  11  12
HETATM   12  S1  UNL     1      24.478  43.359  16.438  1.00  0.00     0.018 S
HETATM   13  O1  UNL     1      24.476  42.067  17.211  1.00  0.00    -0.258 OA
BRANCH  12  14
HETATM   14  C3  UNL     1      25.857  43.297  15.276  1.00  0.00     0.135 C
BRANCH  14  15
HETATM   15  C2  UNL     1      25.350  43.428  13.887  1.00  0.00    -0.025 C
HETATM   16  C1  UNL     1      24.462  44.363  13.595  1.00  0.00     0.008 C
ENDBRANCH  14  15
ENDBRANCH  12  14
ENDBRANCH  11  12
ENDBRANCH  10  11
ENDBRANCH   9  10
ENDBRANCH   6   9
ENDBRANCH   5   6
ENDBRANCH   4   5
ENDBRANCH   3   4
ENDBRANCH   1   3
BRANCH   1  17
HETATM   17  C10 UNL     1      18.377  43.397  18.089  1.00  0.00     0.707 A
HETATM   18  N3  UNL     1      17.931  42.929  16.914  1.00  0.00    -0.022 N
HETATM   19  C11 UNL     1      17.400  41.702  16.751  1.00  0.00     0.705 A
ATOM     20  H3  UNL     1      17.997  43.538  16.097  1.00  0.00     0.203 HD
HETATM   21  N5  UNL     1      17.320  40.908  17.837  1.00  0.00    -0.022 N
HETATM   22  C12 UNL     1      17.757  41.334  19.036  1.00  0.00     0.705 A
ATOM     23  H5  UNL     1      16.923  39.973  17.749  1.00  0.00     0.203 HD
HETATM   24  N7  UNL     1      18.280  42.573  19.148  1.00  0.00    -0.022 N
ATOM     25  H7  UNL     1      18.611  42.893  20.058  1.00  0.00     0.203 HD
BRANCH  19  26
HETATM   26  N4  UNL     1      16.970  41.271  15.601  1.00  0.00    -0.234 N
ATOM     27  H42 UNL     1      17.541  40.625  15.055  1.00  0.00     0.174 HD
ATOM     28  H41 UNL     1      16.070  41.551  15.210  1.00  0.00     0.174 HD
ENDBRANCH  19  26
BRANCH  22  29
HETATM   29  N6  UNL     1      17.667  40.551  20.062  1.00  0.00    -0.234 N
ATOM     30  H62 UNL     1      16.827  40.535  20.640  1.00  0.00     0.174 HD
ATOM     31  H61 UNL     1      18.448  39.938  20.298  1.00  0.00     0.174 HD
ENDBRANCH  22  29
ENDBRANCH   1  17
TORSDOF 13
ENDMDL