MODEL 1
REMARK VINA RESULT: -6.849074473      0.000      0.000
REMARK  15 active torsions:
REMARK  status: ('A' for Active; 'I' for Inactive)
REMARK    1  A    between atoms: C2_2  and  C3_3
REMARK    2  A    between atoms: C3_3  and  N1_4
REMARK    3  A    between atoms: N1_4  and  C4_6
REMARK    4  A    between atoms: C5_9  and  N3_10
REMARK    5  A    between atoms: N3_10  and  C6_12
REMARK    6  A    between atoms: C6_12  and  C7_13
REMARK    7  A    between atoms: C7_13  and  N4_14
REMARK    8  A    between atoms: C8_20  and  N6_21
REMARK    9  A    between atoms: N6_21  and  C9_23
REMARK   10  A    between atoms: C9_23  and  C10_24
REMARK   11  A    between atoms: C10_24  and  C11_25
REMARK   12  A    between atoms: C11_25  and  N7_26
REMARK   13  A    between atoms: N7_26  and  C12_29
REMARK   14  A    between atoms: C12_29  and  C13_30
REMARK   15  A    between atoms: C13_30  and  O1_31
ROOT
HETATM    1  C4  UNL     1      22.687  45.550  12.570  1.00  0.00     0.707 A
HETATM    2  N2  UNL     1      23.876  44.912  12.660  1.00  0.00    -0.022 N
ATOM      3  H2  UNL     1      24.487  44.878  11.844  1.00  0.00     0.203 HD
HETATM    4  C5  UNL     1      24.268  44.323  13.797  1.00  0.00     0.707 A
HETATM    5  N5  UNL     1      23.438  44.378  14.875  1.00  0.00    -0.022 N
ATOM      6  H5  UNL     1      23.728  43.931  15.745  1.00  0.00     0.203 HD
HETATM    7  C8  UNL     1      22.243  45.004  14.831  1.00  0.00     0.707 A
HETATM    8  N8  UNL     1      21.911  45.573  13.662  1.00  0.00    -0.022 N
ATOM      9  H8  UNL     1      21.013  46.051  13.601  1.00  0.00     0.203 HD
ENDROOT
BRANCH   7  10
HETATM   10  N6  UNL     1      21.453  45.060  15.848  1.00  0.00    -0.225 N
ATOM     11  H6  UNL     1      20.595  45.612  15.821  1.00  0.00     0.177 HD
BRANCH  10  12
HETATM   12  C9  UNL     1      21.829  44.310  17.032  1.00  0.00     0.139 C
BRANCH  12  13
HETATM   13  C10 UNL     1      20.535  43.728  17.606  1.00  0.00     0.048 C
BRANCH  13  14
HETATM   14  C11 UNL     1      20.051  44.503  18.782  1.00  0.00     0.234 C
BRANCH  14  15
HETATM   15  N7  UNL     1      18.754  44.038  19.179  1.00  0.00    -0.073 N
ATOM     16  H72 UNL     1      18.701  43.874  20.185  1.00  0.00     0.277 HD
ATOM     17  H71 UNL     1      18.049  44.773  19.108  1.00  0.00     0.277 HD
BRANCH  15  18
HETATM   18  C12 UNL     1      18.386  42.869  18.426  1.00  0.00     0.258 C
BRANCH  18  19
HETATM   19  C13 UNL     1      16.949  42.439  18.771  1.00  0.00     0.191 C
BRANCH  19  20
HETATM   20  O1  UNL     1      16.999  41.315  19.603  1.00  0.00    -0.399 OA
ATOM     21  H1  UNL     1      17.574  41.500  20.337  1.00  0.00     0.209 HD
ENDBRANCH  19  20
ENDBRANCH  18  19
ENDBRANCH  15  18
ENDBRANCH  14  15
ENDBRANCH  13  14
ENDBRANCH  12  13
ENDBRANCH  10  12
ENDBRANCH   7  10
BRANCH   4  22
HETATM   22  N3  UNL     1      25.382  43.711  13.930  1.00  0.00    -0.223 N
ATOM     23  H3  UNL     1      25.906  43.510  13.078  1.00  0.00     0.177 HD
BRANCH  22  24
HETATM   24  C6  UNL     1      25.962  43.281  15.165  1.00  0.00     0.165 C
BRANCH  24  25
HETATM   25  C7  UNL     1      26.927  44.354  15.664  1.00  0.00     0.249 C
BRANCH  25  26
HETATM   26  N4  UNL     1      26.497  44.779  16.987  1.00  0.00    -0.078 N
ATOM     27  H43 UNL     1      25.494  44.664  17.129  1.00  0.00     0.274 HD
ATOM     28  H42 UNL     1      26.814  44.148  17.724  1.00  0.00     0.274 HD
ATOM     29  H41 UNL     1      26.806  45.739  17.133  1.00  0.00     0.274 HD
ENDBRANCH  25  26
ENDBRANCH  24  25
ENDBRANCH  22  24
ENDBRANCH   4  22
BRANCH   1  30
HETATM   30  N1  UNL     1      22.395  46.082  11.453  1.00  0.00    -0.225 N
ATOM     31  H1  UNL     1      21.585  45.695  10.968  1.00  0.00     0.177 HD
BRANCH  30  32
HETATM   32  C3  UNL     1      23.066  47.159  10.797  1.00  0.00     0.137 C
BRANCH  32  33
HETATM   33  C2  UNL     1      22.453  47.502   9.446  1.00  0.00     0.016 C
HETATM   34  C1  UNL     1      21.417  48.576   9.553  1.00  0.00     0.006 C
ENDBRANCH  32  33
ENDBRANCH  30  32
ENDBRANCH   1  30
TORSDOF 15
ENDMDL