MODEL 1
REMARK VINA RESULT: -7.462560562      0.000      0.000
REMARK  5 active torsions:
REMARK  status: ('A' for Active; 'I' for Inactive)
REMARK    1  A    between atoms: N1_1  and  N2_4
REMARK       I    between atoms: N2_4  and  C1_6
REMARK       I    between atoms: C1_6  and  N4_8
REMARK    2  A    between atoms: N4_8  and  C2_10
REMARK    3  A    between atoms: C2_10  and  C3_11
REMARK    4  A    between atoms: C3_11  and  N5_12
REMARK    5  A    between atoms: N6_14  and  O1_15
ROOT
HETATM    1  N2  UNL     1      17.994  42.710  18.864  1.00  0.00    -0.280 N
ATOM      2  H2  UNL     1      17.946  43.716  18.703  1.00  0.00     0.189 HD
HETATM    3  C1  UNL     1      19.102  42.124  18.576  1.00  0.00     0.202 C
HETATM    4  N3  UNL     1      19.341  40.744  18.735  1.00  0.00    -0.062 NA
HETATM    5  N4  UNL     1      20.137  42.949  18.062  1.00  0.00    -0.362 N
ATOM      6  H4  UNL     1      20.676  42.617  17.262  1.00  0.00     0.162 HD
ENDROOT
BRANCH   5   7
HETATM    7  C2  UNL     1      20.458  44.236  18.627  1.00  0.00     0.144 C
BRANCH   7   8
HETATM    8  C3  UNL     1      21.654  44.770  17.866  1.00  0.00     0.168 C
BRANCH   8   9
HETATM    9  N5  UNL     1      22.278  45.786  18.670  1.00  0.00    -0.258 N
HETATM   10  C4  UNL     1      23.493  45.806  19.237  1.00  0.00     0.260 A
HETATM   11  N6  UNL     1      23.674  46.960  19.909  1.00  0.00    -0.099 N
HETATM   12  O2  UNL     1      22.571  47.616  19.741  1.00  0.00    -0.113 OA
HETATM   13  N7  UNL     1      21.730  46.949  19.015  1.00  0.00     0.053 NA
BRANCH  11  14
HETATM   14  O1  UNL     1      24.800  47.336  20.617  1.00  0.00    -0.261 OA
ATOM     15  H1  UNL     1      25.547  47.819  20.282  1.00  0.00     0.247 HD
ENDBRANCH  11  14
ENDBRANCH   8   9
ENDBRANCH   7   8
ENDBRANCH   5   7
BRANCH   1  16
HETATM   16  N1  UNL     1      16.863  42.102  19.372  1.00  0.00    -0.343 N
ATOM     17  H12 UNL     1      16.374  41.470  18.738  1.00  0.00     0.176 HD
ATOM     18  H11 UNL     1      16.484  42.229  20.311  1.00  0.00     0.176 HD
ENDBRANCH   1  16
TORSDOF 5
ENDMDL