MODEL 3
REMARK VINA RESULT: -6.142275385      1.824      3.903
REMARK  4 active torsions:
REMARK  status: ('A' for Active; 'I' for Inactive)
REMARK    1  A    between atoms: N1_2  and  S1_4
REMARK    2  A    between atoms: S1_4  and  N2_7
REMARK    3  A    between atoms: N2_7  and  S2_9
REMARK    4  A    between atoms: S2_9  and  N3_10
ROOT
HETATM    1  N2  UNL     1      18.399  43.060  19.126  1.00  0.00    -0.177 N
ATOM      2  H2  UNL     1      17.668  43.459  19.714  1.00  0.00     0.195 HD
ENDROOT
BRANCH   1   3
HETATM    3  S1  UNL     1      19.859  43.862  18.697  1.00  0.00     0.328 S
HETATM    4  O1  UNL     1      20.914  43.692  19.760  1.00  0.00    -0.182 OA
HETATM    5  O2  UNL     1      20.317  43.293  17.384  1.00  0.00    -0.182 OA
BRANCH   3   6
HETATM    6  N1  UNL     1      19.630  45.561  18.488  1.00  0.00    -0.306 N
HETATM    7  C1  UNL     1      20.912  46.232  18.467  1.00  0.00     0.161 C
ATOM      8  H1  UNL     1      18.725  46.023  18.393  1.00  0.00     0.173 HD
ENDBRANCH   3   6
ENDBRANCH   1   3
BRANCH   1   9
HETATM    9  S2  UNL     1      18.345  41.481  18.420  1.00  0.00     0.327 S
HETATM   10  O3  UNL     1      19.645  40.778  18.791  1.00  0.00    -0.182 OA
HETATM   11  O4  UNL     1      17.245  40.680  19.058  1.00  0.00    -0.182 OA
BRANCH   9  12
HETATM   12  N3  UNL     1      18.227  41.527  16.722  1.00  0.00    -0.311 N
ATOM     13  H32 UNL     1      19.018  41.339  16.106  1.00  0.00     0.170 HD
ATOM     14  H31 UNL     1      17.288  41.762  16.400  1.00  0.00     0.170 HD
ENDBRANCH   9  12
ENDBRANCH   1   9
TORSDOF 4
ENDMDL