MODEL 5
REMARK VINA RESULT: -6.551288671      2.348      4.323
REMARK  6 active torsions:
REMARK  status: ('A' for Active; 'I' for Inactive)
REMARK    1  A    between atoms: O1_2  and  C2_3
REMARK    2  A    between atoms: C3_7  and  C4_8
REMARK    3  A    between atoms: C4_8  and  S1_9
REMARK    4  A    between atoms: S1_9  and  N2_10
REMARK    5  A    between atoms: C5_14  and  O3_15
REMARK    6  A    between atoms: C6_17  and  O4_18
ROOT
HETATM    1  C2  UNL     1      17.609  41.592  16.678  1.00  0.00     0.352 C
HETATM    2  N1  UNL     1      18.922  41.866  17.175  1.00  0.00    -0.039 N
ATOM      3  H11 UNL     1      19.258  42.791  16.903  1.00  0.00     0.281 HD
ATOM      4  H12 UNL     1      19.641  41.314  16.709  1.00  0.00     0.281 HD
HETATM    5  C3  UNL     1      18.917  41.678  18.591  1.00  0.00     0.233 C
HETATM    6  C5  UNL     1      17.586  41.109  18.980  1.00  0.00     0.182 C
HETATM    7  C6  UNL     1      16.670  41.598  17.888  1.00  0.00     0.205 C
ENDROOT
BRANCH   5   8
HETATM    8  C4  UNL     1      19.207  42.936  19.373  1.00  0.00     0.167 C
BRANCH   8   9
HETATM    9  S1  UNL     1      19.970  44.092  18.272  1.00  0.00     0.109 S
HETATM   10  O2  UNL     1      21.536  43.704  17.896  1.00  0.00    -0.236 OA
BRANCH   9  11
HETATM   11  N2  UNL     1      19.755  45.715  18.743  1.00  0.00    -0.350 NA
ATOM     12  H22 UNL     1      20.602  46.155  19.104  1.00  0.00     0.166 HD
ATOM     13  H21 UNL     1      18.941  45.857  19.341  1.00  0.00     0.166 HD
ENDBRANCH   9  11
ENDBRANCH   8   9
ENDBRANCH   5   8
BRANCH   6  14
HETATM   14  O3  UNL     1      17.663  39.713  18.921  1.00  0.00    -0.391 OA
ATOM     15  H3  UNL     1      17.362  39.428  18.066  1.00  0.00     0.210 HD
ENDBRANCH   6  14
BRANCH   1  16
HETATM   16  O1  UNL     1      17.219  42.570  15.765  1.00  0.00    -0.362 OA
HETATM   17  C1  UNL     1      16.510  42.012  14.719  1.00  0.00     0.204 C
ENDBRANCH   1  16
BRANCH   7  18
HETATM   18  O4  UNL     1      16.216  42.897  18.131  1.00  0.00    -0.389 OA
ATOM     19  H4  UNL     1      16.919  43.519  17.983  1.00  0.00     0.210 HD
ENDBRANCH   7  18
TORSDOF 6
ENDMDL