MODEL 1
REMARK VINA RESULT: -6.416629785      0.000      0.000
REMARK  5 active torsions:
REMARK  status: ('A' for Active; 'I' for Inactive)
REMARK    1  A    between atoms: O1_2  and  S1_3
REMARK    2  A    between atoms: S1_3  and  N1_5
REMARK    3  A    between atoms: S1_3  and  N3_10
REMARK    4  A    between atoms: N1_5  and  N2_7
REMARK    5  A    between atoms: N3_10  and  N4_12
ROOT
HETATM    1  S1  UNL     1      19.172  42.250  18.689  1.00  0.00     0.268 S
HETATM    2  O2  UNL     1      19.734  40.854  18.786  1.00  0.00    -0.195 OA
ENDROOT
BRANCH   1   3
HETATM    3  O1  UNL     1      20.220  43.328  19.424  1.00  0.00    -0.279 OA
HETATM    4  C1  UNL     1      20.065  44.623  18.953  1.00  0.00     0.225 C
ENDBRANCH   1   3
BRANCH   1   5
HETATM    5  N1  UNL     1      17.870  42.202  19.593  1.00  0.00    -0.227 N
ATOM      6  H1  UNL     1      17.408  43.043  19.939  1.00  0.00     0.200 HD
BRANCH   5   7
HETATM    7  N2  UNL     1      17.406  40.914  19.877  1.00  0.00    -0.335 N
ATOM      8  H22 UNL     1      18.028  40.182  20.222  1.00  0.00     0.177 HD
ATOM      9  H21 UNL     1      16.409  40.775  19.712  1.00  0.00     0.177 HD
ENDBRANCH   5   7
ENDBRANCH   1   5
BRANCH   1  10
HETATM   10  N3  UNL     1      18.741  42.696  17.109  1.00  0.00    -0.201 N
ATOM     11  H3  UNL     1      19.373  43.321  16.608  1.00  0.00     0.202 HD
BRANCH  10  12
HETATM   12  N4  UNL     1      17.593  42.275  16.442  1.00  0.00    -0.181 N
HETATM   13  C2  UNL     1      17.358  41.986  15.162  1.00  0.00     0.153 A
HETATM   14  C3  UNL     1      16.052  41.596  14.984  1.00  0.00     0.125 A
HETATM   15  N5  UNL     1      15.503  41.656  16.201  1.00  0.00    -0.292 N
HETATM   16  N6  UNL     1      16.439  42.064  17.070  1.00  0.00     0.000 NA
ATOM     17  H5  UNL     1      14.535  41.431  16.430  1.00  0.00     0.183 HD
ENDBRANCH  10  12
ENDBRANCH   1  10
TORSDOF 5
ENDMDL