MODEL 2
REMARK VINA RESULT: -5.776676022      2.282      3.120
REMARK  6 active torsions:
REMARK  status: ('A' for Active; 'I' for Inactive)
REMARK    1  A    between atoms: N1_2  and  C2_3
REMARK    2  A    between atoms: N2_4  and  O1_6
REMARK    3  A    between atoms: N3_10  and  C5_11
REMARK    4  A    between atoms: C5_11  and  O2_12
REMARK    5  A    between atoms: C6_14  and  C7_15
REMARK    6  A    between atoms: C7_15  and  N4_16
ROOT
HETATM    1  C1  UNL     1      24.048  43.097  17.019  1.00  0.00     0.280 C
HETATM    2  N1  UNL     1      23.291  44.232  16.528  1.00  0.00    -0.029 N
HETATM    3  C3  UNL     1      23.976  45.447  16.888  1.00  0.00     0.288 C
HETATM    4  C4  UNL     1      23.894  45.732  18.375  1.00  0.00     0.089 C
HETATM    5  N3  UNL     1      22.597  45.618  18.912  1.00  0.00    -0.363 N
HETATM    6  C6  UNL     1      21.787  44.567  18.450  1.00  0.00     0.137 C
HETATM    7  C8  UNL     1      21.934  44.232  16.992  1.00  0.00     0.271 C
ENDROOT
BRANCH   2   8
HETATM    8  C2  UNL     1      23.251  44.180  15.098  1.00  0.00     0.316 C
HETATM    9  N2  UNL     1      22.574  45.018  14.405  1.00  0.00    -0.258 N
ATOM     10  H2  UNL     1      22.591  44.923  13.390  1.00  0.00     0.194 HD
BRANCH   9  11
HETATM   11  O1  UNL     1      21.836  46.024  14.934  1.00  0.00    -0.289 OA
ATOM     12  H1  UNL     1      21.527  46.776  14.442  1.00  0.00     0.244 HD
ENDBRANCH   9  11
ENDBRANCH   2   8
BRANCH   6  13
HETATM   13  C7  UNL     1      20.321  44.797  18.733  1.00  0.00     0.256 C
BRANCH  13  14
HETATM   14  N4  UNL     1      19.475  43.853  18.041  1.00  0.00    -0.077 N
ATOM     15  H43 UNL     1      19.183  43.096  18.660  1.00  0.00     0.274 HD
ATOM     16  H42 UNL     1      18.562  44.258  17.836  1.00  0.00     0.274 HD
ATOM     17  H41 UNL     1      19.914  43.488  17.196  1.00  0.00     0.274 HD
ENDBRANCH  13  14
ENDBRANCH   6  13
BRANCH   5  18
HETATM   18  C5  UNL     1      21.927  46.865  19.170  1.00  0.00     0.289 C
BRANCH  18  19
HETATM   19  O2  UNL     1      22.930  47.863  19.202  1.00  0.00    -0.382 OA
ATOM     20  H2  UNL     1      23.194  48.010  18.301  1.00  0.00     0.211 HD
ENDBRANCH  18  19
ENDBRANCH   5  18
TORSDOF 6
ENDMDL