MODEL 4
REMARK VINA RESULT: -5.917584022      5.645      7.128
REMARK  5 active torsions:
REMARK  status: ('A' for Active; 'I' for Inactive)
REMARK    1  A    between atoms: O1_2  and  C2_3
REMARK    2  A    between atoms: C3_4  and  C4_5
REMARK    3  A    between atoms: C4_5  and  S1_6
REMARK    4  A    between atoms: C5_12  and  O4_13
REMARK    5  A    between atoms: C6_15  and  O5_16
ROOT
HETATM    1  C2  UNL     1      22.938  45.923  17.840  1.00  0.00     0.185 C
HETATM    2  C3  UNL     1      22.353  47.281  18.201  1.00  0.00     0.235 C
HETATM    3  N1  UNL     1      21.544  46.977  19.337  1.00  0.00    -0.039 N
ATOM      4  H11 UNL     1      20.884  47.716  19.581  1.00  0.00     0.281 HD
ATOM      5  H12 UNL     1      22.057  46.979  20.218  1.00  0.00     0.281 HD
HETATM    6  C5  UNL     1      20.913  45.711  19.035  1.00  0.00     0.350 C
HETATM    7  C6  UNL     1      21.831  44.984  18.088  1.00  0.00     0.205 C
ENDROOT
BRANCH   2   8
HETATM    8  C4  UNL     1      21.591  47.797  17.023  1.00  0.00     0.193 C
BRANCH   8   9
HETATM    9  S1  UNL     1      22.096  49.416  16.550  1.00  0.00     0.252 S
HETATM   10  O2  UNL     1      23.352  49.279  15.444  1.00  0.00    -0.212 OA
HETATM   11  O3  UNL     1      22.536  50.292  17.884  1.00  0.00    -0.212 OA
ENDBRANCH   8   9
ENDBRANCH   2   8
BRANCH   1  12
HETATM   12  O1  UNL     1      23.501  45.986  16.635  1.00  0.00    -0.386 OA
HETATM   13  C1  UNL     1      24.776  45.504  16.478  1.00  0.00     0.202 C
ENDBRANCH   1  12
BRANCH   7  14
HETATM   14  O5  UNL     1      21.139  44.548  16.981  1.00  0.00    -0.389 OA
ATOM     15  H5  UNL     1      20.391  43.986  17.145  1.00  0.00     0.210 HD
ENDBRANCH   7  14
BRANCH   6  16
HETATM   16  O4  UNL     1      19.655  45.942  18.477  1.00  0.00    -0.368 OA
ATOM     17  H4  UNL     1      19.552  45.404  17.700  1.00  0.00     0.212 HD
ENDBRANCH   6  16
TORSDOF 5
ENDMDL