MODEL 1
REMARK VINA RESULT: -6.999527431      0.000      0.000
REMARK  7 active torsions:
REMARK  status: ('A' for Active; 'I' for Inactive)
REMARK    1  A    between atoms: C2_2  and  N1_3
REMARK    2  A    between atoms: C2_2  and  N2_7
REMARK    3  A    between atoms: N2_7  and  C3_8
REMARK    4  A    between atoms: N2_7  and  N6_16
REMARK    5  A    between atoms: C3_8  and  N3_9
REMARK    6  A    between atoms: N6_16  and  O1_17
REMARK    7  A    between atoms: N7_19  and  N8_21
ROOT
HETATM    1  N2  UNL     1      22.302  45.799  17.880  1.00  0.00    -0.235 N
ENDROOT
BRANCH   1   2
HETATM    2  C2  UNL     1      21.902  46.489  16.675  1.00  0.00     0.300 C
HETATM    3  C1  UNL     1      23.187  46.973  16.007  1.00  0.00     0.065 C
BRANCH   2   4
HETATM    4  N1  UNL     1      21.029  47.606  16.934  1.00  0.00    -0.057 N
ATOM      5  H13 UNL     1      21.467  48.301  17.539  1.00  0.00     0.276 HD
ATOM      6  H12 UNL     1      20.899  48.189  16.107  1.00  0.00     0.276 HD
ATOM      7  H11 UNL     1      20.141  47.276  17.313  1.00  0.00     0.276 HD
ENDBRANCH   2   4
ENDBRANCH   1   2
BRANCH   1   8
HETATM    8  C3  UNL     1      22.217  44.358  17.885  1.00  0.00     0.298 C
BRANCH   8   9
HETATM    9  N3  UNL     1      20.887  43.897  18.254  1.00  0.00    -0.267 N
HETATM   10  C4  UNL     1      20.005  44.457  19.094  1.00  0.00     0.203 A
HETATM   11  N4  UNL     1      18.879  43.687  19.145  1.00  0.00    -0.346 N
HETATM   12  C5  UNL     1      19.088  42.645  18.320  1.00  0.00     0.198 A
ATOM     13  H4  UNL     1      18.043  43.867  19.700  1.00  0.00     0.167 HD
HETATM   14  N5  UNL     1      20.310  42.800  17.797  1.00  0.00    -0.292 N
ATOM     15  H5  UNL     1      20.739  42.155  17.133  1.00  0.00     0.188 HD
ENDBRANCH   8   9
ENDBRANCH   1   8
BRANCH   1  16
HETATM   16  N6  UNL     1      22.744  46.541  18.960  1.00  0.00    -0.079 N
HETATM   17  N7  UNL     1      23.918  46.372  19.400  1.00  0.00    -0.207 N
ATOM     18  H7  UNL     1      24.525  45.687  18.949  1.00  0.00     0.212 HD
BRANCH  16  19
HETATM   19  O1  UNL     1      21.961  47.482  19.603  1.00  0.00    -0.252 OA
ATOM     20  H1  UNL     1      21.797  48.350  19.251  1.00  0.00     0.248 HD
ENDBRANCH  16  19
BRANCH  17  21
HETATM   21  N8  UNL     1      24.403  47.098  20.485  1.00  0.00    -0.328 N
ATOM     22  H82 UNL     1      23.800  47.812  20.894  1.00  0.00     0.178 HD
ATOM     23  H81 UNL     1      25.333  46.929  20.869  1.00  0.00     0.178 HD
ENDBRANCH  17  21
ENDBRANCH   1  16
TORSDOF 7
ENDMDL