MODEL 2
REMARK VINA RESULT: -6.205224318      1.536      4.708
REMARK  7 active torsions:
REMARK  status: ('A' for Active; 'I' for Inactive)
REMARK    1  A    between atoms: O1_2  and  C2_3
REMARK    2  A    between atoms: C2_3  and  C3_4
REMARK    3  A    between atoms: C3_4  and  N1_5
REMARK    4  A    between atoms: C4_6  and  O2_7
REMARK    5  A    between atoms: C5_9  and  O3_10
REMARK    6  A    between atoms: C6_12  and  O4_13
REMARK    7  A    between atoms: C7_15  and  O5_16
ROOT
HETATM    1  N1  UNL     1      17.434  41.294  17.380  1.00  0.00     0.153 N
HETATM    2  C4  UNL     1      16.014  41.029  17.263  1.00  0.00     0.391 C
HETATM    3  C5  UNL     1      15.846  40.761  15.777  1.00  0.00     0.210 C
HETATM    4  C6  UNL     1      16.907  41.617  15.121  1.00  0.00     0.210 C
HETATM    5  C7  UNL     1      17.757  42.156  16.262  1.00  0.00     0.391 C
ENDROOT
BRANCH   1   6
HETATM    6  C3  UNL     1      17.763  41.892  18.656  1.00  0.00     0.305 C
BRANCH   6   7
HETATM    7  C2  UNL     1      19.248  41.867  18.813  1.00  0.00     0.197 C
BRANCH   7   8
HETATM    8  O1  UNL     1      19.768  42.921  19.526  1.00  0.00    -0.394 OA
HETATM    9  C1  UNL     1      19.993  44.055  18.783  1.00  0.00     0.201 C
ENDBRANCH   7   8
ENDBRANCH   6   7
ENDBRANCH   1   6
BRANCH   2  10
HETATM   10  O2  UNL     1      15.275  42.134  17.639  1.00  0.00    -0.366 OA
ATOM     11  H2  UNL     1      15.790  42.713  18.190  1.00  0.00     0.212 HD
ENDBRANCH   2  10
BRANCH   5  12
HETATM   12  O5  UNL     1      17.350  43.456  16.528  1.00  0.00    -0.366 OA
ATOM     13  H5  UNL     1      16.608  43.684  15.981  1.00  0.00     0.212 HD
ENDBRANCH   5  12
BRANCH   3  14
HETATM   14  O3  UNL     1      14.564  41.109  15.358  1.00  0.00    -0.388 OA
ATOM     15  H3  UNL     1      14.008  41.297  16.105  1.00  0.00     0.210 HD
ENDBRANCH   3  14
BRANCH   4  16
HETATM   16  O4  UNL     1      16.250  42.636  14.439  1.00  0.00    -0.388 OA
ATOM     17  H4  UNL     1      16.377  42.480  13.511  1.00  0.00     0.210 HD
ENDBRANCH   4  16
TORSDOF 7
ENDMDL