MODEL 2
REMARK VINA RESULT: -6.323595895      2.947      4.840
REMARK  5 active torsions:
REMARK  status: ('A' for Active; 'I' for Inactive)
REMARK    1  A    between atoms: N1_2  and  C3_4
REMARK    2  A    between atoms: N1_2  and  C4_6
REMARK    3  A    between atoms: C5_8  and  O3_9
REMARK    4  A    between atoms: C6_11  and  O4_12
REMARK    5  A    between atoms: C7_14  and  O5_15
ROOT
HETATM    1  C4  UNL     1      22.917  44.880  17.948  1.00  0.00     0.367 C
HETATM    2  O2  UNL     1      21.997  43.864  17.864  1.00  0.00    -0.323 OA
HETATM    3  C5  UNL     1      20.865  44.299  18.510  1.00  0.00     0.291 C
HETATM    4  C6  UNL     1      20.917  45.794  18.607  1.00  0.00     0.206 C
HETATM    5  C7  UNL     1      22.073  46.095  17.637  1.00  0.00     0.209 C
ENDROOT
BRANCH   1   6
HETATM    6  N1  UNL     1      24.083  44.740  17.184  1.00  0.00     0.008 N
HETATM    7  C1  UNL     1      24.363  45.770  16.240  1.00  0.00     0.285 C
HETATM    8  C2  UNL     1      25.229  44.620  18.089  1.00  0.00     0.285 C
BRANCH   6   9
HETATM    9  C3  UNL     1      24.020  43.477  16.486  1.00  0.00     0.461 C
HETATM   10  O1  UNL     1      24.773  42.574  16.834  1.00  0.00    -0.275 OA
ENDBRANCH   6   9
ENDBRANCH   1   6
BRANCH   5  11
HETATM   11  O5  UNL     1      21.514  46.026  16.361  1.00  0.00    -0.388 OA
ATOM     12  H5  UNL     1      22.095  45.598  15.744  1.00  0.00     0.210 HD
ENDBRANCH   5  11
BRANCH   3  13
HETATM   13  O3  UNL     1      20.711  43.727  19.772  1.00  0.00    -0.368 OA
ATOM     14  H3  UNL     1      21.372  43.073  19.964  1.00  0.00     0.212 HD
ENDBRANCH   3  13
BRANCH   4  15
HETATM   15  O4  UNL     1      19.761  46.425  18.248  1.00  0.00    -0.388 OA
ATOM     16  H4  UNL     1      19.159  45.889  17.746  1.00  0.00     0.210 HD
ENDBRANCH   4  15
TORSDOF 5
ENDMDL