MODEL 5
REMARK VINA RESULT: -6.714621438      1.180      3.243
REMARK  9 active torsions:
REMARK  status: ('A' for Active; 'I' for Inactive)
REMARK    1  A    between atoms: C2_2  and  C3_3
REMARK    2  A    between atoms: C3_3  and  C4_4
REMARK    3  A    between atoms: C4_4  and  N1_5
REMARK    4  A    between atoms: N1_5  and  C5_6
REMARK    5  A    between atoms: N1_5  and  C9_10
REMARK    6  A    between atoms: C5_6  and  C6_7
REMARK    7  A    between atoms: C6_7  and  C7_8
REMARK    8  A    between atoms: N4_27  and  C22_28
REMARK    9  A    between atoms: C22_28  and  C23_29
ROOT
HETATM    1  C9  UNL     1      52.253  28.452  37.780  1.00  0.00     0.065 A
HETATM    2  C10 UNL     1      51.278  29.397  37.640  1.00  0.00     0.058 A
HETATM    3  C11 UNL     1      50.716  30.120  38.658  1.00  0.00     0.131 A
HETATM    4  F1  UNL     1      51.113  29.898  39.898  1.00  0.00    -0.205 F
HETATM    5  C12 UNL     1      49.718  31.077  38.517  1.00  0.00     0.044 A
HETATM    6  C13 UNL     1      49.249  31.321  37.249  1.00  0.00     0.012 A
HETATM    7  C14 UNL     1      49.761  30.634  36.174  1.00  0.00    -0.034 A
HETATM    8  C15 UNL     1      49.255  30.902  34.810  1.00  0.00     0.050 C
HETATM    9  C16 UNL     1      50.746  29.697  36.361  1.00  0.00     0.055 A
HETATM   10  N2  UNL     1      51.190  29.064  35.293  1.00  0.00    -0.340 N
ATOM     11  H2  UNL     1      50.794  29.297  34.382  1.00  0.00     0.167 HD
HETATM   12  C17 UNL     1      52.133  28.134  35.365  1.00  0.00     0.122 A
HETATM   13  C18 UNL     1      52.676  27.817  36.614  1.00  0.00     0.058 A
HETATM   14  C19 UNL     1      53.584  26.861  36.386  1.00  0.00     0.076 A
HETATM   15  C20 UNL     1      54.414  26.153  37.290  1.00  0.00     0.102 C
HETATM   16  N3  UNL     1      55.116  25.540  38.013  1.00  0.00    -0.191 NA
HETATM   17  C21 UNL     1      53.577  26.616  34.996  1.00  0.00     0.116 A
HETATM   18  N4  UNL     1      52.681  27.408  34.393  1.00  0.00    -0.341 N
ENDROOT
BRANCH   1  19
HETATM   19  N1  UNL     1      52.852  28.171  39.039  1.00  0.00    -0.359 N
BRANCH  19  20
HETATM   20  C4  UNL     1      52.477  27.084  39.908  1.00  0.00     0.128 C
BRANCH  20  21
HETATM   21  C3  UNL     1      51.195  26.368  39.540  1.00  0.00     0.020 C
BRANCH  21  22
HETATM   22  C2  UNL     1      51.052  25.064  40.282  1.00  0.00    -0.003 C
HETATM   23  C1  UNL     1      52.287  24.233  40.279  1.00  0.00     0.005 C
ENDBRANCH  21  22
ENDBRANCH  20  21
ENDBRANCH  19  20
BRANCH  19  24
HETATM   24  C5  UNL     1      53.968  28.983  39.420  1.00  0.00     0.064 C
BRANCH  24  25
HETATM   25  C6  UNL     1      54.946  29.671  38.630  1.00  0.00     0.044 C
BRANCH  25  26
HETATM   26  C7  UNL     1      56.283  29.034  38.376  1.00  0.00     0.001 C
HETATM   27  C8  UNL     1      56.596  29.089  36.854  1.00  0.00     0.005 C
ENDBRANCH  25  26
ENDBRANCH  24  25
ENDBRANCH  19  24
ENDBRANCH   1  19
BRANCH  18  28
HETATM   28  C22 UNL     1      52.410  27.430  32.970  1.00  0.00     0.136 C
BRANCH  28  29
HETATM   29  C23 UNL     1      53.271  28.301  32.145  1.00  0.00     0.031 C
HETATM   30  C24 UNL     1      54.719  28.370  32.581  1.00  0.00     0.035 C
HETATM   31  C25 UNL     1      55.454  27.732  31.432  1.00  0.00     0.232 C
HETATM   32  N5  UNL     1      54.469  27.176  30.523  1.00  0.00    -0.075 N
HETATM   33  C26 UNL     1      53.307  28.037  30.678  1.00  0.00     0.238 C
ATOM     34  H52 UNL     1      54.794  27.084  29.561  1.00  0.00     0.277 HD
ATOM     35  H51 UNL     1      54.276  26.185  30.673  1.00  0.00     0.277 HD
ENDBRANCH  28  29
ENDBRANCH  18  28
TORSDOF 9
ENDMDL