MODEL 3
REMARK VINA RESULT: -8.214856021      7.201      9.950
REMARK  10 active torsions:
REMARK  status: ('A' for Active; 'I' for Inactive)
REMARK    1  A    between atoms: C1_2  and  C2_3
REMARK    2  A    between atoms: C2_3  and  C3_4
REMARK    3  A    between atoms: C3_4  and  C4_5
REMARK    4  A    between atoms: C4_5  and  C5_6
REMARK    5  A    between atoms: C5_6  and  C6_7
REMARK    6  A    between atoms: C9_10  and  N1_11
REMARK    7  A    between atoms: C12_14  and  C13_15
REMARK    8  A    between atoms: C13_15  and  N2_16
REMARK    9  A    between atoms: N2_16  and  C14_19
REMARK   10  A    between atoms: C14_19  and  C15_20
ROOT
HETATM    1  C6  UNL     1      52.076  28.175  35.342  1.00  0.00     0.008 A
HETATM    2  C7  UNL     1      51.573  27.706  34.170  1.00  0.00     0.037 A
HETATM    3  C8  UNL     1      52.387  27.666  33.104  1.00  0.00     0.043 A
HETATM    4  C9  UNL     1      52.113  27.202  31.804  1.00  0.00     0.117 A
HETATM    5  N3  UNL     1      53.118  27.246  30.889  1.00  0.00    -0.338 N
ATOM      6  H3  UNL     1      52.906  26.908  29.951  1.00  0.00     0.168 HD
HETATM    7  C23 UNL     1      54.341  27.687  31.103  1.00  0.00     0.182 A
HETATM    8  N4  UNL     1      54.627  28.129  32.331  1.00  0.00    -0.346 N
ATOM      9  H4  UNL     1      55.563  28.479  32.539  1.00  0.00     0.167 HD
HETATM   10  C24 UNL     1      53.680  28.115  33.302  1.00  0.00     0.089 A
HETATM   11  S1  UNL     1      53.681  28.556  34.945  1.00  0.00    -0.072 SA
ENDROOT
BRANCH   4  12
HETATM   12  N1  UNL     1      50.934  26.613  31.350  1.00  0.00    -0.366 N
HETATM   13  C10 UNL     1      50.413  26.813  30.011  1.00  0.00     0.125 C
HETATM   14  C11 UNL     1      49.268  25.831  29.823  1.00  0.00     0.026 C
HETATM   15  C12 UNL     1      48.080  26.149  30.754  1.00  0.00     0.014 C
HETATM   16  C21 UNL     1      48.680  26.382  32.136  1.00  0.00     0.026 C
HETATM   17  C22 UNL     1      50.101  25.800  32.206  1.00  0.00     0.125 C
BRANCH  15  18
HETATM   18  C13 UNL     1      47.288  24.901  30.773  1.00  0.00     0.237 C
BRANCH  18  19
HETATM   19  N2  UNL     1      45.874  24.940  30.638  1.00  0.00    -0.071 N
ATOM     20  H22 UNL     1      45.528  24.224  29.999  1.00  0.00     0.277 HD
ATOM     21  H21 UNL     1      45.397  24.624  31.483  1.00  0.00     0.277 HD
BRANCH  19  22
HETATM   22  C14 UNL     1      45.453  26.301  30.234  1.00  0.00     0.270 C
BRANCH  22  23
HETATM   23  C15 UNL     1      44.794  26.200  28.908  1.00  0.00    -0.033 A
HETATM   24  C16 UNL     1      45.664  26.159  27.783  1.00  0.00     0.009 A
HETATM   25  C17 UNL     1      45.193  26.011  26.519  1.00  0.00     0.001 A
HETATM   26  C18 UNL     1      43.827  25.900  26.353  1.00  0.00     0.000 A
HETATM   27  C19 UNL     1      42.975  25.941  27.420  1.00  0.00     0.001 A
HETATM   28  C20 UNL     1      43.469  26.094  28.720  1.00  0.00     0.009 A
ENDBRANCH  22  23
ENDBRANCH  19  22
ENDBRANCH  18  19
ENDBRANCH  15  18
ENDBRANCH   4  12
BRANCH   1  29
HETATM   29  C5  UNL     1      51.407  28.387  36.655  1.00  0.00     0.018 C
BRANCH  29  30
HETATM   30  C4  UNL     1      50.925  29.555  36.964  1.00  0.00    -0.003 C
BRANCH  30  31
HETATM   31  C3  UNL     1      50.675  30.190  38.224  1.00  0.00    -0.026 C
BRANCH  31  32
HETATM   32  C2  UNL     1      49.392  30.810  38.575  1.00  0.00     0.042 C
BRANCH  32  33
HETATM   33  C1  UNL     1      49.210  32.265  38.342  1.00  0.00     0.118 C
HETATM   34 CL1  UNL     1      47.502  32.708  37.987  1.00  0.00    -0.130 Cl
ENDBRANCH  32  33
ENDBRANCH  31  32
ENDBRANCH  30  31
ENDBRANCH  29  30
ENDBRANCH   1  29
TORSDOF 10
ENDMDL