MODEL 2
REMARK VINA RESULT: -7.567078406      2.515      4.677
REMARK  9 active torsions:
REMARK  status: ('A' for Active; 'I' for Inactive)
REMARK    1  A    between atoms: C3_3  and  C4_4
REMARK    2  A    between atoms: C4_4  and  C5_5
REMARK    3  A    between atoms: C6_6  and  C7_7
REMARK    4  A    between atoms: C7_7  and  C8_8
REMARK    5  A    between atoms: C8_8  and  C9_9
REMARK    6  A    between atoms: C9_9  and  C10_10
REMARK    7  A    between atoms: C10_10  and  N1_11
REMARK    8  A    between atoms: C11_12  and  N2_13
REMARK    9  A    between atoms: C12_18  and  N4_19
ROOT
HETATM    1  C1  UNL     1      45.314  24.681  32.495  1.00  0.00     0.012 C
HETATM    2  C2  UNL     1      46.294  24.646  31.793  1.00  0.00    -0.117 C
HETATM    3  C3  UNL     1      47.498  24.621  30.907  1.00  0.00     0.097 C
ENDROOT
BRANCH   3   4
HETATM    4  C4  UNL     1      48.213  25.914  31.107  1.00  0.00     0.039 C
BRANCH   4   5
HETATM    5  C5  UNL     1      48.431  26.362  32.477  1.00  0.00    -0.030 C
HETATM    6  C6  UNL     1      48.146  27.637  33.082  1.00  0.00    -0.031 C
BRANCH   6   7
HETATM    7  C7  UNL     1      46.911  28.406  33.116  1.00  0.00     0.027 C
BRANCH   7   8
HETATM    8  C8  UNL     1      46.996  29.875  33.192  1.00  0.00     0.005 C
BRANCH   8   9
HETATM    9  C9  UNL     1      47.500  30.372  34.542  1.00  0.00     0.021 C
BRANCH   9  10
HETATM   10  C10 UNL     1      48.843  31.019  34.479  1.00  0.00     0.149 C
BRANCH  10  11
HETATM   11  N1  UNL     1      49.598  30.741  35.701  1.00  0.00    -0.168 N
HETATM   12  C11 UNL     1      49.413  31.370  36.861  1.00  0.00     0.681 A
HETATM   13  N3  UNL     1      50.134  31.058  37.929  1.00  0.00    -0.176 N
HETATM   14  C12 UNL     1      51.125  30.062  37.920  1.00  0.00     0.133 A
ATOM     15  H3  UNL     1      49.962  31.566  38.797  1.00  0.00     0.186 HD
HETATM   16  C17 UNL     1      51.326  29.409  36.768  1.00  0.00     0.060 A
HETATM   17  C18 UNL     1      52.277  28.417  36.664  1.00  0.00    -0.032 A
HETATM   18  C26 UNL     1      50.553  29.757  35.644  1.00  0.00     0.138 A
HETATM   19  C19 UNL     1      53.006  27.844  37.788  1.00  0.00     0.050 C
HETATM   20  C20 UNL     1      52.465  27.784  35.418  1.00  0.00     0.001 A
HETATM   21  C21 UNL     1      53.441  26.805  35.261  1.00  0.00     0.056 A
HETATM   22  C25 UNL     1      51.674  28.188  34.375  1.00  0.00     0.044 A
HETATM   23  C22 UNL     1      53.633  26.208  34.030  1.00  0.00     0.117 A
HETATM   24  F1  UNL     1      54.579  25.248  33.850  1.00  0.00    -0.206 F
HETATM   25  C23 UNL     1      52.844  26.600  32.974  1.00  0.00     0.044 A
HETATM   26  C24 UNL     1      51.884  27.568  33.134  1.00  0.00     0.033 A
HETATM   27  N5  UNL     1      50.748  29.139  34.478  1.00  0.00    -0.340 N
ATOM     28  H5  UNL     1      50.188  29.395  33.665  1.00  0.00     0.167 HD
BRANCH  12  29
HETATM   29  N2  UNL     1      48.523  32.309  36.946  1.00  0.00    -0.234 N
ATOM     30  H22 UNL     1      48.642  33.163  36.402  1.00  0.00     0.174 HD
ATOM     31  H21 UNL     1      47.710  32.179  37.548  1.00  0.00     0.174 HD
ENDBRANCH  12  29
BRANCH  14  32
HETATM   32  N4  UNL     1      51.844  30.016  39.099  1.00  0.00    -0.366 N
HETATM   33  C13 UNL     1      52.919  30.871  39.485  1.00  0.00     0.124 C
HETATM   34  C14 UNL     1      53.493  30.389  40.761  1.00  0.00     0.021 C
HETATM   35  C15 UNL     1      52.671  29.225  41.160  1.00  0.00     0.021 C
HETATM   36  C16 UNL     1      51.494  29.237  40.250  1.00  0.00     0.124 C
ENDBRANCH  14  32
ENDBRANCH  10  11
ENDBRANCH   9  10
ENDBRANCH   8   9
ENDBRANCH   7   8
ENDBRANCH   6   7
ENDBRANCH   4   5
ENDBRANCH   3   4
TORSDOF 9
ENDMDL