MODEL 3
REMARK VINA RESULT: -7.297679130      2.113      3.831
REMARK  10 active torsions:
REMARK  status: ('A' for Active; 'I' for Inactive)
REMARK    1  A    between atoms: C2_2  and  C3_3
REMARK    2  A    between atoms: C3_3  and  C4_4
REMARK    3  A    between atoms: C4_4  and  C5_5
REMARK    4  A    between atoms: C5_5  and  C6_6
REMARK    5  A    between atoms: C6_6  and  C7_7
REMARK    6  A    between atoms: C7_7  and  C8_8
REMARK    7  A    between atoms: C8_8  and  C9_9
REMARK    8  A    between atoms: C12_14  and  O3_15
REMARK    9  A    between atoms: C14_18  and  O4_19
REMARK   10  A    between atoms: C16_21  and  C17_22
ROOT
HETATM    1  C9  UNL     1      44.754  26.379  28.824  1.00  0.00     0.143 C
HETATM    2  O1  UNL     1      45.529  25.817  27.796  1.00  0.00    -0.311 OA
HETATM    3  C10 UNL     1      46.919  25.880  27.560  1.00  0.00     0.297 C
HETATM    4  O2  UNL     1      47.356  25.763  26.404  1.00  0.00    -0.259 OA
HETATM    5  C11 UNL     1      47.853  26.080  28.667  1.00  0.00     0.087 A
HETATM    6  C12 UNL     1      49.118  26.413  28.181  1.00  0.00     0.085 A
HETATM    7  C13 UNL     1      50.133  26.643  29.082  1.00  0.00     0.075 A
HETATM    8  C14 UNL     1      49.891  26.544  30.416  1.00  0.00     0.082 A
HETATM    9  C16 UNL     1      48.635  26.210  30.969  1.00  0.00     0.019 A
HETATM   10  C18 UNL     1      47.643  25.986  30.048  1.00  0.00     0.043 A
HETATM   11  C19 UNL     1      46.365  25.651  30.643  1.00  0.00     0.167 C
HETATM   12  O5  UNL     1      46.520  25.002  31.737  1.00  0.00    -0.292 OA
HETATM   13  C20 UNL     1      45.010  25.932  30.195  1.00  0.00     0.086 C
HETATM   14  C21 UNL     1      44.417  26.916  31.224  1.00  0.00     0.021 C
ENDROOT
BRANCH   1  15
HETATM   15  C8  UNL     1      44.858  27.883  28.652  1.00  0.00     0.033 C
BRANCH  15  16
HETATM   16  C7  UNL     1      44.143  28.426  27.455  1.00  0.00     0.002 C
BRANCH  16  17
HETATM   17  C6  UNL     1      44.563  29.856  27.209  1.00  0.00     0.000 C
BRANCH  17  18
HETATM   18  C5  UNL     1      45.400  30.400  28.321  1.00  0.00     0.000 C
BRANCH  18  19
HETATM   19  C4  UNL     1      46.448  31.322  27.808  1.00  0.00     0.000 C
BRANCH  19  20
HETATM   20  C3  UNL     1      46.559  32.574  28.624  1.00  0.00    -0.000 C
BRANCH  20  21
HETATM   21  C2  UNL     1      45.946  32.238  29.995  1.00  0.00    -0.005 C
HETATM   22  C1  UNL     1      46.663  33.073  31.016  1.00  0.00     0.005 C
ENDBRANCH  20  21
ENDBRANCH  19  20
ENDBRANCH  18  19
ENDBRANCH  17  18
ENDBRANCH  16  17
ENDBRANCH  15  16
ENDBRANCH   1  15
BRANCH   6  23
HETATM   23  O3  UNL     1      49.335  26.508  26.814  1.00  0.00    -0.360 OA
ATOM     24  H3  UNL     1      48.709  26.134  26.206  1.00  0.00     0.217 HD
ENDBRANCH   6  23
BRANCH   9  25
HETATM   25  C17 UNL     1      48.382  26.120  32.383  1.00  0.00     0.071 C
HETATM   26 BR1  UNL     1      47.915  27.748  33.316  1.00  0.00    -0.063 Br
ENDBRANCH   9  25
BRANCH   8  27
HETATM   27  O4  UNL     1      50.895  26.770  31.356  1.00  0.00    -0.355 OA
HETATM   28  C15 UNL     1      52.119  27.394  31.024  1.00  0.00     0.210 C
ENDBRANCH   8  27
TORSDOF 10
ENDMDL