MODEL 3
REMARK VINA RESULT: -7.102337232      1.632      1.823
REMARK  12 active torsions:
REMARK  status: ('A' for Active; 'I' for Inactive)
REMARK    1  A    between atoms: C2_2  and  C3_3
REMARK    2  A    between atoms: C3_3  and  C4_4
REMARK    3  A    between atoms: C4_4  and  C5_5
REMARK    4  A    between atoms: C5_5  and  O1_6
REMARK    5  A    between atoms: O1_6  and  C6_7
REMARK       I    between atoms: C6_7  and  N1_9
REMARK    6  A    between atoms: N1_9  and  C7_11
REMARK    7  A    between atoms: C10_14  and  C11_15
REMARK       I    between atoms: N2_18  and  C14_19
REMARK    8  A    between atoms: C14_19  and  O4_21
REMARK    9  A    between atoms: O4_21  and  C15_22
REMARK   10  A    between atoms: C15_22  and  C16_23
REMARK   11  A    between atoms: C19_27  and  S1_28
REMARK   12  A    between atoms: S1_28  and  O5_29
ROOT
HETATM    1  C7  UNL     1      50.191  26.197  31.835  1.00  0.00     0.038 A
HETATM    2  C8  UNL     1      50.339  26.453  30.469  1.00  0.00     0.030 A
HETATM    3  C9  UNL     1      49.308  26.336  29.601  1.00  0.00     0.015 A
HETATM    4  C10 UNL     1      48.024  25.952  30.065  1.00  0.00    -0.015 A
HETATM    5  C19 UNL     1      47.897  25.723  31.383  1.00  0.00     0.040 A
HETATM    6  C20 UNL     1      48.969  25.839  32.297  1.00  0.00     0.051 A
ENDROOT
BRANCH   4   7
HETATM    7  C11 UNL     1      46.924  25.862  29.105  1.00  0.00    -0.065 C
HETATM    8  C12 UNL     1      45.865  26.920  29.525  1.00  0.00     0.055 C
HETATM    9  C13 UNL     1      45.602  27.630  28.148  1.00  0.00     0.132 C
HETATM   10  N2  UNL     1      44.841  26.562  27.451  1.00  0.00    -0.327 N
HETATM   11  C14 UNL     1      43.476  26.813  27.253  1.00  0.00     0.362 C
HETATM   12  C17 UNL     1      45.587  25.393  27.122  1.00  0.00     0.132 C
HETATM   13  O3  UNL     1      42.981  27.903  27.638  1.00  0.00    -0.238 OA
HETATM   14  C18 UNL     1      47.034  25.586  27.704  1.00  0.00     0.055 C
BRANCH  11  15
HETATM   15  O4  UNL     1      42.543  25.945  26.660  1.00  0.00    -0.303 OA
BRANCH  15  16
HETATM   16  C15 UNL     1      41.863  24.986  27.462  1.00  0.00     0.195 C
BRANCH  16  17
HETATM   17  C16 UNL     1      40.791  24.267  26.719  1.00  0.00     0.141 C
HETATM   18 CL1  UNL     1      41.152  24.216  24.954  1.00  0.00    -0.128 Cl
ENDBRANCH  16  17
ENDBRANCH  15  16
ENDBRANCH  11  15
ENDBRANCH   4   7
BRANCH   5  19
HETATM   19  S1  UNL     1      46.383  25.129  32.092  1.00  0.00     0.026 SA
BRANCH  19  20
HETATM   20  O5  UNL     1      46.654  24.263  33.301  1.00  0.00    -0.325 OA
ATOM     21  H5  UNL     1      47.483  23.808  33.216  1.00  0.00     0.228 HD
ENDBRANCH  19  20
ENDBRANCH   5  19
BRANCH   1  22
HETATM   22  N1  UNL     1      51.338  26.203  32.673  1.00  0.00    -0.303 N
HETATM   23  C6  UNL     1      51.723  27.261  33.528  1.00  0.00     0.365 C
HETATM   24  O2  UNL     1      50.948  28.256  33.588  1.00  0.00    -0.238 OA
ATOM     25  H1  UNL     1      51.934  25.374  32.657  1.00  0.00     0.171 HD
BRANCH  23  26
HETATM   26  O1  UNL     1      52.877  27.223  34.233  1.00  0.00    -0.304 OA
BRANCH  26  27
HETATM   27  C5  UNL     1      53.849  26.210  34.219  1.00  0.00     0.180 C
BRANCH  27  28
HETATM   28  C4  UNL     1      55.101  26.808  34.810  1.00  0.00     0.027 C
BRANCH  28  29
HETATM   29  C3  UNL     1      54.952  27.156  36.258  1.00  0.00     0.002 C
BRANCH  29  30
HETATM   30  C2  UNL     1      55.351  28.650  36.430  1.00  0.00    -0.004 C
HETATM   31  C1  UNL     1      55.999  29.085  35.143  1.00  0.00     0.005 C
ENDBRANCH  29  30
ENDBRANCH  28  29
ENDBRANCH  27  28
ENDBRANCH  26  27
ENDBRANCH  23  26
ENDBRANCH   1  22
TORSDOF 12
ENDMDL