MODEL 3
REMARK VINA RESULT: -8.194472665      1.756      2.577
REMARK  9 active torsions:
REMARK  status: ('A' for Active; 'I' for Inactive)
REMARK    1  A    between atoms: C3_4  and  S1_5
REMARK    2  A    between atoms: S1_5  and  C4_6
REMARK    3  A    between atoms: C4_6  and  C5_7
REMARK    4  A    between atoms: C5_7  and  C6_8
REMARK    5  A    between atoms: C6_8  and  N1_9
REMARK    6  A    between atoms: N1_9  and  C7_11
REMARK    7  A    between atoms: C7_11  and  C8_12
REMARK    8  A    between atoms: C8_12  and  N2_13
REMARK    9  A    between atoms: N4_27  and  C20_28
ROOT
HETATM    1  F1  UNL     1      48.384  33.012  39.150  1.00  0.00    -0.206 F
HETATM    2  C1  UNL     1      48.958  32.140  38.286  1.00  0.00     0.119 A
HETATM    3  C2  UNL     1      48.634  32.114  36.943  1.00  0.00     0.061 A
HETATM    4  C3  UNL     1      49.228  31.211  36.088  1.00  0.00     0.017 A
HETATM    5  C14 UNL     1      50.160  30.337  36.650  1.00  0.00     0.020 A
HETATM    6  C15 UNL     1      50.918  29.343  36.075  1.00  0.00     0.007 A
HETATM    7  C16 UNL     1      51.035  28.857  34.798  1.00  0.00     0.031 A
HETATM    8  C17 UNL     1      51.914  27.829  34.555  1.00  0.00     0.088 A
HETATM    9  N3  UNL     1      52.654  27.311  35.576  1.00  0.00    -0.373 N
ATOM     10  H3  UNL     1      53.304  26.549  35.381  1.00  0.00     0.164 HD
HETATM   11  C18 UNL     1      52.552  27.778  36.828  1.00  0.00     0.118 A
HETATM   12  C19 UNL     1      51.685  28.798  37.108  1.00  0.00     0.062 A
HETATM   13  N4  UNL     1      51.423  29.417  38.266  1.00  0.00    -0.339 N
HETATM   14  C23 UNL     1      50.495  30.355  37.992  1.00  0.00     0.050 A
HETATM   15  C24 UNL     1      49.883  31.269  38.814  1.00  0.00     0.072 A
ENDROOT
BRANCH   4  16
HETATM   16  S1  UNL     1      48.824  31.251  34.368  1.00  0.00    -0.129 SA
BRANCH  16  17
HETATM   17  C4  UNL     1      47.272  30.482  33.919  1.00  0.00     0.085 C
BRANCH  17  18
HETATM   18  C5  UNL     1      47.621  29.011  33.625  1.00  0.00     0.055 C
BRANCH  18  19
HETATM   19  C6  UNL     1      46.613  28.308  32.842  1.00  0.00     0.061 C
BRANCH  19  20
HETATM   20  N1  UNL     1      46.439  26.931  32.822  1.00  0.00    -0.381 N
ATOM     21  H1  UNL     1      46.841  26.378  33.578  1.00  0.00     0.164 HD
BRANCH  20  22
HETATM   22  C7  UNL     1      45.737  26.267  31.810  1.00  0.00     0.090 C
BRANCH  22  23
HETATM   23  C8  UNL     1      46.311  26.252  30.455  1.00  0.00     0.316 C
BRANCH  23  24
HETATM   24  N2  UNL     1      45.333  26.349  29.382  1.00  0.00     0.093 N
HETATM   25  C9  UNL     1      44.039  26.777  29.907  1.00  0.00     0.273 C
HETATM   26  C10 UNL     1      43.048  26.770  28.772  1.00  0.00     0.030 C
HETATM   27  C11 UNL     1      43.480  27.785  27.741  1.00  0.00     0.003 C
HETATM   28  C12 UNL     1      44.839  27.366  27.218  1.00  0.00     0.030 C
HETATM   29  C13 UNL     1      45.801  27.306  28.393  1.00  0.00     0.273 C
ENDBRANCH  23  24
ENDBRANCH  22  23
ENDBRANCH  20  22
ENDBRANCH  19  20
ENDBRANCH  18  19
ENDBRANCH  17  18
ENDBRANCH  16  17
ENDBRANCH   4  16
BRANCH  13  30
HETATM   30  C20 UNL     1      52.045  29.134  39.568  1.00  0.00     0.090 A
HETATM   31  C21 UNL     1      52.659  30.236  40.360  1.00  0.00     0.028 A
HETATM   32  C22 UNL     1      53.591  29.388  39.601  1.00  0.00     0.028 A
ENDBRANCH  13  30
TORSDOF 9
ENDMDL