MODEL 3
REMARK VINA RESULT: -7.933947880      2.322      4.977
REMARK  9 active torsions:
REMARK  status: ('A' for Active; 'I' for Inactive)
REMARK    1  A    between atoms: C2_2  and  C3_3
REMARK    2  A    between atoms: C3_3  and  C4_4
REMARK       I    between atoms: C4_4  and  N1_6
REMARK    3  A    between atoms: N1_6  and  C5_8
REMARK    4  A    between atoms: N2_18  and  C12_19
REMARK    5  A    between atoms: C12_19  and  C13_20
REMARK    6  A    between atoms: C13_20  and  C14_21
REMARK    7  A    between atoms: C14_21  and  C15_22
REMARK    8  A    between atoms: C15_22  and  C16_23
REMARK    9  A    between atoms: C16_23  and  N3_24
ROOT
HETATM    1  C5  UNL     1      51.433  28.852  35.712  1.00  0.00     0.058 A
HETATM    2  C6  UNL     1      50.490  29.801  35.485  1.00  0.00     0.062 A
HETATM    3  C7  UNL     1      49.859  30.513  36.523  1.00  0.00     0.057 A
HETATM    4  C8  UNL     1      50.265  30.177  37.759  1.00  0.00     0.038 A
HETATM    5  C9  UNL     1      51.220  29.217  38.032  1.00  0.00     0.047 A
HETATM    6  C10 UNL     1      51.833  28.525  37.011  1.00  0.00     0.062 A
HETATM    7 CL1  UNL     1      53.036  27.310  37.279  1.00  0.00    -0.082 Cl
HETATM    8  S1  UNL     1      49.328  31.201  38.766  1.00  0.00    -0.027 SA
HETATM    9  C11 UNL     1      48.466  32.003  37.496  1.00  0.00     0.291 A
HETATM   10  O2  UNL     1      47.610  32.901  37.735  1.00  0.00    -0.259 OA
HETATM   11  N2  UNL     1      48.931  31.455  36.394  1.00  0.00    -0.307 N
ENDROOT
BRANCH  11  12
HETATM   12  C12 UNL     1      48.438  31.943  35.088  1.00  0.00     0.133 C
BRANCH  12  13
HETATM   13  C13 UNL     1      47.194  31.320  34.620  1.00  0.00     0.021 C
BRANCH  13  14
HETATM   14  C14 UNL     1      47.109  30.584  33.355  1.00  0.00     0.007 C
BRANCH  14  15
HETATM   15  C15 UNL     1      46.960  29.102  33.416  1.00  0.00     0.044 C
BRANCH  15  16
HETATM   16  C16 UNL     1      46.043  28.539  32.394  1.00  0.00     0.063 C
BRANCH  16  17
HETATM   17  N3  UNL     1      45.895  27.154  32.287  1.00  0.00    -0.373 N
HETATM   18  C17 UNL     1      44.881  26.598  31.487  1.00  0.00     0.063 C
HETATM   19  C18 UNL     1      45.320  25.928  30.236  1.00  0.00     0.045 C
HETATM   20  C19 UNL     1      46.716  26.281  29.809  1.00  0.00     0.011 C
HETATM   21  C20 UNL     1      47.715  26.206  30.927  1.00  0.00     0.000 C
HETATM   22  C21 UNL     1      48.461  24.889  30.860  1.00  0.00     0.011 C
HETATM   23  C22 UNL     1      47.117  26.412  32.285  1.00  0.00     0.131 C
ENDBRANCH  16  17
ENDBRANCH  15  16
ENDBRANCH  14  15
ENDBRANCH  13  14
ENDBRANCH  12  13
ENDBRANCH  11  12
BRANCH   1  24
HETATM   24  N1  UNL     1      52.071  28.133  34.673  1.00  0.00    -0.326 N
HETATM   25  C4  UNL     1      51.535  27.415  33.608  1.00  0.00     0.222 C
HETATM   26  O1  UNL     1      50.316  27.300  33.414  1.00  0.00    -0.273 OA
ATOM     27  H1  UNL     1      53.090  28.142  34.711  1.00  0.00     0.169 HD
BRANCH  25  28
HETATM   28  C3  UNL     1      52.405  26.713  32.599  1.00  0.00     0.103 C
BRANCH  28  29
HETATM   29  C2  UNL     1      52.229  27.265  31.228  1.00  0.00     0.005 C
HETATM   30  C1  UNL     1      53.486  28.018  30.847  1.00  0.00     0.005 C
ENDBRANCH  28  29
ENDBRANCH  25  28
ENDBRANCH   1  24
TORSDOF 9
ENDMDL