MODEL 1
REMARK VINA RESULT: -6.604854062      0.000      0.000
REMARK  9 active torsions:
REMARK  status: ('A' for Active; 'I' for Inactive)
REMARK    1  A    between atoms: C3_3  and  C4_4
REMARK    2  A    between atoms: C5_5  and  C6_6
REMARK    3  A    between atoms: C6_6  and  C7_7
REMARK    4  A    between atoms: C7_7  and  C8_8
REMARK    5  A    between atoms: C8_8  and  C9_9
REMARK    6  A    between atoms: C9_9  and  C10_10
REMARK    7  A    between atoms: C10_10  and  C11_11
REMARK    8  A    between atoms: C15_17  and  C17_19
REMARK    9  A    between atoms: C17_19  and  O3_21
ROOT
HETATM    1  C11 UNL     1      52.659  27.234  37.143  1.00  0.00    -0.015 C
HETATM    2  C12 UNL     1      52.640  27.427  35.714  1.00  0.00     0.002 C
HETATM    3  C13 UNL     1      53.614  26.667  34.885  1.00  0.00     0.176 C
HETATM    4  O1  UNL     1      54.673  26.252  35.316  1.00  0.00    -0.291 OA
HETATM    5  C14 UNL     1      53.241  26.430  33.484  1.00  0.00     0.175 C
HETATM    6 CL1  UNL     1      54.774  26.387  32.545  1.00  0.00    -0.115 Cl
HETATM    7  C15 UNL     1      52.247  27.342  32.885  1.00  0.00     0.073 C
HETATM    8  C16 UNL     1      52.950  28.024  31.694  1.00  0.00     0.028 C
HETATM    9  C19 UNL     1      51.614  28.364  33.706  1.00  0.00     0.026 C
HETATM   10  C20 UNL     1      50.189  28.176  34.105  1.00  0.00     0.015 C
HETATM   11  C21 UNL     1      49.945  29.365  35.010  1.00  0.00     0.080 C
HETATM   12  C22 UNL     1      51.268  29.519  35.689  1.00  0.00     0.140 C
HETATM   13  O4  UNL     1      51.386  30.261  36.653  1.00  0.00    -0.297 OA
HETATM   14  C23 UNL     1      52.306  28.683  35.033  1.00  0.00     0.052 C
HETATM   15  C24 UNL     1      53.461  29.576  34.633  1.00  0.00     0.029 C
ENDROOT
BRANCH   1  16
HETATM   16  C10 UNL     1      53.789  27.423  38.036  1.00  0.00     0.028 C
BRANCH  16  17
HETATM   17  C9  UNL     1      54.401  28.774  38.036  1.00  0.00     0.004 C
BRANCH  17  18
HETATM   18  C8  UNL     1      54.693  29.257  39.468  1.00  0.00     0.001 C
BRANCH  18  19
HETATM   19  C7  UNL     1      53.611  30.272  39.779  1.00  0.00     0.004 C
BRANCH  19  20
HETATM   20  C6  UNL     1      52.571  29.723  40.700  1.00  0.00     0.027 C
BRANCH  20  21
HETATM   21  C5  UNL     1      51.299  29.587  39.942  1.00  0.00    -0.027 C
HETATM   22  C4  UNL     1      50.386  30.561  40.005  1.00  0.00    -0.004 C
BRANCH  22  23
HETATM   23  C3  UNL     1      49.149  30.411  39.258  1.00  0.00    -0.005 C
HETATM   24  C2  UNL     1      48.745  31.386  38.479  1.00  0.00    -0.031 C
HETATM   25  C1  UNL     1      49.539  32.625  38.359  1.00  0.00     0.036 C
ENDBRANCH  22  23
ENDBRANCH  20  21
ENDBRANCH  19  20
ENDBRANCH  18  19
ENDBRANCH  17  18
ENDBRANCH  16  17
ENDBRANCH   1  16
BRANCH   7  26
HETATM   26  C17 UNL     1      51.175  26.504  32.239  1.00  0.00     0.269 C
HETATM   27  O2  UNL     1      50.741  25.445  32.723  1.00  0.00    -0.264 OA
BRANCH  26  28
HETATM   28  O3  UNL     1      50.594  26.894  31.017  1.00  0.00    -0.326 OA
HETATM   29  C18 UNL     1      49.518  26.169  30.456  1.00  0.00     0.213 C
ENDBRANCH  26  28
ENDBRANCH   7  26
TORSDOF 9
ENDMDL