MODEL 2
REMARK VINA RESULT: -9.150196620      0.680      1.007
REMARK  10 active torsions:
REMARK  status: ('A' for Active; 'I' for Inactive)
REMARK    1  A    between atoms: C2_2  and  C5_5
REMARK    2  A    between atoms: N1_8  and  C8_9
REMARK    3  A    between atoms: C8_9  and  C9_10
REMARK    4  A    between atoms: C9_10  and  C10_11
REMARK    5  A    between atoms: C10_11  and  C11_12
REMARK    6  A    between atoms: C11_12  and  O1_13
REMARK    7  A    between atoms: O1_13  and  C12_14
REMARK    8  A    between atoms: N3_21  and  C16_23
REMARK    9  A    between atoms: C16_23  and  C17_24
REMARK   10  A    between atoms: C17_24  and  C18_25
ROOT
HETATM    1  C12 UNL     1      47.052  27.525  32.811  1.00  0.00     0.160 A
HETATM    2  C13 UNL     1      46.166  28.639  32.742  1.00  0.00     0.099 A
HETATM    3  C14 UNL     1      46.549  29.852  33.190  1.00  0.00     0.123 A
HETATM    4 CL1  UNL     1      45.488  31.258  33.109  1.00  0.00    -0.064 Cl
HETATM    5  N2  UNL     1      47.788  29.960  33.704  1.00  0.00    -0.181 N
ATOM      6  H2  UNL     1      48.088  30.873  34.044  1.00  0.00     0.185 HD
HETATM    7  C15 UNL     1      48.654  28.936  33.794  1.00  0.00     0.681 A
HETATM    8  N3  UNL     1      49.759  29.040  34.394  1.00  0.00    -0.226 N
ATOM      9  H3  UNL     1      50.313  28.184  34.378  1.00  0.00     0.177 HD
HETATM   10  N4  UNL     1      48.261  27.711  33.332  1.00  0.00    -0.171 N
ATOM     11  H4  UNL     1      48.908  26.924  33.387  1.00  0.00     0.186 HD
ENDROOT
BRANCH   1  12
HETATM   12  O1  UNL     1      46.557  26.386  32.347  1.00  0.00    -0.335 OA
BRANCH  12  13
HETATM   13  C11 UNL     1      46.586  25.053  32.415  1.00  0.00     0.177 C
BRANCH  13  14
HETATM   14  C10 UNL     1      46.988  24.497  31.037  1.00  0.00     0.028 C
BRANCH  14  15
HETATM   15  C9  UNL     1      48.331  25.021  30.650  1.00  0.00     0.024 C
BRANCH  15  16
HETATM   16  C8  UNL     1      48.325  26.031  29.559  1.00  0.00     0.148 C
BRANCH  16  17
HETATM   17  N1  UNL     1      47.135  26.117  28.737  1.00  0.00    -0.303 N
HETATM   18  C7  UNL     1      47.050  25.660  27.450  1.00  0.00     0.112 A
HETATM   19  C6  UNL     1      45.796  25.901  26.972  1.00  0.00     0.046 A
HETATM   20  C5  UNL     1      45.112  26.522  28.017  1.00  0.00     0.035 A
HETATM   21  N5  UNL     1      45.972  26.621  29.042  1.00  0.00    -0.302 N
ATOM     22  H5  UNL     1      45.745  27.037  29.945  1.00  0.00     0.186 HD
BRANCH  20  23
HETATM   23  C2  UNL     1      43.677  26.948  27.945  1.00  0.00    -0.007 C
HETATM   24  C1  UNL     1      43.599  28.312  27.330  1.00  0.00     0.021 C
HETATM   25  C3  UNL     1      42.911  25.975  27.060  1.00  0.00     0.021 C
HETATM   26  C4  UNL     1      43.035  26.971  29.307  1.00  0.00     0.021 C
ENDBRANCH  20  23
ENDBRANCH  16  17
ENDBRANCH  15  16
ENDBRANCH  14  15
ENDBRANCH  13  14
ENDBRANCH  12  13
ENDBRANCH   1  12
BRANCH   8  27
HETATM   27  C16 UNL     1      50.387  30.112  35.089  1.00  0.00     0.138 C
BRANCH  27  28
HETATM   28  C17 UNL     1      49.706  30.414  36.379  1.00  0.00     0.025 C
BRANCH  28  29
HETATM   29  C18 UNL     1      50.438  30.297  37.650  1.00  0.00    -0.013 C
HETATM   30  C19 UNL     1      49.613  30.398  38.921  1.00  0.00     0.005 C
HETATM   31  C20 UNL     1      50.649  30.869  39.977  1.00  0.00     0.000 C
HETATM   32  C21 UNL     1      51.756  29.872  40.054  1.00  0.00     0.000 C
HETATM   33  C22 UNL     1      51.492  28.654  39.208  1.00  0.00     0.000 C
HETATM   34  C23 UNL     1      51.262  29.013  37.733  1.00  0.00     0.005 C
ENDBRANCH  28  29
ENDBRANCH  27  28
ENDBRANCH   8  27
TORSDOF 10
ENDMDL