MODEL 1
REMARK VINA RESULT: -8.053664571      0.000      0.000
REMARK  10 active torsions:
REMARK  status: ('A' for Active; 'I' for Inactive)
REMARK    1  A    between atoms: O1_2  and  C2_3
REMARK    2  A    between atoms: C6_7  and  C7_8
REMARK    3  A    between atoms: C7_8  and  N1_9
REMARK    4  A    between atoms: N2_12  and  C10_13
REMARK    5  A    between atoms: C10_13  and  C11_14
REMARK    6  A    between atoms: C11_14  and  C12_15
REMARK    7  A    between atoms: C12_15  and  C13_16
REMARK    8  A    between atoms: C13_16  and  C14_17
REMARK    9  A    between atoms: C14_17  and  C15_18
REMARK   10  A    between atoms: N3_28  and  O2_29
ROOT
HETATM    1  N1  UNL     1      53.324  27.829  36.012  1.00  0.00     0.099 N
HETATM    2  C8  UNL     1      53.860  26.739  35.279  1.00  0.00     0.303 C
HETATM    3  C9  UNL     1      54.303  27.129  33.884  1.00  0.00     0.306 C
HETATM    4  N2  UNL     1      53.320  27.825  33.102  1.00  0.00     0.125 N
HETATM    5  C21 UNL     1      52.652  28.849  33.881  1.00  0.00     0.432 C
HETATM    6  F1  UNL     1      51.326  28.547  34.078  1.00  0.00    -0.214 F
HETATM    7  C22 UNL     1      53.266  29.057  35.250  1.00  0.00     0.342 C
ENDROOT
BRANCH   1   8
HETATM    8  C7  UNL     1      52.148  27.595  36.762  1.00  0.00     0.313 C
BRANCH   8   9
HETATM    9  C6  UNL     1      52.005  28.500  37.925  1.00  0.00     0.000 A
HETATM   10  C5  UNL     1      51.109  29.590  37.948  1.00  0.00     0.003 A
HETATM   11  C4  UNL     1      50.218  30.074  37.016  1.00  0.00     0.017 A
HETATM   12  C24 UNL     1      51.185  30.251  39.146  1.00  0.00     0.075 A
HETATM   13  C3  UNL     1      49.429  31.172  37.258  1.00  0.00     0.038 A
HETATM   14  C2  UNL     1      49.523  31.829  38.487  1.00  0.00     0.070 A
HETATM   15  C25 UNL     1      50.408  31.354  39.421  1.00  0.00     0.069 A
HETATM   16  N3  UNL     1      52.111  29.599  39.874  1.00  0.00    -0.235 N
HETATM   17  C23 UNL     1      52.609  28.548  39.149  1.00  0.00     0.133 A
BRANCH  14  18
HETATM   18  O1  UNL     1      48.709  32.928  38.686  1.00  0.00    -0.356 OA
HETATM   19  C1  UNL     1      47.562  33.256  37.966  1.00  0.00     0.210 C
ENDBRANCH  14  18
BRANCH  16  20
HETATM   20  O2  UNL     1      52.538  29.885  41.141  1.00  0.00    -0.283 OA
ATOM     21  H2  UNL     1      51.945  29.927  41.883  1.00  0.00     0.245 HD
ENDBRANCH  16  20
ENDBRANCH   8   9
ENDBRANCH   1   8
BRANCH   4  22
HETATM   22  C10 UNL     1      52.377  26.920  32.534  1.00  0.00     0.276 C
BRANCH  22  23
HETATM   23  C11 UNL     1      51.981  27.295  31.103  1.00  0.00     0.030 C
BRANCH  23  24
HETATM   24  C12 UNL     1      50.693  26.588  30.759  1.00  0.00     0.002 C
BRANCH  24  25
HETATM   25  C13 UNL     1      49.961  26.190  31.999  1.00  0.00     0.001 C
BRANCH  25  26
HETATM   26  C14 UNL     1      48.718  25.422  31.645  1.00  0.00     0.009 C
BRANCH  26  27
HETATM   27  C15 UNL     1      47.467  26.130  32.137  1.00  0.00    -0.044 C
HETATM   28  C16 UNL     1      47.819  27.383  32.911  1.00  0.00     0.015 C
HETATM   29  C17 UNL     1      46.684  26.550  30.905  1.00  0.00     0.009 C
HETATM   30  C18 UNL     1      45.230  26.356  31.380  1.00  0.00     0.001 C
HETATM   31  C19 UNL     1      45.371  25.019  32.062  1.00  0.00     0.001 C
HETATM   32  C20 UNL     1      46.622  25.173  32.887  1.00  0.00     0.009 C
ENDBRANCH  26  27
ENDBRANCH  25  26
ENDBRANCH  24  25
ENDBRANCH  23  24
ENDBRANCH  22  23
ENDBRANCH   4  22
TORSDOF 10
ENDMDL