MODEL 3
REMARK VINA RESULT: -8.182160674      3.728      6.582
REMARK  11 active torsions:
REMARK  status: ('A' for Active; 'I' for Inactive)
REMARK    1  A    between atoms: C2_2  and  O1_3
REMARK    2  A    between atoms: C2_2  and  C3_5
REMARK    3  A    between atoms: C3_5  and  O2_6
REMARK    4  A    between atoms: C4_8  and  S1_9
REMARK    5  A    between atoms: S1_9  and  N1_12
REMARK    6  A    between atoms: N1_12  and  C5_14
REMARK       I    between atoms: N2_17  and  C8_18
REMARK       I    between atoms: C8_18  and  N3_20
REMARK    7  A    between atoms: N3_20  and  C9_21
REMARK    8  A    between atoms: N3_20  and  C19_36
REMARK    9  A    between atoms: C9_21  and  C10_22
REMARK   10  A    between atoms: C17_29  and  O6_30
REMARK   11  A    between atoms: C17_29  and  C18_32
ROOT
HETATM    1  C5  UNL     1      33.964  28.223  15.032  1.00  0.00     0.112 C
HETATM    2  C6  UNL     1      32.529  28.059  14.676  1.00  0.00     0.047 C
HETATM    3  C7  UNL     1      31.789  29.001  15.502  1.00  0.00     0.129 C
HETATM    4  N2  UNL     1      32.711  30.090  15.865  1.00  0.00    -0.332 N
HETATM    5  C8  UNL     1      32.199  31.374  16.172  1.00  0.00     0.325 C
HETATM    6  O5  UNL     1      30.916  31.423  15.970  1.00  0.00    -0.247 OA
HETATM    7  N3  UNL     1      32.870  32.537  16.640  1.00  0.00    -0.303 N
HETATM    8  C29 UNL     1      34.014  29.536  15.770  1.00  0.00     0.153 C
ENDROOT
BRANCH   7   9
HETATM    9  C9  UNL     1      34.218  32.619  17.061  1.00  0.00     0.078 C
BRANCH   9  10
HETATM   10  C10 UNL     1      34.591  32.696  18.483  1.00  0.00     0.072 C
HETATM   11  C11 UNL     1      34.996  34.057  18.938  1.00  0.00    -0.002 C
HETATM   12  C12 UNL     1      34.613  34.270  20.426  1.00  0.00     0.006 C
HETATM   13  C15 UNL     1      36.495  34.278  19.040  1.00  0.00     0.010 C
HETATM   14  C13 UNL     1      35.778  33.838  21.243  1.00  0.00     0.005 C
HETATM   15  C14 UNL     1      36.822  33.406  20.219  1.00  0.00    -0.011 C
HETATM   16  C16 UNL     1      36.573  31.984  19.911  1.00  0.00     0.052 C
HETATM   17  C17 UNL     1      35.725  31.692  18.710  1.00  0.00     0.164 C
BRANCH  17  18
HETATM   18  O6  UNL     1      36.577  31.681  17.591  1.00  0.00    -0.380 OA
ATOM     19  H6  UNL     1      36.495  30.852  17.136  1.00  0.00     0.211 HD
ENDBRANCH  17  18
BRANCH  17  20
HETATM   20  C18 UNL     1      35.254  30.270  18.894  1.00  0.00     0.419 C
HETATM   21  F1  UNL     1      33.878  30.162  18.884  1.00  0.00    -0.168 F
HETATM   22  F2  UNL     1      35.911  29.325  18.167  1.00  0.00    -0.168 F
HETATM   23  F3  UNL     1      35.576  29.917  20.248  1.00  0.00    -0.168 F
ENDBRANCH  17  20
ENDBRANCH   9  10
ENDBRANCH   7   9
BRANCH   7  24
HETATM   24  C19 UNL     1      32.104  33.792  16.470  1.00  0.00     0.042 C
HETATM   25  C20 UNL     1      33.018  34.976  16.238  1.00  0.00     0.036 C
HETATM   26  C21 UNL     1      32.247  36.245  15.907  1.00  0.00    -0.012 C
HETATM   27  C22 UNL     1      31.311  36.566  17.017  1.00  0.00     0.009 C
HETATM   28  C26 UNL     1      31.523  36.072  14.584  1.00  0.00     0.009 C
HETATM   29  C23 UNL     1      30.369  35.371  17.142  1.00  0.00    -0.012 C
HETATM   30  C24 UNL     1      29.630  35.160  15.864  1.00  0.00     0.009 C
HETATM   31  C28 UNL     1      31.193  34.149  17.574  1.00  0.00     0.036 C
HETATM   32  C25 UNL     1      30.621  34.876  14.765  1.00  0.00    -0.012 C
HETATM   33  C27 UNL     1      31.356  33.627  15.138  1.00  0.00     0.036 C
ENDBRANCH   7  24
BRANCH   1  34
HETATM   34  N1  UNL     1      34.721  28.236  13.791  1.00  0.00    -0.310 N
ATOM     35  H1  UNL     1      34.357  28.396  12.852  1.00  0.00     0.172 HD
BRANCH  34  36
HETATM   36  S1  UNL     1      36.383  27.918  14.235  1.00  0.00     0.251 S
HETATM   37  O3  UNL     1      36.473  26.544  14.835  1.00  0.00    -0.201 OA
HETATM   38  O4  UNL     1      36.805  28.993  15.219  1.00  0.00    -0.201 OA
BRANCH  36  39
HETATM   39  C4  UNL     1      37.415  28.097  12.835  1.00  0.00     0.165 C
HETATM   40  C3  UNL     1      38.690  27.821  12.892  1.00  0.00     0.084 C
BRANCH  40  41
HETATM   41  C2  UNL     1      39.422  27.346  14.085  1.00  0.00     0.171 C
HETATM   42  C1  UNL     1      40.895  27.735  13.979  1.00  0.00     0.046 C
BRANCH  41  43
HETATM   43  O1  UNL     1      39.314  25.981  14.292  1.00  0.00    -0.389 OA
ATOM     44  H1  UNL     1      39.266  25.533  13.455  1.00  0.00     0.210 HD
ENDBRANCH  41  43
ENDBRANCH  40  41
BRANCH  40  45
HETATM   45  O2  UNL     1      39.434  27.982  11.714  1.00  0.00    -0.362 OA
ATOM     46  H2  UNL     1      40.381  27.987  11.800  1.00  0.00     0.217 HD
ENDBRANCH  40  45
ENDBRANCH  36  39
ENDBRANCH  34  36
ENDBRANCH   1  34
TORSDOF 11
ENDMDL