MODEL 1
REMARK VINA RESULT: -8.192449526      0.000      0.000
REMARK  12 active torsions:
REMARK  status: ('A' for Active; 'I' for Inactive)
REMARK    1  A    between atoms: C2_2  and  N1_3
REMARK       I    between atoms: N1_3  and  C3_4
REMARK    2  A    between atoms: N1_3  and  C5_7
REMARK    3  A    between atoms: C5_7  and  O2_8
REMARK    4  A    between atoms: C5_7  and  N2_10
REMARK    5  A    between atoms: N2_10  and  C6_12
REMARK    6  A    between atoms: C7_13  and  C8_14
REMARK    7  A    between atoms: C8_14  and  N3_15
REMARK    8  A    between atoms: N3_15  and  C9_17
REMARK    9  A    between atoms: C9_17  and  C10_19
REMARK   10  A    between atoms: C16_29  and  C17_30
REMARK   11  A    between atoms: C17_30  and  O3_33
REMARK   12  A    between atoms: C21_37  and  O4_38
ROOT
HETATM    1  C6  UNL     1      36.449  27.580  16.499  1.00  0.00     0.124 C
HETATM    2  C7  UNL     1      35.087  27.854  17.023  1.00  0.00     0.033 C
HETATM    3  C15 UNL     1      35.127  27.768  18.532  1.00  0.00     0.047 C
HETATM    4  C16 UNL     1      35.218  26.246  18.780  1.00  0.00    -0.030 C
HETATM    5  C20 UNL     1      36.222  25.682  18.144  1.00  0.00     0.024 C
HETATM    6 BR2  UNL     1      36.572  23.790  18.274  1.00  0.00    -0.053 Br
HETATM    7  C21 UNL     1      37.146  26.522  17.287  1.00  0.00     0.181 C
ENDROOT
BRANCH   2   8
HETATM    8  C8  UNL     1      34.523  29.176  16.551  1.00  0.00     0.127 C
BRANCH   8   9
HETATM    9  N3  UNL     1      35.359  30.266  16.978  1.00  0.00    -0.379 N
ATOM     10  H3  UNL     1      36.294  30.387  16.587  1.00  0.00     0.160 HD
BRANCH   9  11
HETATM   11  C9  UNL     1      34.863  31.171  17.952  1.00  0.00     0.125 C
HETATM   12  S1  UNL     1      33.262  31.150  18.368  1.00  0.00    -0.058 SA
BRANCH  11  13
HETATM   13  C10 UNL     1      35.685  32.145  18.631  1.00  0.00     0.092 A
HETATM   14  N4  UNL     1      36.465  31.747  19.646  1.00  0.00    -0.361 N
HETATM   15  C11 UNL     1      37.256  32.641  20.310  1.00  0.00     0.107 A
ATOM     16  H4  UNL     1      36.468  30.766  19.926  1.00  0.00     0.165 HD
HETATM   17  C12 UNL     1      37.273  33.955  19.962  1.00  0.00     0.028 A
HETATM   18 BR1  UNL     1      38.403  35.155  20.933  1.00  0.00    -0.050 Br
HETATM   19  C13 UNL     1      36.490  34.405  18.929  1.00  0.00     0.046 A
HETATM   20  C14 UNL     1      35.694  33.466  18.271  1.00  0.00     0.065 A
HETATM   21 CL1  UNL     1      34.700  34.032  16.961  1.00  0.00    -0.082 Cl
ENDBRANCH  11  13
ENDBRANCH   9  11
ENDBRANCH   8   9
ENDBRANCH   2   8
BRANCH   1  22
HETATM   22  N2  UNL     1      36.429  27.135  15.104  1.00  0.00    -0.348 N
ATOM     23  H2  UNL     1      36.009  26.240  14.854  1.00  0.00     0.163 HD
BRANCH  22  24
HETATM   24  C5  UNL     1      37.002  27.967  14.100  1.00  0.00     0.222 C
BRANCH  24  25
HETATM   25  N1  UNL     1      38.318  27.974  13.647  1.00  0.00    -0.284 N
HETATM   26  C3  UNL     1      38.737  28.510  12.426  1.00  0.00     0.222 C
HETATM   27  C4  UNL     1      40.193  28.474  12.011  1.00  0.00     0.117 C
HETATM   28  O1  UNL     1      37.982  29.052  11.589  1.00  0.00    -0.273 OA
BRANCH  25  29
HETATM   29  C2  UNL     1      39.362  27.380  14.493  1.00  0.00     0.131 C
HETATM   30  C1  UNL     1      39.507  25.910  14.256  1.00  0.00     0.027 C
ENDBRANCH  25  29
ENDBRANCH  24  25
BRANCH  24  31
HETATM   31  O2  UNL     1      36.220  28.831  13.525  1.00  0.00    -0.332 OA
ATOM     32  H2  UNL     1      36.008  28.639  12.620  1.00  0.00     0.220 HD
ENDBRANCH  24  31
ENDBRANCH  22  24
ENDBRANCH   1  22
BRANCH   7  33
HETATM   33  O4  UNL     1      38.070  27.137  18.150  1.00  0.00    -0.388 OA
ATOM     34  H4  UNL     1      38.583  27.761  17.651  1.00  0.00     0.210 HD
ENDBRANCH   7  33
BRANCH   4  35
HETATM   35  C17 UNL     1      34.245  25.620  19.646  1.00  0.00     0.075 C
HETATM   36  C18 UNL     1      33.213  26.717  20.009  1.00  0.00     0.050 C
HETATM   37  C19 UNL     1      34.643  24.988  20.919  1.00  0.00     0.050 C
BRANCH  35  38
HETATM   38  O3  UNL     1      33.468  24.655  18.943  1.00  0.00    -0.386 OA
ATOM     39  H3  UNL     1      32.537  24.822  19.039  1.00  0.00     0.211 HD
ENDBRANCH  35  38
ENDBRANCH   4  35
TORSDOF 12
ENDMDL