MODEL 3
REMARK VINA RESULT: -7.629472577      2.291      2.902
REMARK  8 active torsions:
REMARK  status: ('A' for Active; 'I' for Inactive)
REMARK    1  A    between atoms: C2_2  and  N1_3
REMARK    2  A    between atoms: C2_2  and  C20_39
REMARK       I    between atoms: N1_3  and  C3_5
REMARK    3  A    between atoms: C3_5  and  C4_7
REMARK       I    between atoms: N2_11  and  C8_12
REMARK    4  A    between atoms: C8_12  and  C9_14
REMARK    5  A    between atoms: C11_16  and  O3_17
REMARK    6  A    between atoms: C13_21  and  C14_22
REMARK    7  A    between atoms: C16_24  and  N3_25
REMARK    8  A    between atoms: N3_25  and  N4_27
ROOT
HETATM    1  C9  UNL     1      33.739  29.362  17.551  1.00  0.00     0.176 C
HETATM    2  C10 UNL     1      32.591  28.626  16.919  1.00  0.00     0.068 C
HETATM    3  C11 UNL     1      32.658  28.781  15.441  1.00  0.00     0.145 C
HETATM    4  C12 UNL     1      34.015  28.759  14.846  1.00  0.00     0.161 C
HETATM    5 CL1  UNL     1      34.151  27.128  14.044  1.00  0.00    -0.116 Cl
HETATM    6  C13 UNL     1      35.179  28.813  15.789  1.00  0.00     0.038 C
HETATM    7  N6  UNL     1      34.956  28.580  17.159  1.00  0.00    -0.378 N
ATOM      8  H6  UNL     1      35.519  27.988  17.772  1.00  0.00     0.160 HD
ENDROOT
BRANCH   1   9
HETATM    9  C8  UNL     1      33.640  29.348  19.036  1.00  0.00     0.243 C
HETATM   10  N2  UNL     1      33.808  30.551  19.754  1.00  0.00    -0.337 N
HETATM   11  C4  UNL     1      34.140  31.890  19.404  1.00  0.00     0.179 C
HETATM   12  C7  UNL     1      33.563  30.603  21.216  1.00  0.00     0.127 C
HETATM   13  C5  UNL     1      33.092  32.705  20.157  1.00  0.00     0.037 C
HETATM   14  C6  UNL     1      33.168  32.031  21.527  1.00  0.00     0.022 C
HETATM   15  O2  UNL     1      33.406  28.248  19.608  1.00  0.00    -0.271 OA
BRANCH  11  16
HETATM   16  C3  UNL     1      35.457  32.362  19.977  1.00  0.00     0.241 C
HETATM   17  N1  UNL     1      35.702  33.600  20.528  1.00  0.00    -0.345 N
ATOM     18  H1  UNL     1      34.919  34.251  20.578  1.00  0.00     0.163 HD
HETATM   19  O1  UNL     1      36.357  31.470  19.897  1.00  0.00    -0.271 OA
BRANCH  17  20
HETATM   20  C2  UNL     1      36.955  34.049  21.033  1.00  0.00     0.181 C
HETATM   21  C1  UNL     1      37.733  34.969  20.153  1.00  0.00     0.043 C
BRANCH  20  22
HETATM   22  C20 UNL     1      36.942  34.600  22.418  1.00  0.00     0.196 C
HETATM   23  O4  UNL     1      37.908  35.189  22.950  1.00  0.00    -0.646 OA
HETATM   24  O5  UNL     1      35.779  34.468  23.213  1.00  0.00    -0.646 OA
ENDBRANCH  20  22
ENDBRANCH  17  20
ENDBRANCH  11  16
ENDBRANCH   1   9
BRANCH   3  25
HETATM   25  O3  UNL     1      31.847  27.825  14.783  1.00  0.00    -0.394 OA
ATOM     26  H3  UNL     1      32.337  27.348  14.123  1.00  0.00     0.210 HD
ENDBRANCH   3  25
BRANCH   6  27
HETATM   27  C14 UNL     1      36.409  28.285  15.163  1.00  0.00     0.007 A
HETATM   28  C15 UNL     1      36.521  28.547  13.780  1.00  0.00     0.047 A
HETATM   29  C16 UNL     1      37.638  28.209  13.048  1.00  0.00     0.067 A
HETATM   30  C17 UNL     1      38.677  27.591  13.707  1.00  0.00     0.040 A
HETATM   31 BR1  UNL     1      40.229  27.123  12.698  1.00  0.00    -0.049 Br
HETATM   32  C18 UNL     1      38.582  27.330  15.057  1.00  0.00     0.041 A
HETATM   33  C19 UNL     1      37.446  27.673  15.796  1.00  0.00     0.024 A
HETATM   34 BR2  UNL     1      37.335  27.223  17.625  1.00  0.00    -0.050 Br
BRANCH  29  35
HETATM   35  N3  UNL     1      37.739  28.494  11.658  1.00  0.00    -0.286 N
ATOM     36  H3  UNL     1      37.441  27.814  10.959  1.00  0.00     0.188 HD
BRANCH  35  37
HETATM   37  N4  UNL     1      38.204  29.606  11.318  1.00  0.00    -0.249 N
HETATM   38  N5  UNL     1      38.560  30.491  10.528  1.00  0.00    -0.331 N
ATOM     39  H52 UNL     1      38.337  30.026   9.648  1.00  0.00     0.178 HD
ATOM     40  H51 UNL     1      38.939  31.397  10.252  1.00  0.00     0.178 HD
ATOM     41  H4  UNL     1      38.413  30.033  12.221  1.00  0.00     0.207 HD
ENDBRANCH  35  37
ENDBRANCH  29  35
ENDBRANCH   6  27
TORSDOF 8
ENDMDL