MODEL 4
REMARK VINA RESULT: -7.539995221      3.310      7.086
REMARK  7 active torsions:
REMARK  status: ('A' for Active; 'I' for Inactive)
REMARK    1  A    between atoms: O1_2  and  C2_3
REMARK    2  A    between atoms: C5_7  and  C6_8
REMARK    3  A    between atoms: C6_8  and  C7_9
REMARK    4  A    between atoms: C8_11  and  C9_12
REMARK    5  A    between atoms: C9_12  and  O3_13
REMARK    6  A    between atoms: C10_15  and  N1_16
REMARK       I    between atoms: N1_16  and  C11_18
REMARK    7  A    between atoms: C11_18  and  C12_20
REMARK       I    between atoms: N2_27  and  C19_28
REMARK       I    between atoms: N5_34  and  C21_35
ROOT
HETATM    1  C7  UNL     1      35.241  27.176  15.904  1.00  0.00     0.230 C
HETATM    2  O2  UNL     1      34.584  27.767  16.945  1.00  0.00    -0.357 OA
HETATM    3  C8  UNL     1      35.221  27.635  18.172  1.00  0.00     0.172 C
HETATM    4  C10 UNL     1      36.558  28.289  18.236  1.00  0.00     0.133 C
HETATM    5  C20 UNL     1      36.906  28.747  16.812  1.00  0.00     0.156 C
HETATM    6  N5  UNL     1      36.663  27.559  15.990  1.00  0.00    -0.323 N
HETATM    7  C21 UNL     1      37.693  26.849  15.344  1.00  0.00     0.217 C
HETATM    8  C22 UNL     1      39.084  27.339  15.511  1.00  0.00     0.117 C
HETATM    9  O5  UNL     1      37.398  25.841  14.660  1.00  0.00    -0.274 OA
ENDROOT
BRANCH   4  10
HETATM   10  N1  UNL     1      36.691  29.333  19.188  1.00  0.00    -0.350 N
HETATM   11  C11 UNL     1      36.270  30.674  19.006  1.00  0.00     0.241 C
HETATM   12  O4  UNL     1      35.732  30.959  17.906  1.00  0.00    -0.271 OA
ATOM     13  H1  UNL     1      37.127  29.098  20.080  1.00  0.00     0.163 HD
BRANCH  11  14
HETATM   14  C12 UNL     1      36.438  31.716  20.043  1.00  0.00     0.183 C
HETATM   15  C13 UNL     1      36.964  33.018  19.421  1.00  0.00     0.018 C
HETATM   16  C14 UNL     1      35.806  33.714  18.721  1.00  0.00     0.009 C
HETATM   17  C18 UNL     1      37.378  33.904  20.575  1.00  0.00     0.009 C
HETATM   18  C15 UNL     1      34.882  34.325  19.767  1.00  0.00     0.026 C
HETATM   19  C16 UNL     1      35.017  33.474  21.014  1.00  0.00     0.088 C
HETATM   20  C17 UNL     1      36.335  33.900  21.674  1.00  0.00     0.026 C
HETATM   21  N2  UNL     1      35.199  32.065  20.690  1.00  0.00    -0.337 N
HETATM   22  C19 UNL     1      34.171  31.140  21.024  1.00  0.00     0.185 C
HETATM   23  N3  UNL     1      32.957  31.433  20.720  1.00  0.00    -0.374 N
HETATM   24  N4  UNL     1      34.393  29.919  21.671  1.00  0.00    -0.064 NA
ATOM     25  H32 UNL     1      32.795  32.323  20.249  1.00  0.00     0.158 HD
ATOM     26  H31 UNL     1      32.220  30.771  20.960  1.00  0.00     0.158 HD
ENDBRANCH  11  14
ENDBRANCH   4  10
BRANCH   3  27
HETATM   27  C9  UNL     1      35.369  26.156  18.504  1.00  0.00     0.198 C
BRANCH  27  28
HETATM   28  O3  UNL     1      36.644  25.970  19.090  1.00  0.00    -0.398 OA
ATOM     29  H3  UNL     1      36.752  26.629  19.765  1.00  0.00     0.209 HD
ENDBRANCH  27  28
ENDBRANCH   3  27
BRANCH   1  30
HETATM   30  C6  UNL     1      34.795  27.630  14.566  1.00  0.00     0.094 C
BRANCH  30  31
HETATM   31  C5  UNL     1      33.626  28.511  14.510  1.00  0.00    -0.029 A
HETATM   32  C4  UNL     1      33.649  29.754  15.159  1.00  0.00     0.031 A
HETATM   33  C3  UNL     1      32.585  30.629  15.117  1.00  0.00     0.046 A
HETATM   34  C2  UNL     1      31.437  30.311  14.424  1.00  0.00     0.109 A
HETATM   35 BR1  UNL     1      32.640  32.315  16.007  1.00  0.00    -0.048 Br
HETATM   36  C24 UNL     1      31.394  29.098  13.782  1.00  0.00     0.090 A
HETATM   37  C23 UNL     1      32.476  28.210  13.826  1.00  0.00     0.065 A
HETATM   38 CL2  UNL     1      29.932  28.679  12.892  1.00  0.00    -0.079 Cl
HETATM   39 CL1  UNL     1      32.307  26.668  13.000  1.00  0.00    -0.082 Cl
BRANCH  34  40
HETATM   40  O1  UNL     1      30.358  31.208  14.385  1.00  0.00    -0.353 OA
HETATM   41  C1  UNL     1      29.320  31.019  15.323  1.00  0.00     0.210 C
ENDBRANCH  34  40
ENDBRANCH  30  31
ENDBRANCH   1  30
TORSDOF 7
ENDMDL