MODEL 5
REMARK VINA RESULT: -8.446161271      0.958      1.809
REMARK  6 active torsions:
REMARK  status: ('A' for Active; 'I' for Inactive)
REMARK    1  A    between atoms: C3_3  and  C4_4
REMARK    2  A    between atoms: C4_4  and  C5_5
REMARK    3  A    between atoms: C5_5  and  C7_7
REMARK    4  A    between atoms: C7_7  and  C8_8
REMARK       I    between atoms: C8_8  and  N1_10
REMARK    5  A    between atoms: N1_10  and  C9_12
REMARK    6  A    between atoms: C22_34  and  C23_35
ROOT
HETATM    1  C9  UNL     1      35.483  28.792  19.126  1.00  0.00     0.176 C
HETATM    2  C10 UNL     1      36.490  27.643  19.341  1.00  0.00     0.036 C
HETATM    3  C11 UNL     1      37.464  27.602  18.185  1.00  0.00     0.022 C
HETATM    4  C12 UNL     1      36.796  27.293  16.883  1.00  0.00     0.125 C
HETATM    5  N2  UNL     1      37.792  26.784  15.934  1.00  0.00    -0.337 N
ATOM      6  H2  UNL     1      38.490  26.115  16.258  1.00  0.00     0.164 HD
HETATM    7  C13 UNL     1      37.810  27.200  14.575  1.00  0.00     0.360 C
HETATM    8  O2  UNL     1      38.854  26.877  13.904  1.00  0.00    -0.239 OA
HETATM    9  O3  UNL     1      36.764  27.901  14.043  1.00  0.00    -0.304 OA
HETATM   10  C14 UNL     1      35.420  27.537  13.977  1.00  0.00     0.180 C
HETATM   11  C15 UNL     1      34.601  28.826  13.823  1.00  0.00     0.027 C
HETATM   12  C16 UNL     1      33.168  28.535  13.478  1.00  0.00     0.008 C
HETATM   13  C17 UNL     1      32.397  28.125  14.711  1.00  0.00     0.079 C
HETATM   14  C18 UNL     1      32.218  29.289  15.668  1.00  0.00     0.246 C
HETATM   15  F1  UNL     1      30.883  29.297  16.026  1.00  0.00    -0.206 F
HETATM   16  F2  UNL     1      32.433  30.500  15.038  1.00  0.00    -0.206 F
HETATM   17  C19 UNL     1      33.120  29.093  16.879  1.00  0.00     0.113 C
HETATM   18  C20 UNL     1      32.289  28.868  18.126  1.00  0.00     0.185 C
HETATM   19  C21 UNL     1      31.784  30.187  18.586  1.00  0.00     0.241 C
HETATM   20  O4  UNL     1      32.710  31.049  18.805  1.00  0.00    -0.271 OA
HETATM   21  N3  UNL     1      30.452  30.558  18.793  1.00  0.00    -0.346 N
ATOM     22  H3  UNL     1      30.176  31.442  18.366  1.00  0.00     0.163 HD
HETATM   23  C22 UNL     1      29.426  29.884  19.511  1.00  0.00     0.180 C
HETATM   24  C26 UNL     1      29.280  28.449  19.276  1.00  0.00     0.243 C
HETATM   25  O5  UNL     1      28.581  28.106  18.257  1.00  0.00    -0.271 OA
HETATM   26  N4  UNL     1      29.815  27.394  20.032  1.00  0.00    -0.327 N
ATOM     27  H4  UNL     1      29.231  26.568  20.159  1.00  0.00     0.165 HD
HETATM   28  C27 UNL     1      31.129  27.380  20.649  1.00  0.00     0.289 C
HETATM   29  F3  UNL     1      31.387  28.544  21.324  1.00  0.00    -0.225 F
HETATM   30  C28 UNL     1      32.208  26.966  19.691  1.00  0.00     0.185 C
HETATM   31  N5  UNL     1      32.961  28.129  19.175  1.00  0.00    -0.332 N
HETATM   32  C29 UNL     1      34.199  28.402  19.742  1.00  0.00     0.243 C
HETATM   33  O6  UNL     1      34.271  28.306  21.024  1.00  0.00    -0.271 OA
ENDROOT
BRANCH   1  34
HETATM   34  N1  UNL     1      36.066  29.912  19.885  1.00  0.00    -0.348 N
HETATM   35  C8  UNL     1      36.560  31.074  19.254  1.00  0.00     0.218 C
HETATM   36  O1  UNL     1      36.507  31.167  18.002  1.00  0.00    -0.274 OA
ATOM     37  H1  UNL     1      36.114  29.846  20.902  1.00  0.00     0.163 HD
BRANCH  35  38
HETATM   38  C7  UNL     1      37.129  32.152  20.064  1.00  0.00     0.107 C
BRANCH  38  39
HETATM   39  C5  UNL     1      36.092  33.290  20.244  1.00  0.00    -0.007 C
HETATM   40  C6  UNL     1      36.719  34.207  21.347  1.00  0.00     0.011 C
BRANCH  39  41
HETATM   41  C4  UNL     1      36.015  34.122  19.018  1.00  0.00     0.031 C
BRANCH  41  42
HETATM   42  C3  UNL     1      34.756  34.048  18.262  1.00  0.00    -0.031 C
HETATM   43  C2  UNL     1      34.679  33.883  16.974  1.00  0.00    -0.035 C
HETATM   44  C1  UNL     1      33.359  33.825  16.297  1.00  0.00     0.036 C
ENDBRANCH  41  42
ENDBRANCH  39  41
ENDBRANCH  38  39
ENDBRANCH  35  38
ENDBRANCH   1  34
BRANCH  23  45
HETATM   45  C23 UNL     1      28.065  30.515  19.210  1.00  0.00     0.009 C
HETATM   46  C24 UNL     1      27.338  30.861  20.489  1.00  0.00     0.012 C
HETATM   47  C25 UNL     1      28.168  31.704  18.311  1.00  0.00     0.012 C
ENDBRANCH  23  45
TORSDOF 6
ENDMDL