MODEL 3
REMARK VINA RESULT: -7.159425636      1.551      2.928
REMARK  8 active torsions:
REMARK  status: ('A' for Active; 'I' for Inactive)
REMARK    1  A    between atoms: O1_2  and  C2_3
REMARK    2  A    between atoms: C4_6  and  O2_7
REMARK    3  A    between atoms: C6_11  and  O3_12
REMARK    4  A    between atoms: O3_12  and  C7_13
REMARK    5  A    between atoms: C7_13  and  C8_14
REMARK       I    between atoms: C8_14  and  N1_16
REMARK    6  A    between atoms: N1_16  and  N2_18
REMARK       I    between atoms: N2_18  and  C9_20
REMARK    7  A    between atoms: C9_20  and  C10_22
REMARK    8  A    between atoms: C16_31  and  C17_32
ROOT
HETATM    1  C7  UNL     1      35.476  31.243  20.488  1.00  0.00     0.280 C
ENDROOT
BRANCH   1   2
HETATM    2  O3  UNL     1      34.573  32.274  20.734  1.00  0.00    -0.340 OA
BRANCH   2   3
HETATM    3  C6  UNL     1      34.495  33.048  21.852  1.00  0.00     0.102 A
HETATM    4  C5  UNL     1      33.893  32.622  22.994  1.00  0.00     0.079 A
HETATM    5  C4  UNL     1      33.828  33.429  24.113  1.00  0.00     0.106 A
HETATM    6 BR2  UNL     1      33.094  30.877  23.136  1.00  0.00    -0.045 Br
HETATM    7  C3  UNL     1      34.375  34.691  24.105  1.00  0.00     0.079 A
HETATM    8  C2  UNL     1      35.002  35.130  22.919  1.00  0.00     0.101 A
HETATM    9 BR1  UNL     1      34.302  35.833  25.637  1.00  0.00    -0.045 Br
HETATM   10  C16 UNL     1      35.070  34.350  21.805  1.00  0.00     0.034 A
BRANCH   5  11
HETATM   11  O2  UNL     1      33.217  32.985  25.252  1.00  0.00    -0.358 OA
ATOM     12  H2  UNL     1      32.309  33.222  25.404  1.00  0.00     0.217 HD
ENDBRANCH   5  11
BRANCH   8  13
HETATM   13  O1  UNL     1      35.551  36.416  22.997  1.00  0.00    -0.354 OA
HETATM   14  C1  UNL     1      36.969  36.524  23.239  1.00  0.00     0.210 C
ENDBRANCH   8  13
BRANCH  10  15
HETATM   15  C17 UNL     1      35.523  34.767  20.530  1.00  0.00     0.024 C
HETATM   16  C18 UNL     1      36.675  34.851  19.988  1.00  0.00     0.057 C
HETATM   17 BR3  UNL     1      38.394  34.458  20.653  1.00  0.00    -0.064 Br
ENDBRANCH  10  15
ENDBRANCH   2   3
ENDBRANCH   1   2
BRANCH   1  18
HETATM   18  C8  UNL     1      34.981  30.431  19.351  1.00  0.00     0.260 C
HETATM   19  O4  UNL     1      33.977  30.820  18.711  1.00  0.00    -0.269 OA
HETATM   20  N1  UNL     1      35.632  29.233  18.991  1.00  0.00    -0.266 N
ATOM     21  H1  UNL     1      36.448  28.941  19.529  1.00  0.00     0.190 HD
BRANCH  20  22
HETATM   22  N2  UNL     1      35.205  28.419  17.917  1.00  0.00    -0.267 N
HETATM   23  C9  UNL     1      35.755  28.560  16.622  1.00  0.00     0.243 C
HETATM   24  O5  UNL     1      36.639  29.425  16.431  1.00  0.00    -0.271 OA
ATOM     25  H2  UNL     1      34.484  27.716  18.080  1.00  0.00     0.190 HD
BRANCH  23  26
HETATM   26  C10 UNL     1      35.292  27.708  15.529  1.00  0.00     0.115 C
HETATM   27  C11 UNL     1      36.500  27.223  14.705  1.00  0.00     0.119 C
HETATM   28  C12 UNL     1      36.714  28.323  13.754  1.00  0.00     0.219 C
HETATM   29  O6  UNL     1      37.776  28.662  13.143  1.00  0.00    -0.274 OA
HETATM   30  N3  UNL     1      35.470  29.004  13.601  1.00  0.00    -0.352 N
HETATM   31  C13 UNL     1      34.481  28.382  14.475  1.00  0.00     0.038 C
ATOM     32  H3  UNL     1      35.300  29.796  12.981  1.00  0.00     0.163 HD
HETATM   33  C14 UNL     1      33.748  27.306  13.684  1.00  0.00     0.039 C
HETATM   34  C15 UNL     1      33.515  29.410  14.948  1.00  0.00     0.039 C
ENDBRANCH  23  26
ENDBRANCH  20  22
ENDBRANCH   1  18
TORSDOF 8
ENDMDL