MODEL 4
REMARK VINA RESULT: -7.128734147      3.802      8.886
REMARK  10 active torsions:
REMARK  status: ('A' for Active; 'I' for Inactive)
REMARK    1  A    between atoms: C3_3  and  O1_4
REMARK       I    between atoms: N1_8  and  C6_9
REMARK       I    between atoms: C6_9  and  N2_11
REMARK    2  A    between atoms: N2_11  and  C7_13
REMARK    3  A    between atoms: C7_13  and  C8_14
REMARK    4  A    between atoms: C7_13  and  C9_19
REMARK    5  A    between atoms: C8_14  and  N3_15
REMARK    6  A    between atoms: C9_19  and  O3_20
REMARK    7  A    between atoms: C9_19  and  N4_22
REMARK       I    between atoms: N5_25  and  C12_26
REMARK       I    between atoms: C12_26  and  N7_33
REMARK    8  A    between atoms: N6_27  and  C13_29
REMARK    9  A    between atoms: C13_29  and  C15_31
REMARK   10  A    between atoms: N7_33  and  C17_35
ROOT
HETATM    1  C1  UNL     1      35.825  34.857  20.647  1.00  0.00     0.015 C
HETATM    2  C2  UNL     1      35.475  34.683  21.799  1.00  0.00    -0.079 C
HETATM    3  C3  UNL     1      35.047  34.499  23.183  1.00  0.00     0.123 C
HETATM    4  C4  UNL     1      35.032  33.029  23.480  1.00  0.00     0.071 C
HETATM    5  C5  UNL     1      34.109  32.341  22.496  1.00  0.00     0.131 C
HETATM    6  N1  UNL     1      32.818  32.939  22.379  1.00  0.00    -0.334 N
HETATM    7  C6  UNL     1      31.623  32.191  22.321  1.00  0.00     0.319 C
HETATM    8  O2  UNL     1      30.492  32.795  22.212  1.00  0.00    -0.247 OA
HETATM    9  N2  UNL     1      31.605  30.802  22.377  1.00  0.00    -0.329 N
ATOM     10  H2  UNL     1      32.493  30.309  22.469  1.00  0.00     0.165 HD
HETATM   11  C26 UNL     1      32.716  34.394  22.302  1.00  0.00     0.131 C
HETATM   12  C27 UNL     1      33.614  34.992  23.353  1.00  0.00     0.071 C
ENDROOT
BRANCH   3  13
HETATM   13  O1  UNL     1      35.845  35.212  24.074  1.00  0.00    -0.377 OA
ATOM     14  H1  UNL     1      35.574  36.119  24.145  1.00  0.00     0.211 HD
ENDBRANCH   3  13
BRANCH   9  15
HETATM   15  C7  UNL     1      30.355  29.998  22.309  1.00  0.00     0.186 C
BRANCH  15  16
HETATM   16  C8  UNL     1      30.064  29.514  23.671  1.00  0.00     0.263 C
BRANCH  16  17
HETATM   17  N3  UNL     1      31.181  28.743  24.238  1.00  0.00    -0.077 N
ATOM     18  H33 UNL     1      30.913  27.773  24.403  1.00  0.00     0.274 HD
ATOM     19  H32 UNL     1      31.914  28.593  23.544  1.00  0.00     0.274 HD
ATOM     20  H31 UNL     1      31.555  29.171  25.085  1.00  0.00     0.274 HD
ENDBRANCH  16  17
ENDBRANCH  15  16
BRANCH  15  21
HETATM   21  C9  UNL     1      30.529  28.967  21.277  1.00  0.00     0.138 C
BRANCH  21  22
HETATM   22  O3  UNL     1      29.852  27.871  21.544  1.00  0.00    -0.348 OA
ATOM     23  H3  UNL     1      29.911  27.624  22.459  1.00  0.00     0.219 HD
ENDBRANCH  21  22
BRANCH  21  24
HETATM   24  N4  UNL     1      31.247  28.914  20.100  1.00  0.00    -0.359 N
HETATM   25  C10 UNL     1      31.655  30.063  19.341  1.00  0.00     0.145 C
HETATM   26  C11 UNL     1      32.176  29.594  17.989  1.00  0.00     0.163 C
HETATM   27  N5  UNL     1      33.271  28.692  18.193  1.00  0.00    -0.197 N
HETATM   28  C12 UNL     1      34.417  28.727  17.363  1.00  0.00     0.678 C
HETATM   29  C24 UNL     1      33.121  27.727  19.281  1.00  0.00     0.217 C
HETATM   30  N6  UNL     1      35.250  29.659  17.427  1.00  0.00    -0.222 N
HETATM   31  N7  UNL     1      34.668  27.665  16.405  1.00  0.00    -0.189 N
ATOM     32  H6  UNL     1      36.021  29.547  16.770  1.00  0.00     0.178 HD
ATOM     33  H7  UNL     1      34.005  26.893  16.336  1.00  0.00     0.184 HD
HETATM   34 CL3  UNL     1      33.897  28.263  20.780  1.00  0.00    -0.100 Cl
HETATM   35  C25 UNL     1      31.624  27.565  19.601  1.00  0.00     0.166 C
BRANCH  30  36
HETATM   36  C13 UNL     1      35.359  30.829  18.204  1.00  0.00     0.095 C
HETATM   37  C14 UNL     1      35.986  31.997  17.451  1.00  0.00     0.032 C
BRANCH  36  38
HETATM   38  C15 UNL     1      36.222  30.515  19.448  1.00  0.00     0.021 C
HETATM   39  C16 UNL     1      36.975  31.743  19.910  1.00  0.00     0.007 C
ENDBRANCH  36  38
ENDBRANCH  30  36
BRANCH  31  40
HETATM   40  C17 UNL     1      35.796  27.670  15.573  1.00  0.00     0.091 A
HETATM   41  C18 UNL     1      35.760  28.213  14.303  1.00  0.00     0.064 A
HETATM   42 CL1  UNL     1      34.250  28.903  13.731  1.00  0.00    -0.082 Cl
HETATM   43  C19 UNL     1      36.892  28.212  13.499  1.00  0.00     0.050 A
HETATM   44  C20 UNL     1      38.091  27.675  13.929  1.00  0.00     0.037 A
HETATM   45 CL2  UNL     1      39.523  27.685  12.893  1.00  0.00    -0.084 Cl
HETATM   46  C21 UNL     1      38.128  27.133  15.195  1.00  0.00     0.049 A
HETATM   47  C22 UNL     1      37.010  27.129  15.999  1.00  0.00     0.075 A
HETATM   48  C23 UNL     1      37.043  26.562  17.329  1.00  0.00     0.102 C
HETATM   49  N8  UNL     1      37.052  26.109  18.385  1.00  0.00    -0.191 NA
ENDBRANCH  31  40
ENDBRANCH  21  24
ENDBRANCH  15  21
ENDBRANCH   9  15
TORSDOF 10
ENDMDL