MODEL 3
REMARK VINA RESULT: -8.905747033      3.111      4.723
REMARK  7 active torsions:
REMARK  status: ('A' for Active; 'I' for Inactive)
REMARK    1  A    between atoms: C5_5  and  N1_6
REMARK    2  A    between atoms: N1_6  and  C6_8
REMARK    3  A    between atoms: C6_8  and  C9_11
REMARK    4  A    between atoms: C20_29  and  C21_30
REMARK       I    between atoms: C21_30  and  N3_32
REMARK    5  A    between atoms: N3_32  and  C22_34
REMARK    6  A    between atoms: C22_34  and  C23_35
REMARK       I    between atoms: C23_35  and  N4_37
REMARK    7  A    between atoms: N4_37  and  C24_39
ROOT
HETATM    1  C24 UNL     1      32.527  33.864  28.077  1.00  0.00     0.122 A
HETATM    2  C25 UNL     1      31.791  34.897  28.795  1.00  0.00     0.091 C
HETATM    3  N5  UNL     1      31.228  35.718  29.363  1.00  0.00    -0.195 NA
HETATM    4  C26 UNL     1      32.733  32.589  28.873  1.00  0.00     0.050 A
HETATM    5  C27 UNL     1      31.862  32.583  27.663  1.00  0.00     0.050 A
ENDROOT
BRANCH   1   6
HETATM    6  N4  UNL     1      33.616  34.361  27.277  1.00  0.00    -0.338 N
HETATM    7  C23 UNL     1      33.426  35.093  26.084  1.00  0.00     0.236 C
HETATM    8  O4  UNL     1      32.208  35.285  25.756  1.00  0.00    -0.272 OA
ATOM      9  H4  UNL     1      34.570  34.175  27.587  1.00  0.00     0.164 HD
BRANCH   7  10
HETATM   10  C22 UNL     1      34.520  35.605  25.274  1.00  0.00     0.225 C
BRANCH  10  11
HETATM   11  N3  UNL     1      35.151  34.622  24.419  1.00  0.00    -0.352 N
HETATM   12  C21 UNL     1      35.300  34.895  23.064  1.00  0.00     0.231 C
HETATM   13  O3  UNL     1      34.846  36.044  22.674  1.00  0.00    -0.273 OA
ATOM     14  H3  UNL     1      35.483  33.738  24.807  1.00  0.00     0.162 HD
BRANCH  12  15
HETATM   15  C20 UNL     1      35.897  34.075  21.998  1.00  0.00     0.174 C
HETATM   16  C19 UNL     1      34.927  32.976  21.732  1.00  0.00     0.232 C
HETATM   17  N2  UNL     1      34.966  31.877  20.801  1.00  0.00    -0.340 N
HETATM   18  O2  UNL     1      33.873  32.970  22.415  1.00  0.00    -0.273 OA
HETATM   19  C5  UNL     1      35.742  31.785  19.607  1.00  0.00     0.180 C
ATOM     20  H2  UNL     1      34.374  31.076  21.020  1.00  0.00     0.164 HD
HETATM   21  C4  UNL     1      37.008  32.668  19.826  1.00  0.00     0.052 C
HETATM   22  C3  UNL     1      36.686  34.104  19.624  1.00  0.00    -0.001 A
HETATM   23  C2  UNL     1      37.548  35.168  20.267  1.00  0.00    -0.008 A
HETATM   24  C28 UNL     1      36.189  34.868  20.778  1.00  0.00     0.016 A
HETATM   25  C1  UNL     1      38.804  34.691  20.899  1.00  0.00     0.011 C
BRANCH  19  26
HETATM   26  N1  UNL     1      36.189  30.540  19.158  1.00  0.00    -0.391 N
ATOM     27  H1  UNL     1      37.042  30.161  19.571  1.00  0.00     0.156 HD
BRANCH  26  28
HETATM   28  C6  UNL     1      35.538  29.776  18.175  1.00  0.00     0.048 C
HETATM   29  C7  UNL     1      34.452  30.606  17.521  1.00  0.00     0.040 C
HETATM   30  C8  UNL     1      36.481  29.293  17.114  1.00  0.00     0.040 C
BRANCH  28  31
HETATM   31  C9  UNL     1      34.804  28.652  18.858  1.00  0.00     0.168 C
HETATM   32  O1  UNL     1      34.097  29.064  19.985  1.00  0.00    -0.340 OA
HETATM   33  C10 UNL     1      33.934  27.976  20.816  1.00  0.00     0.101 A
HETATM   34  C11 UNL     1      33.123  27.808  21.949  1.00  0.00     0.089 A
HETATM   35  C15 UNL     1      34.733  26.933  20.395  1.00  0.00     0.009 A
HETATM   36 CL1  UNL     1      32.085  29.115  22.512  1.00  0.00    -0.080 Cl
HETATM   37  C12 UNL     1      33.133  26.612  22.625  1.00  0.00     0.060 A
HETATM   38 CL2  UNL     1      32.132  26.352  24.054  1.00  0.00    -0.082 Cl
HETATM   39  C13 UNL     1      33.932  25.569  22.209  1.00  0.00     0.050 A
HETATM   40  C14 UNL     1      34.725  25.745  21.092  1.00  0.00     0.045 A
HETATM   41 CL3  UNL     1      35.720  24.381  20.616  1.00  0.00    -0.084 Cl
HETATM   42  C16 UNL     1      35.446  27.394  19.172  1.00  0.00     0.013 C
HETATM   43  C17 UNL     1      36.905  27.403  19.521  1.00  0.00     0.023 C
HETATM   44  C18 UNL     1      35.149  26.294  18.138  1.00  0.00     0.023 C
ENDBRANCH  28  31
ENDBRANCH  26  28
ENDBRANCH  19  26
ENDBRANCH  12  15
ENDBRANCH  10  11
ENDBRANCH   7  10
ENDBRANCH   1   6
TORSDOF 7
ENDMDL