MODEL 2
REMARK VINA RESULT: -8.034144494      3.561      4.896
REMARK  7 active torsions:
REMARK  status: ('A' for Active; 'I' for Inactive)
REMARK    1  A    between atoms: O1_2  and  C2_3
REMARK    2  A    between atoms: C4_5  and  C5_6
REMARK       I    between atoms: C5_6  and  N1_8
REMARK    3  A    between atoms: N1_8  and  C6_10
REMARK    4  A    between atoms: C6_10  and  C7_11
REMARK       I    between atoms: C7_11  and  N2_13
REMARK    5  A    between atoms: N2_13  and  S1_15
REMARK    6  A    between atoms: S1_15  and  C8_18
REMARK    7  A    between atoms: C14_25  and  O6_26
ROOT
HETATM    1  C5  UNL     1      35.446  29.161  20.073  1.00  0.00     0.227 C
HETATM    2  O2  UNL     1      36.510  28.706  19.598  1.00  0.00    -0.273 OA
HETATM    3  N1  UNL     1      34.514  28.251  20.601  1.00  0.00    -0.340 N
ATOM      4  H1  UNL     1      33.650  28.622  20.999  1.00  0.00     0.163 HD
ENDROOT
BRANCH   1   5
HETATM    5  C4  UNL     1      35.171  30.659  20.075  1.00  0.00     0.107 C
HETATM    6  C3  UNL     1      34.787  31.129  21.388  1.00  0.00     0.026 C
HETATM    7  C2  UNL     1      34.459  32.256  21.935  1.00  0.00     0.082 C
HETATM    8  C24 UNL     1      34.334  33.607  21.419  1.00  0.00     0.040 C
HETATM    9  C23 UNL     1      33.660  34.086  20.421  1.00  0.00    -0.004 C
HETATM   10 BR1  UNL     1      35.329  34.959  22.454  1.00  0.00    -0.048 Br
HETATM   11  C22 UNL     1      32.772  33.432  19.451  1.00  0.00     0.038 C
HETATM   12  C20 UNL     1      32.980  33.920  18.042  1.00  0.00     0.030 C
HETATM   13  C19 UNL     1      34.129  33.416  17.324  1.00  0.00    -0.016 C
HETATM   14  C21 UNL     1      31.719  33.481  17.278  1.00  0.00     0.016 C
HETATM   15  C18 UNL     1      35.533  33.307  17.874  1.00  0.00     0.052 C
HETATM   16  N3  UNL     1      34.041  33.006  16.090  1.00  0.00    -0.405 N
HETATM   17  C17 UNL     1      35.853  31.867  17.991  1.00  0.00     0.011 C
HETATM   18  C15 UNL     1      36.287  31.357  19.338  1.00  0.00    -0.002 C
HETATM   19  C16 UNL     1      37.142  32.261  20.145  1.00  0.00     0.011 C
ATOM     20  H32 UNL     1      34.852  32.651  15.584  1.00  0.00     0.155 HD
ATOM     21  H31 UNL     1      33.094  33.079  15.719  1.00  0.00     0.155 HD
BRANCH   7  22
HETATM   22  O1  UNL     1      34.142  32.213  23.357  1.00  0.00    -0.355 OA
HETATM   23  C1  UNL     1      33.960  30.927  23.929  1.00  0.00     0.210 C
ENDBRANCH   7  22
ENDBRANCH   1   5
BRANCH   3  24
HETATM   24  C6  UNL     1      34.712  26.809  20.613  1.00  0.00     0.141 C
HETATM   25  C9  UNL     1      35.898  26.423  19.773  1.00  0.00     0.052 C
HETATM   26  C10 UNL     1      35.391  25.693  18.571  1.00  0.00    -0.043 C
HETATM   27  C11 UNL     1      35.242  26.604  17.369  1.00  0.00     0.015 C
HETATM   28  C12 UNL     1      36.351  24.579  18.151  1.00  0.00     0.015 C
HETATM   29  C13 UNL     1      34.066  25.144  19.007  1.00  0.00     0.043 C
HETATM   30  C14 UNL     1      33.546  26.132  20.015  1.00  0.00     0.156 C
BRANCH  24  31
HETATM   31  C7  UNL     1      34.880  26.377  22.025  1.00  0.00     0.262 C
HETATM   32  O3  UNL     1      35.432  25.278  22.266  1.00  0.00    -0.270 OA
HETATM   33  N2  UNL     1      34.452  27.134  23.141  1.00  0.00    -0.251 N
ATOM     34  H2  UNL     1      34.002  28.036  22.986  1.00  0.00     0.181 HD
BRANCH  33  35
HETATM   35  S1  UNL     1      34.668  26.572  24.757  1.00  0.00     0.245 S
HETATM   36  O4  UNL     1      34.215  27.623  25.732  1.00  0.00    -0.204 OA
HETATM   37  O5  UNL     1      33.829  25.334  24.968  1.00  0.00    -0.204 OA
BRANCH  35  38
HETATM   38  C8  UNL     1      36.380  26.219  25.021  1.00  0.00     0.277 C
HETATM   39 CL1  UNL     1      36.968  26.782  26.584  1.00  0.00    -0.113 Cl
ENDBRANCH  35  38
ENDBRANCH  33  35
ENDBRANCH  24  31
BRANCH  30  40
HETATM   40  O6  UNL     1      32.800  25.421  20.967  1.00  0.00    -0.393 OA
ATOM     41  H6  UNL     1      33.347  24.860  21.505  1.00  0.00     0.210 HD
ENDBRANCH  30  40
ENDBRANCH   3  24
TORSDOF 7
ENDMDL