MODEL 4
REMARK VINA RESULT: -8.362925319      4.397      6.479
REMARK  7 active torsions:
REMARK  status: ('A' for Active; 'I' for Inactive)
REMARK    1  A    between atoms: C2_2  and  N1_4
REMARK       I    between atoms: N1_4  and  C4_6
REMARK       I    between atoms: C4_6  and  N2_8
REMARK    2  A    between atoms: N2_8  and  C5_10
REMARK    3  A    between atoms: C7_14  and  C8_15
REMARK    4  A    between atoms: C9_16  and  N4_17
REMARK    5  A    between atoms: N4_17  and  S1_19
REMARK    6  A    between atoms: S1_19  and  C10_22
REMARK    7  A    between atoms: C19_39  and  C20_40
REMARK       I    between atoms: C20_40  and  N7_42
ROOT
HETATM    1  C5  UNL     1      35.196  28.088  16.360  1.00  0.00     0.125 A
HETATM    2  N3  UNL     1      34.813  27.540  17.525  1.00  0.00    -0.339 N
ATOM      3  H3  UNL     1      34.125  28.033  18.094  1.00  0.00     0.167 HD
HETATM    4  C6  UNL     1      35.307  26.352  17.979  1.00  0.00     0.070 A
HETATM    5  C7  UNL     1      35.076  25.606  19.115  1.00  0.00     0.012 A
HETATM    6  C16 UNL     1      35.865  24.475  19.049  1.00  0.00     0.100 A
HETATM    7  N6  UNL     1      36.568  24.510  17.909  1.00  0.00    -0.363 N
ATOM      8  H6  UNL     1      37.234  23.803  17.597  1.00  0.00     0.165 HD
HETATM    9  C17 UNL     1      36.248  25.633  17.245  1.00  0.00     0.060 A
HETATM   10  C18 UNL     1      36.649  26.180  16.051  1.00  0.00     0.052 A
HETATM   11  C19 UNL     1      36.128  27.398  15.611  1.00  0.00     0.078 A
ENDROOT
BRANCH   5  12
HETATM   12  C8  UNL     1      34.136  25.967  20.200  1.00  0.00     0.156 C
HETATM   13  C9  UNL     1      33.919  24.851  21.200  1.00  0.00     0.212 C
HETATM   14  C14 UNL     1      32.888  24.379  20.222  1.00  0.00     0.245 C
HETATM   15  O4  UNL     1      32.349  23.315  19.831  1.00  0.00    -0.271 OA
HETATM   16  N5  UNL     1      32.735  25.767  19.864  1.00  0.00    -0.343 N
HETATM   17  C15 UNL     1      31.608  26.529  19.384  1.00  0.00     0.153 C
BRANCH  13  18
HETATM   18  N4  UNL     1      33.299  25.279  22.440  1.00  0.00    -0.299 N
ATOM     19  H4  UNL     1      32.328  25.119  22.707  1.00  0.00     0.173 HD
BRANCH  18  20
HETATM   20  S1  UNL     1      34.464  26.095  23.374  1.00  0.00     0.268 S
HETATM   21  O2  UNL     1      35.849  25.608  23.055  1.00  0.00    -0.200 OA
HETATM   22  O3  UNL     1      34.348  27.587  23.198  1.00  0.00    -0.200 OA
BRANCH  20  23
HETATM   23  C10 UNL     1      34.215  25.818  25.105  1.00  0.00     0.145 A
HETATM   24  S2  UNL     1      32.980  25.006  25.935  1.00  0.00    -0.061 SA
HETATM   25  C11 UNL     1      33.528  25.224  27.530  1.00  0.00     0.099 A
HETATM   26 CL1  UNL     1      32.793  24.667  29.051  1.00  0.00    -0.074 Cl
HETATM   27  C12 UNL     1      34.685  25.938  27.372  1.00  0.00     0.086 A
HETATM   28 CL2  UNL     1      35.630  26.405  28.822  1.00  0.00    -0.080 Cl
HETATM   29  C13 UNL     1      35.046  26.250  26.102  1.00  0.00     0.088 A
HETATM   30 CL3  UNL     1      36.538  27.183  25.749  1.00  0.00    -0.080 Cl
ENDBRANCH  20  23
ENDBRANCH  18  20
ENDBRANCH  13  18
ENDBRANCH   5  12
BRANCH   1  31
HETATM   31  N2  UNL     1      34.764  29.201  15.905  1.00  0.00    -0.294 N
HETATM   32  C4  UNL     1      34.566  30.363  16.687  1.00  0.00     0.322 C
HETATM   33  N1  UNL     1      35.597  31.018  17.393  1.00  0.00    -0.339 N
HETATM   34  O1  UNL     1      33.404  30.836  16.754  1.00  0.00    -0.247 OA
ATOM     35  H1  UNL     1      36.544  30.642  17.347  1.00  0.00     0.164 HD
ATOM     36  H2  UNL     1      34.546  29.255  14.910  1.00  0.00     0.172 HD
BRANCH  33  37
HETATM   37  C2  UNL     1      35.354  32.197  18.173  1.00  0.00     0.078 C
HETATM   38  C1  UNL     1      35.593  33.409  17.266  1.00  0.00     0.032 C
HETATM   39  C3  UNL     1      36.362  32.331  19.305  1.00  0.00     0.032 C
ENDBRANCH  33  37
ENDBRANCH   1  31
BRANCH  11  40
HETATM   40  C20 UNL     1      36.586  27.930  14.330  1.00  0.00     0.256 C
HETATM   41  O5  UNL     1      35.769  28.454  13.530  1.00  0.00    -0.267 OA
HETATM   42  N7  UNL     1      37.948  27.874  13.946  1.00  0.00    -0.357 N
HETATM   43  C21 UNL     1      38.405  28.401  12.672  1.00  0.00     0.152 C
HETATM   44  C22 UNL     1      38.945  27.280  14.825  1.00  0.00     0.152 C
ENDBRANCH  11  40
TORSDOF 7
ENDMDL