MODEL 4
REMARK VINA RESULT: -6.973319845      0.839      2.061
REMARK  3 active torsions:
REMARK  status: ('A' for Active; 'I' for Inactive)
REMARK    1  A    between atoms: N2_12  and  N3_14
REMARK    2  A    between atoms: N3_14  and  C11_16
REMARK    3  A    between atoms: C11_16  and  C12_20
ROOT
HETATM    1  C12 UNL     1      -5.455   2.125  16.076  1.00  0.00     0.267 C
HETATM    2  C13 UNL     1      -5.977   3.243  15.269  1.00  0.00     0.086 C
HETATM    3  N5  UNL     1      -6.394   4.131  14.652  1.00  0.00    -0.195 NA
HETATM    4  C14 UNL     1      -6.624   1.432  16.670  1.00  0.00     0.086 C
HETATM    5  N6  UNL     1      -7.527   0.902  17.148  1.00  0.00    -0.195 NA
ENDROOT
BRANCH   1   6
HETATM    6  C11 UNL     1      -4.676   1.167  15.251  1.00  0.00     0.121 C
HETATM    7  N4  UNL     1      -4.141   0.153  15.838  1.00  0.00    -0.386 N
ATOM      8  H42 UNL     1      -3.606  -0.505  15.271  1.00  0.00     0.157 HD
ATOM      9  H41 UNL     1      -4.249   0.008  16.842  1.00  0.00     0.157 HD
BRANCH   6  10
HETATM   10  N3  UNL     1      -4.527   1.366  13.870  1.00  0.00    -0.287 N
ATOM     11  H3  UNL     1      -5.006   0.720  13.243  1.00  0.00     0.188 HD
BRANCH  10  12
HETATM   12  N2  UNL     1      -3.769   2.388  13.295  1.00  0.00    -0.305 N
HETATM   13  C10 UNL     1      -3.067   2.149  12.218  1.00  0.00     0.042 C
HETATM   14  C2  UNL     1      -3.003   0.849  11.531  1.00  0.00     0.059 C
HETATM   15  C9  UNL     1      -2.210   3.098  11.476  1.00  0.00     0.270 C
HETATM   16  C1  UNL     1      -4.317   0.505  10.822  1.00  0.00     0.018 C
HETATM   17  C3  UNL     1      -1.910   1.009  10.532  1.00  0.00     0.283 C
HETATM   18  N1  UNL     1      -1.756   2.433  10.309  1.00  0.00     0.099 N
HETATM   19  C4  UNL     1      -0.367   2.777  10.023  1.00  0.00     0.273 C
HETATM   20  C5  UNL     1      -0.409   4.092   9.234  1.00  0.00     0.030 C
HETATM   21  C6  UNL     1      -0.889   5.147  10.210  1.00  0.00     0.002 C
HETATM   22  C7  UNL     1      -2.379   5.273  10.239  1.00  0.00     0.002 C
HETATM   23  C8  UNL     1      -3.044   4.322  11.197  1.00  0.00     0.042 C
ATOM     24  H2  UNL     1      -3.763   3.318  13.714  1.00  0.00     0.186 HD
ENDBRANCH  10  12
ENDBRANCH   6  10
ENDBRANCH   1   6
TORSDOF 3
ENDMDL