MODEL 3
REMARK VINA RESULT: -6.156702161      1.808      3.172
REMARK  4 active torsions:
REMARK  status: ('A' for Active; 'I' for Inactive)
REMARK    1  A    between atoms: O1_2  and  C2_3
REMARK    2  A    between atoms: C2_3  and  C4_5
REMARK    3  A    between atoms: C2_3  and  C13_19
REMARK    4  A    between atoms: C13_19  and  O4_22
ROOT
HETATM    1  C4  UNL     1      -3.021   3.604  12.718  1.00  0.00     0.170 C
HETATM    2  O2  UNL     1      -1.936   3.167  12.013  1.00  0.00    -0.324 OA
HETATM    3  C5  UNL     1      -2.159   2.292  11.008  1.00  0.00     0.335 C
HETATM    4  C6  UNL     1      -0.925   2.262  10.102  1.00  0.00     0.114 C
HETATM    5  N1  UNL     1      -2.428   0.932  11.423  1.00  0.00    -0.007 N
ATOM      6  H11 UNL     1      -1.878   0.624  12.224  1.00  0.00     0.284 HD
ATOM      7  H12 UNL     1      -2.087   0.223  10.773  1.00  0.00     0.284 HD
HETATM    8  C7  UNL     1      -3.867   0.900  11.639  1.00  0.00     0.154 C
HETATM    9  C8  UNL     1      -4.530  -0.243  10.937  1.00  0.00     0.049 C
HETATM   10  C9  UNL     1      -4.210   0.942  13.102  1.00  0.00     0.042 C
HETATM   11  C10 UNL     1      -5.033   2.218  13.274  1.00  0.00     0.012 C
HETATM   12  C11 UNL     1      -4.343   3.118  12.237  1.00  0.00     0.050 C
HETATM   13  C12 UNL     1      -4.298   2.222  11.049  1.00  0.00     0.169 C
HETATM   14  O3  UNL     1      -3.259   2.645  10.223  1.00  0.00    -0.325 OA
ENDROOT
BRANCH   1  15
HETATM   15  C2  UNL     1      -2.973   5.146  12.717  1.00  0.00     0.113 C
HETATM   16  C3  UNL     1      -4.138   5.668  13.586  1.00  0.00     0.052 C
BRANCH  15  17
HETATM   17  O1  UNL     1      -3.098   5.523  11.430  1.00  0.00    -0.380 OA
HETATM   18  C1  UNL     1      -3.965   6.468  11.036  1.00  0.00     0.202 C
ENDBRANCH  15  17
BRANCH  15  19
HETATM   19  C13 UNL     1      -1.744   5.670  13.362  1.00  0.00     0.084 C
HETATM   20  C14 UNL     1      -1.994   6.880  14.238  1.00  0.00     0.049 C
HETATM   21  C15 UNL     1      -0.613   5.929  12.383  1.00  0.00     0.049 C
BRANCH  19  22
HETATM   22  O4  UNL     1      -1.243   4.679  14.205  1.00  0.00    -0.387 OA
ATOM     23  H4  UNL     1      -0.477   5.027  14.645  1.00  0.00     0.210 HD
ENDBRANCH  19  22
ENDBRANCH  15  19
ENDBRANCH   1  15
TORSDOF 4
ENDMDL