MODEL 2
REMARK VINA RESULT: -5.858759055      1.881      3.492
REMARK  4 active torsions:
REMARK  status: ('A' for Active; 'I' for Inactive)
REMARK    1  A    between atoms: C5_8  and  O1_9
REMARK    2  A    between atoms: O1_9  and  C6_10
REMARK    3  A    between atoms: C6_10  and  N2_12
REMARK    4  A    between atoms: N2_12  and  C7_14
ROOT
HETATM    1  O1  UNL     1      -5.117   2.974  14.394  1.00  0.00    -0.294 OA
ENDROOT
BRANCH   1   2
HETATM    2  C5  UNL     1      -5.114   2.380  15.697  1.00  0.00     0.294 C
HETATM    3  C4  UNL     1      -4.850   0.936  15.571  1.00  0.00     0.293 C
HETATM    4  N1  UNL     1      -5.075   0.304  16.874  1.00  0.00    -0.068 N
HETATM    5  C3  UNL     1      -6.502   0.488  17.124  1.00  0.00     0.264 C
ATOM      6  H12 UNL     1      -4.473   0.656  17.618  1.00  0.00     0.277 HD
ATOM      7  H11 UNL     1      -4.764  -0.666  16.927  1.00  0.00     0.277 HD
HETATM    8  C2  UNL     1      -6.780   1.945  17.273  1.00  0.00     0.146 C
HETATM    9  C1  UNL     1      -6.335   2.411  18.646  1.00  0.00     0.041 C
HETATM   10  O2  UNL     1      -6.245   2.763  16.334  1.00  0.00    -0.353 OA
ENDBRANCH   1   2
BRANCH   1  11
HETATM   11  C6  UNL     1      -3.898   3.275  13.801  1.00  0.00     0.212 C
HETATM   12  S1  UNL     1      -3.128   4.673  14.125  1.00  0.00    -0.033 SA
BRANCH  11  13
HETATM   13  N2  UNL     1      -3.280   2.377  12.891  1.00  0.00    -0.357 N
ATOM     14  H2  UNL     1      -2.474   1.836  13.205  1.00  0.00     0.162 HD
BRANCH  13  15
HETATM   15  C7  UNL     1      -3.753   2.199  11.532  1.00  0.00     0.085 C
HETATM   16  C8  UNL     1      -2.601   1.937  10.626  1.00  0.00     0.035 C
HETATM   17  C9  UNL     1      -1.809   0.707  11.005  1.00  0.00     0.076 C
HETATM   18  S2  UNL     1      -3.004  -0.688  10.983  1.00  0.00    -0.169 SA
HETATM   19  C10 UNL     1      -4.596   0.074  10.487  1.00  0.00     0.076 C
HETATM   20  C11 UNL     1      -4.860   1.197  11.434  1.00  0.00     0.035 C
ENDBRANCH  13  15
ENDBRANCH  11  13
ENDBRANCH   1  11
TORSDOF 4
ENDMDL