MODEL 2
REMARK VINA RESULT: -7.426348149      2.443      4.071
REMARK  4 active torsions:
REMARK  status: ('A' for Active; 'I' for Inactive)
REMARK    1  A    between atoms: C2_2  and  O1_3
REMARK    2  A    between atoms: C2_2  and  C3_5
REMARK    3  A    between atoms: C3_5  and  O2_6
REMARK    4  A    between atoms: C3_5  and  C4_8
ROOT
HETATM    1  C4  UNL     1      -3.836   1.441  12.375  1.00  0.00     0.264 C
HETATM    2  O3  UNL     1      -5.212   1.455  12.616  1.00  0.00    -0.224 OA
HETATM    3  O4  UNL     1      -5.668   2.641  12.387  1.00  0.00    -0.220 OA
HETATM    4  C5  UNL     1      -4.732   3.564  12.856  1.00  0.00     0.167 C
HETATM    5  C6  UNL     1      -4.731   4.798  11.959  1.00  0.00     0.059 C
HETATM    6  C7  UNL     1      -4.714   6.065  12.785  1.00  0.00    -0.041 C
HETATM    7  C8  UNL     1      -4.457   7.220  11.849  1.00  0.00     0.015 C
HETATM    8  C9  UNL     1      -6.065   6.166  13.461  1.00  0.00     0.010 C
HETATM    9  C10 UNL     1      -6.333   4.841  14.154  1.00  0.00     0.013 C
HETATM   10  C11 UNL     1      -5.042   4.019  14.241  1.00  0.00    -0.002 C
HETATM   11  C12 UNL     1      -5.249   2.909  15.226  1.00  0.00     0.019 C
HETATM   12  C13 UNL     1      -3.911   4.877  14.761  1.00  0.00     0.013 C
HETATM   13  C14 UNL     1      -3.668   6.039  13.861  1.00  0.00     0.010 C
HETATM   14  C15 UNL     1      -3.466   2.842  12.694  1.00  0.00     0.199 C
HETATM   15  O5  UNL     1      -2.326   3.230  12.784  1.00  0.00    -0.291 OA
ENDROOT
BRANCH   1  16
HETATM   16  C3  UNL     1      -3.654   1.140  10.899  1.00  0.00     0.186 C
BRANCH  16  17
HETATM   17  C2  UNL     1      -3.107  -0.277  10.735  1.00  0.00     0.145 C
HETATM   18  C1  UNL     1      -3.909  -1.200  11.631  1.00  0.00     0.042 C
BRANCH  17  19
HETATM   19  O1  UNL     1      -3.171  -0.686   9.407  1.00  0.00    -0.393 OA
ATOM     20  H1  UNL     1      -3.716  -1.458   9.312  1.00  0.00     0.210 HD
ENDBRANCH  17  19
ENDBRANCH  16  17
BRANCH  16  21
HETATM   21  O2  UNL     1      -4.879   1.156  10.236  1.00  0.00    -0.390 OA
ATOM     22  H2  UNL     1      -5.044   2.065  10.017  1.00  0.00     0.210 HD
ENDBRANCH  16  21
ENDBRANCH   1  16
TORSDOF 4
ENDMDL