MODEL 1
REMARK VINA RESULT: -7.736829386      0.000      0.000
REMARK  4 active torsions:
REMARK  status: ('A' for Active; 'I' for Inactive)
REMARK    1  A    between atoms: C2_2  and  C4_4
REMARK    2  A    between atoms: C4_4  and  C5_5
REMARK    3  A    between atoms: C13_13  and  O1_14
REMARK    4  A    between atoms: N1_20  and  O4_21
ROOT
HETATM    1  C5  UNL     1      -5.917   5.907  13.310  1.00  0.00     0.043 C
HETATM    2  C6  UNL     1      -6.521   4.896  13.887  1.00  0.00     0.006 C
HETATM    3  C7  UNL     1      -6.097   3.717  14.646  1.00  0.00     0.039 C
HETATM    4  C8  UNL     1      -4.657   3.366  14.558  1.00  0.00     0.044 C
HETATM    5  C9  UNL     1      -4.483   1.889  14.786  1.00  0.00     0.011 C
HETATM    6  C10 UNL     1      -4.170   1.086  13.580  1.00  0.00     0.033 C
HETATM    7  C11 UNL     1      -3.704   1.872  12.397  1.00  0.00     0.087 C
HETATM    8  C12 UNL     1      -2.953   1.054  11.397  1.00  0.00     0.040 C
HETATM    9  C13 UNL     1      -4.919   2.549  11.785  1.00  0.00     0.284 C
HETATM   10  O2  UNL     1      -4.790   3.851  12.196  1.00  0.00    -0.329 OA
HETATM   11  C14 UNL     1      -3.968   3.865  13.322  1.00  0.00     0.168 C
HETATM   12  C15 UNL     1      -3.461   5.273  13.519  1.00  0.00     0.232 C
HETATM   13  O3  UNL     1      -4.563   6.138  13.272  1.00  0.00    -0.351 OA
HETATM   14  N1  UNL     1      -2.894   2.978  12.930  1.00  0.00    -0.148 NA
ENDROOT
BRANCH   1  15
HETATM   15  C4  UNL     1      -6.817   6.902  12.629  1.00  0.00     0.068 C
BRANCH  15  16
HETATM   16  C2  UNL     1      -6.075   7.688  11.582  1.00  0.00    -0.017 C
HETATM   17  C1  UNL     1      -6.652   9.054  11.359  1.00  0.00     0.010 C
HETATM   18  C3  UNL     1      -5.995   6.904  10.302  1.00  0.00     0.010 C
ENDBRANCH  15  16
ENDBRANCH   1  15
BRANCH  14  19
HETATM   19  O4  UNL     1      -2.125   3.522  11.978  1.00  0.00    -0.309 OA
ATOM     20  H4  UNL     1      -2.289   4.454  11.893  1.00  0.00     0.237 HD
ENDBRANCH  14  19
BRANCH   9  21
HETATM   21  O1  UNL     1      -4.925   2.401  10.402  1.00  0.00    -0.369 OA
ATOM     22  H1  UNL     1      -5.081   3.234   9.973  1.00  0.00     0.212 HD
ENDBRANCH   9  21
TORSDOF 4
ENDMDL