MODEL 3
REMARK VINA RESULT: -6.629377593      3.201      4.975
REMARK  4 active torsions:
REMARK  status: ('A' for Active; 'I' for Inactive)
REMARK    1  A    between atoms: C2_2  and  O1_3
REMARK    2  A    between atoms: O1_3  and  C3_4
REMARK    3  A    between atoms: C3_4  and  C4_6
REMARK    4  A    between atoms: C4_6  and  O3_7
ROOT
HETATM    1  C4  UNL     1      -4.008   1.127  11.399  1.00  0.00     0.170 C
HETATM    2  C5  UNL     1      -5.073   2.039  11.937  1.00  0.00     0.216 C
HETATM    3  O4  UNL     1      -4.562   2.986  12.798  1.00  0.00    -0.387 OA
HETATM    4  C6  UNL     1      -3.726   3.821  12.018  1.00  0.00     0.175 C
HETATM    5  C7  UNL     1      -2.453   3.063  11.799  1.00  0.00     0.045 C
HETATM    6  C8  UNL     1      -2.620   1.602  11.606  1.00  0.00     0.041 C
HETATM    7  C9  UNL     1      -1.807   1.288  10.356  1.00  0.00     0.011 C
HETATM    8  C10 UNL     1      -0.788   2.430  10.273  1.00  0.00     0.032 C
HETATM    9  C11 UNL     1      -1.620   3.605  10.671  1.00  0.00     0.035 C
HETATM   10  C12 UNL     1      -0.808   4.766  11.199  1.00  0.00     0.031 C
HETATM   11  C13 UNL     1      -0.024   5.469  10.158  1.00  0.00     0.007 C
HETATM   12  C14 UNL     1      -0.388   5.164   8.750  1.00  0.00     0.044 C
HETATM   13  C15 UNL     1      -1.761   4.666   8.519  1.00  0.00     0.056 C
HETATM   14  N1  UNL     1      -2.448   4.113   9.617  1.00  0.00    -0.393 N
ATOM     15  H1  UNL     1      -3.466   4.077   9.659  1.00  0.00     0.159 HD
ENDROOT
BRANCH   1  16
HETATM   16  C3  UNL     1      -4.190  -0.198  12.069  1.00  0.00     0.296 C
HETATM   17  O2  UNL     1      -4.400  -0.220  13.309  1.00  0.00    -0.262 OA
BRANCH  16  18
HETATM   18  O1  UNL     1      -4.139  -1.402  11.388  1.00  0.00    -0.319 OA
BRANCH  18  19
HETATM   19  C2  UNL     1      -2.896  -2.110  11.272  1.00  0.00     0.174 C
HETATM   20  C1  UNL     1      -3.125  -3.597  11.208  1.00  0.00     0.034 C
ENDBRANCH  18  19
ENDBRANCH  16  18
ENDBRANCH   1  16
BRANCH   1  21
HETATM   21  O3  UNL     1      -4.304   0.917  10.040  1.00  0.00    -0.377 OA
ATOM     22  H3  UNL     1      -5.121   0.431  10.021  1.00  0.00     0.211 HD
ENDBRANCH   1  21
TORSDOF 4
ENDMDL