MODEL 4
REMARK VINA RESULT: -6.572492610      2.402      4.023
REMARK  5 active torsions:
REMARK  status: ('A' for Active; 'I' for Inactive)
REMARK    1  A    between atoms: C2_2  and  O1_3
REMARK    2  A    between atoms: O1_3  and  C3_4
REMARK    3  A    between atoms: C3_4  and  C4_6
REMARK    4  A    between atoms: C4_6  and  O3_7
REMARK    5  A    between atoms: C10_15  and  N1_16
ROOT
HETATM    1  C4  UNL     1      -3.851   2.469  12.338  1.00  0.00     0.258 C
HETATM    2  O4  UNL     1      -3.607   1.158  12.547  1.00  0.00    -0.338 OA
HETATM    3  C5  UNL     1      -3.611   0.396  11.391  1.00  0.00     0.144 C
HETATM    4  C6  UNL     1      -3.967  -1.052  11.670  1.00  0.00     0.044 C
HETATM    5  C7  UNL     1      -2.262   0.517  10.809  1.00  0.00     0.001 C
HETATM    6  C8  UNL     1      -1.495   1.576  10.795  1.00  0.00    -0.021 C
HETATM    7  C9  UNL     1      -1.570   2.967  11.278  1.00  0.00     0.048 C
HETATM    8  C10 UNL     1      -1.284   3.817  10.050  1.00  0.00     0.193 C
HETATM    9  C12 UNL     1      -2.540   4.452   9.503  1.00  0.00     0.034 C
HETATM   10  C13 UNL     1      -2.959   5.398  10.582  1.00  0.00     0.003 C
HETATM   11  C14 UNL     1      -3.273   4.748  11.865  1.00  0.00     0.011 C
HETATM   12  C15 UNL     1      -2.672   3.381  12.121  1.00  0.00     0.068 C
ENDROOT
BRANCH   1  13
HETATM   13  C3  UNL     1      -4.591   2.925  13.562  1.00  0.00     0.322 C
HETATM   14  O2  UNL     1      -4.027   2.864  14.700  1.00  0.00    -0.259 OA
BRANCH  13  15
HETATM   15  O1  UNL     1      -5.859   3.410  13.510  1.00  0.00    -0.318 OA
BRANCH  15  16
HETATM   16  C2  UNL     1      -6.392   4.413  14.347  1.00  0.00     0.174 C
HETATM   17  C1  UNL     1      -6.381   5.778  13.698  1.00  0.00     0.034 C
ENDBRANCH  15  16
ENDBRANCH  13  15
ENDBRANCH   1  13
BRANCH   1  18
HETATM   18  O3  UNL     1      -4.786   2.575  11.307  1.00  0.00    -0.357 OA
ATOM     19  H3  UNL     1      -5.349   3.293  11.572  1.00  0.00     0.213 HD
ENDBRANCH   1  18
BRANCH   8  20
HETATM   20  N1  UNL     1      -0.675   3.058   8.978  1.00  0.00    -0.074 N
HETATM   21  C11 UNL     1      -0.529   3.939   7.835  1.00  0.00     0.267 C
ATOM     22  H12 UNL     1       0.203   2.619   9.254  1.00  0.00     0.277 HD
ATOM     23  H11 UNL     1      -1.189   2.205   8.757  1.00  0.00     0.277 HD
ENDBRANCH   8  20
TORSDOF 5
ENDMDL