MODEL 1
REMARK VINA RESULT: -7.889776668      0.000      0.000
REMARK  2 active torsions:
REMARK  status: ('A' for Active; 'I' for Inactive)
REMARK       I    between atoms: N1_2  and  C2_4
REMARK       I    between atoms: C2_4  and  N2_6
REMARK    1  A    between atoms: N2_6  and  C3_8
REMARK    2  A    between atoms: C3_8  and  C4_9
ROOT
HETATM    1  C4  UNL     1      -3.647   3.192  12.952  1.00  0.00     0.150 C
HETATM    2  C5  UNL     1      -2.767   3.989  11.977  1.00  0.00     0.136 C
HETATM    3  C6  UNL     1      -3.386   3.637  10.614  1.00  0.00     0.287 C
HETATM    4  O2  UNL     1      -4.609   4.345  10.601  1.00  0.00    -0.331 OA
HETATM    5  C7  UNL     1      -4.280   5.590  10.055  1.00  0.00     0.200 C
HETATM    6  C8  UNL     1      -3.352   5.117   8.928  1.00  0.00     0.200 C
HETATM    7  O3  UNL     1      -2.618   4.162   9.586  1.00  0.00    -0.331 OA
HETATM    8  O4  UNL     1      -3.545   2.313  10.416  1.00  0.00    -0.295 OA
HETATM    9  C9  UNL     1      -3.476   1.447  11.430  1.00  0.00     0.170 C
HETATM   10  C10 UNL     1      -4.689   0.513  11.372  1.00  0.00     0.069 C
HETATM   11  C11 UNL     1      -4.378  -0.356  10.163  1.00  0.00     0.006 C
HETATM   12  C12 UNL     1      -2.914  -0.682  10.410  1.00  0.00     0.006 C
HETATM   13  C13 UNL     1      -2.320   0.473  11.145  1.00  0.00     0.069 C
HETATM   14  O5  UNL     1      -3.344   1.878  12.699  1.00  0.00    -0.348 OA
ENDROOT
BRANCH   1  15
HETATM   15  C3  UNL     1      -3.365   3.565  14.373  1.00  0.00     0.156 C
BRANCH  15  16
HETATM   16  N2  UNL     1      -4.495   3.354  15.220  1.00  0.00    -0.341 N
HETATM   17  C2  UNL     1      -4.550   2.186  16.033  1.00  0.00     0.315 C
HETATM   18  N1  UNL     1      -5.654   1.925  16.897  1.00  0.00    -0.347 N
HETATM   19  O1  UNL     1      -3.607   1.348  16.004  1.00  0.00    -0.247 OA
HETATM   20  C1  UNL     1      -5.679   0.728  17.711  1.00  0.00     0.151 C
ATOM     21  H1  UNL     1      -6.430   2.584  16.942  1.00  0.00     0.163 HD
ATOM     22  H2  UNL     1      -5.256   4.032  15.242  1.00  0.00     0.164 HD
ENDBRANCH  15  16
ENDBRANCH   1  15
TORSDOF 2
ENDMDL