MODEL 5
REMARK VINA RESULT: -6.705122773      2.176      2.908
REMARK  3 active torsions:
REMARK  status: ('A' for Active; 'I' for Inactive)
REMARK    1  A    between atoms: C4_4  and  C5_5
REMARK       I    between atoms: N1_10  and  C8_12
REMARK    2  A    between atoms: C8_12  and  C9_14
REMARK    3  A    between atoms: C9_14  and  O3_15
ROOT
HETATM    1  C1  UNL     1      -3.773   7.354  12.393  1.00  0.00     0.010 C
HETATM    2  C2  UNL     1      -4.854   6.311  12.308  1.00  0.00    -0.012 C
HETATM    3  C3  UNL     1      -4.809   5.477  13.565  1.00  0.00     0.012 C
HETATM    4  C4  UNL     1      -3.441   4.843  13.646  1.00  0.00     0.028 C
HETATM    5  C6  UNL     1      -3.043   4.106  12.416  1.00  0.00     0.164 C
HETATM    6  O1  UNL     1      -2.773   2.719  12.664  1.00  0.00    -0.329 OA
HETATM    7  C7  UNL     1      -3.237   1.719  11.856  1.00  0.00     0.145 C
HETATM    8  N1  UNL     1      -2.656   0.557  11.753  1.00  0.00    -0.307 N
ATOM      9  H1  UNL     1      -1.813   0.365  12.295  1.00  0.00     0.170 HD
HETATM   10  C8  UNL     1      -3.181  -0.445  10.898  1.00  0.00     0.246 C
HETATM   11  O2  UNL     1      -3.172  -0.271   9.663  1.00  0.00    -0.271 OA
HETATM   12  C10 UNL     1      -4.462   1.973  11.058  1.00  0.00     0.252 C
HETATM   13  O4  UNL     1      -5.011   3.174  11.537  1.00  0.00    -0.375 OA
HETATM   14  C11 UNL     1      -4.051   4.158  11.307  1.00  0.00     0.155 C
HETATM   15  C12 UNL     1      -4.666   5.487  11.084  1.00  0.00     0.017 C
HETATM   16  C13 UNL     1      -3.884   6.243  10.002  1.00  0.00     0.013 C
ENDROOT
BRANCH  10  17
HETATM   17  C9  UNL     1      -3.752  -1.719  11.440  1.00  0.00     0.267 C
BRANCH  17  18
HETATM   18  O3  UNL     1      -2.800  -2.702  11.550  1.00  0.00    -0.392 OA
ATOM     19  H3  UNL     1      -3.119  -3.542  11.243  1.00  0.00     0.210 HD
ENDBRANCH  17  18
ENDBRANCH  10  17
BRANCH   4  20
HETATM   20  C5  UNL     1      -3.442   3.954  14.881  1.00  0.00     0.093 C
HETATM   21  S1  UNL     1      -5.028   3.143  15.109  1.00  0.00    -0.097 SA
ENDBRANCH   4  20
TORSDOF 3
ENDMDL