MODEL 3
REMARK VINA RESULT: -6.323092143      1.985      5.395
REMARK  4 active torsions:
REMARK  status: ('A' for Active; 'I' for Inactive)
REMARK    1  A    between atoms: C8_10  and  C10_12
REMARK    2  A    between atoms: C10_12  and  C11_14
REMARK    3  A    between atoms: C11_14  and  O4_15
REMARK    4  A    between atoms: C15_20  and  O5_21
ROOT
HETATM    1  C1  UNL     1      -6.350   4.580  15.312  1.00  0.00     0.014 C
HETATM    2  C2  UNL     1      -5.124   3.706  15.115  1.00  0.00     0.028 C
HETATM    3  C3  UNL     1      -5.492   2.324  15.667  1.00  0.00     0.118 C
HETATM    4  C4  UNL     1      -4.411   1.362  15.395  1.00  0.00     0.259 C
HETATM    5  O1  UNL     1      -4.154   0.468  16.221  1.00  0.00    -0.265 OA
HETATM    6  O2  UNL     1      -3.687   1.452  14.229  1.00  0.00    -0.312 OA
HETATM    7  C5  UNL     1      -3.617   2.655  13.521  1.00  0.00     0.171 C
HETATM    8  C6  UNL     1      -3.259   2.366  12.073  1.00  0.00     0.030 C
HETATM    9  C7  UNL     1      -4.214   1.344  11.522  1.00  0.00     0.014 C
HETATM   10  C8  UNL     1      -3.170   3.614  11.248  1.00  0.00     0.028 C
HETATM   11  C9  UNL     1      -4.188   3.536  10.135  1.00  0.00     0.024 C
HETATM   12  C12 UNL     1      -3.380   4.842  12.098  1.00  0.00     0.000 C
HETATM   13  C13 UNL     1      -3.368   6.091  11.276  1.00  0.00     0.011 C
HETATM   14  C14 UNL     1      -4.622   4.805  12.920  1.00  0.00     0.046 C
HETATM   15  C15 UNL     1      -4.849   3.498  13.627  1.00  0.00     0.089 C
ENDROOT
BRANCH  10  16
HETATM   16  C10 UNL     1      -1.828   3.774  10.603  1.00  0.00     0.159 C
HETATM   17  O3  UNL     1      -1.705   3.526   9.417  1.00  0.00    -0.295 OA
BRANCH  16  18
HETATM   18  C11 UNL     1      -0.630   4.224  11.344  1.00  0.00     0.243 C
BRANCH  18  19
HETATM   19  O4  UNL     1      -0.042   3.145  11.961  1.00  0.00    -0.394 OA
ATOM     20  H4  UNL     1      -0.361   3.080  12.853  1.00  0.00     0.209 HD
ENDBRANCH  18  19
ENDBRANCH  16  18
ENDBRANCH  10  16
BRANCH  15  21
HETATM   21  O5  UNL     1      -5.953   2.804  13.140  1.00  0.00    -0.387 OA
ATOM     22  H5  UNL     1      -5.994   3.012  12.214  1.00  0.00     0.210 HD
ENDBRANCH  15  21
TORSDOF 4
ENDMDL