MODEL 4
REMARK VINA RESULT: -8.451294073      3.190     10.124
REMARK  12 active torsions:
REMARK  status: ('A' for Active; 'I' for Inactive)
REMARK    1  A    between atoms: C2_4  and  C3_5
REMARK    2  A    between atoms: C2_4  and  N5_22
REMARK    3  A    between atoms: C3_5  and  C4_6
REMARK    4  A    between atoms: C4_6  and  C5_7
REMARK    5  A    between atoms: C5_7  and  C6_8
REMARK    6  A    between atoms: C6_8  and  C7_9
REMARK    7  A    between atoms: C7_9  and  C8_10
REMARK    8  A    between atoms: C8_10  and  C9_11
REMARK    9  A    between atoms: C9_11  and  C10_12
REMARK   10  A    between atoms: C10_12  and  N2_13
REMARK   11  A    between atoms: N2_13  and  C11_15
REMARK   12  A    between atoms: C14_24  and  N6_26
ROOT
HETATM    1  C3  UNL     1      29.631  85.855   0.226  1.00  0.00     0.076 C
ENDROOT
BRANCH   1   2
HETATM    2  C2  UNL     1      28.302  86.143   0.770  1.00  0.00     0.077 C
HETATM    3  N1  UNL     1      28.137  86.801   1.870  1.00  0.00    -0.384 N
HETATM    4  C1  UNL     1      26.849  87.100   2.429  1.00  0.00     0.147 C
ATOM      5  H1  UNL     1      28.966  87.124   2.368  1.00  0.00     0.160 HD
BRANCH   2   6
HETATM    6  N5  UNL     1      27.128  85.691   0.115  1.00  0.00    -0.336 N
HETATM    7  C14 UNL     1      26.681  86.324  -0.909  1.00  0.00     0.077 C
HETATM    8  C15 UNL     1      27.456  87.537  -1.351  1.00  0.00     0.089 C
ATOM      9  H5  UNL     1      26.640  84.864   0.456  1.00  0.00     0.168 HD
BRANCH   7  10
HETATM   10  N6  UNL     1      25.512  85.919  -1.606  1.00  0.00    -0.348 N
HETATM   11  C16 UNL     1      25.189  84.573  -2.000  1.00  0.00     0.126 C
HETATM   12  C17 UNL     1      24.437  84.755  -3.307  1.00  0.00     0.024 C
HETATM   13  C18 UNL     1      24.228  86.234  -3.480  1.00  0.00     0.049 C
HETATM   14  C19 UNL     1      24.431  86.749  -2.054  1.00  0.00     0.107 C
HETATM   15  C20 UNL     1      24.722  88.215  -2.032  1.00  0.00     0.057 C
HETATM   16 CL1  UNL     1      22.930  86.418  -1.165  1.00  0.00    -0.096 Cl
ENDBRANCH   7  10
ENDBRANCH   2   6
ENDBRANCH   1   2
BRANCH   1  17
HETATM   17  C4  UNL     1      30.486  84.952   1.049  1.00  0.00     0.007 C
BRANCH  17  18
HETATM   18  C5  UNL     1      31.415  85.693   1.955  1.00  0.00     0.000 C
BRANCH  18  19
HETATM   19  C6  UNL     1      32.792  85.057   1.910  1.00  0.00     0.000 C
BRANCH  19  20
HETATM   20  C7  UNL     1      32.911  84.004   0.847  1.00  0.00     0.000 C
BRANCH  20  21
HETATM   21  C8  UNL     1      34.209  84.176   0.109  1.00  0.00     0.002 C
BRANCH  21  22
HETATM   22  C9  UNL     1      33.995  84.225  -1.366  1.00  0.00     0.020 C
BRANCH  22  23
HETATM   23  C10 UNL     1      35.163  83.561  -2.116  1.00  0.00     0.122 C
BRANCH  23  24
HETATM   24  N2  UNL     1      35.587  82.362  -1.424  1.00  0.00    -0.362 N
ATOM     25  H2  UNL     1      36.251  82.433  -0.654  1.00  0.00     0.162 HD
BRANCH  24  26
HETATM   26  C11 UNL     1      35.079  81.071  -1.812  1.00  0.00     0.171 C
HETATM   27  N3  UNL     1      35.780  80.263  -2.528  1.00  0.00    -0.361 N
HETATM   28  C12 UNL     1      35.084  79.039  -2.795  1.00  0.00     0.142 C
ATOM     29  H3  UNL     1      36.721  80.469  -2.866  1.00  0.00     0.162 HD
HETATM   30  C13 UNL     1      33.857  79.119  -1.926  1.00  0.00     0.142 C
HETATM   31  N4  UNL     1      33.814  80.502  -1.499  1.00  0.00    -0.361 N
ATOM     32  H4  UNL     1      33.027  80.977  -1.058  1.00  0.00     0.162 HD
ENDBRANCH  24  26
ENDBRANCH  23  24
ENDBRANCH  22  23
ENDBRANCH  21  22
ENDBRANCH  20  21
ENDBRANCH  19  20
ENDBRANCH  18  19
ENDBRANCH  17  18
ENDBRANCH   1  17
TORSDOF 12
ENDMDL