MODEL 5
REMARK VINA RESULT: -7.368199325      4.267      9.601
REMARK  10 active torsions:
REMARK  status: ('A' for Active; 'I' for Inactive)
REMARK    1  A    between atoms: C2_2  and  C4_4
REMARK    2  A    between atoms: C4_4  and  O1_5
REMARK    3  A    between atoms: C4_4  and  C5_7
REMARK    4  A    between atoms: C4_4  and  C16_18
REMARK    5  A    between atoms: C5_7  and  C6_8
REMARK       I    between atoms: C16_18  and  N1_20
REMARK    6  A    between atoms: N1_20  and  C17_22
REMARK    7  A    between atoms: C17_22  and  C18_23
REMARK    8  A    between atoms: C18_23  and  C19_24
REMARK    9  A    between atoms: C19_24  and  N2_25
REMARK   10  A    between atoms: N2_25  and  C21_27
ROOT
HETATM    1  C4  UNL     1      26.293  86.243  -0.783  1.00  0.00     0.141 C
ENDROOT
BRANCH   1   2
HETATM    2  C2  UNL     1      26.965  87.350  -1.519  1.00  0.00     0.021 C
HETATM    3  C1  UNL     1      26.102  88.518  -1.914  1.00  0.00     0.013 C
HETATM    4  C3  UNL     1      28.274  87.781  -0.906  1.00  0.00     0.013 C
ENDBRANCH   1   2
BRANCH   1   5
HETATM    5  O1  UNL     1      25.086  86.951  -0.325  1.00  0.00    -0.380 OA
ATOM      6  H1  UNL     1      25.174  86.824   0.612  1.00  0.00     0.211 HD
ENDBRANCH   1   5
BRANCH   1   7
HETATM    7  C5  UNL     1      25.679  85.112  -1.418  1.00  0.00     0.057 C
BRANCH   7   8
HETATM    8  C6  UNL     1      24.497  84.974  -2.247  1.00  0.00    -0.036 C
HETATM    9  C7  UNL     1      23.201  85.527  -1.796  1.00  0.00     0.014 C
HETATM   10  C8  UNL     1      22.119  85.402  -2.852  1.00  0.00    -0.013 C
HETATM   11  C9  UNL     1      22.437  86.420  -3.922  1.00  0.00     0.009 C
HETATM   12  C13 UNL     1      22.032  84.052  -3.469  1.00  0.00     0.009 C
HETATM   13  C10 UNL     1      23.808  86.087  -4.434  1.00  0.00    -0.013 C
HETATM   14  C11 UNL     1      23.714  84.758  -5.196  1.00  0.00     0.009 C
HETATM   15  C15 UNL     1      24.862  85.940  -3.438  1.00  0.00     0.014 C
HETATM   16  C12 UNL     1      23.355  83.762  -4.151  1.00  0.00    -0.013 C
HETATM   17  C14 UNL     1      24.383  83.657  -3.028  1.00  0.00     0.014 C
ENDBRANCH   7   8
ENDBRANCH   1   7
BRANCH   1  18
HETATM   18  C16 UNL     1      27.000  86.047   0.487  1.00  0.00     0.252 C
HETATM   19  O2  UNL     1      26.445  86.354   1.555  1.00  0.00    -0.270 OA
HETATM   20  N1  UNL     1      28.300  85.519   0.537  1.00  0.00    -0.358 N
ATOM     21  H1  UNL     1      28.761  85.267  -0.336  1.00  0.00     0.162 HD
BRANCH  20  22
HETATM   22  C17 UNL     1      29.021  85.318   1.802  1.00  0.00     0.124 C
BRANCH  22  23
HETATM   23  C18 UNL     1      30.407  85.863   1.772  1.00  0.00     0.050 C
BRANCH  23  24
HETATM   24  C19 UNL     1      31.279  84.793   1.106  1.00  0.00     0.274 C
BRANCH  24  25
HETATM   25  N2  UNL     1      32.651  85.210   1.201  1.00  0.00     0.091 N
HETATM   26  C20 UNL     1      32.918  85.577   2.578  1.00  0.00     0.310 C
BRANCH  25  27
HETATM   27  C21 UNL     1      33.585  84.202   0.803  1.00  0.00     0.259 A
HETATM   28  C22 UNL     1      33.108  83.071  -0.060  1.00  0.00     0.078 A
HETATM   29  C23 UNL     1      33.997  84.118  -0.662  1.00  0.00     0.205 A
HETATM   30  F1  UNL     1      35.287  83.694  -0.958  1.00  0.00    -0.247 F
ENDBRANCH  25  27
ENDBRANCH  24  25
ENDBRANCH  23  24
ENDBRANCH  22  23
ENDBRANCH  20  22
ENDBRANCH   1  18
TORSDOF 10
ENDMDL