MODEL 4
REMARK VINA RESULT: -9.812767360      2.609      9.241
REMARK  13 active torsions:
REMARK  status: ('A' for Active; 'I' for Inactive)
REMARK    1  A    between atoms: C6_7  and  N1_8
REMARK    2  A    between atoms: N1_8  and  C7_10
REMARK    3  A    between atoms: C7_10  and  O1_11
REMARK    4  A    between atoms: C8_13  and  C9_14
REMARK    5  A    between atoms: C9_14  and  C10_15
REMARK    6  A    between atoms: C10_15  and  C11_16
REMARK    7  A    between atoms: C11_16  and  C12_17
REMARK    8  A    between atoms: C12_17  and  C13_18
REMARK    9  A    between atoms: C13_18  and  C14_19
REMARK   10  A    between atoms: C13_18  and  C20_28
REMARK   11  A    between atoms: C15_20  and  O2_21
REMARK   12  A    between atoms: C15_20  and  N2_23
REMARK   13  A    between atoms: N2_23  and  C17_25
ROOT
HETATM    1  C10 UNL     1      27.503  87.476  -1.206  1.00  0.00    -0.004 C
ENDROOT
BRANCH   1   2
HETATM    2  C9  UNL     1      28.097  87.218   0.086  1.00  0.00     0.004 C
BRANCH   2   3
HETATM    3  C8  UNL     1      27.845  86.413   1.032  1.00  0.00     0.056 C
HETATM    4  C7  UNL     1      28.592  85.859   2.099  1.00  0.00     0.140 C
BRANCH   4   5
HETATM    5  N1  UNL     1      29.916  86.051   2.431  1.00  0.00    -0.337 N
ATOM      6  H1  UNL     1      30.137  86.611   3.253  1.00  0.00     0.168 HD
BRANCH   5   7
HETATM    7  C6  UNL     1      30.988  85.499   1.672  1.00  0.00     0.037 A
HETATM    8  C5  UNL     1      30.868  85.099   0.383  1.00  0.00     0.071 A
HETATM    9  C4  UNL     1      31.956  84.532  -0.286  1.00  0.00     0.119 A
HETATM   10  C3  UNL     1      33.149  84.384   0.382  1.00  0.00     0.049 A
HETATM   11  F1  UNL     1      31.844  84.129  -1.573  1.00  0.00    -0.206 F
HETATM   12  C2  UNL     1      33.270  84.795   1.702  1.00  0.00    -0.057 A
HETATM   13  C1  UNL     1      34.570  84.631   2.411  1.00  0.00     0.048 C
HETATM   14  C21 UNL     1      32.198  85.352   2.354  1.00  0.00     0.036 A
ENDBRANCH   5   7
ENDBRANCH   4   5
BRANCH   4  15
HETATM   15  O1  UNL     1      27.956  85.034   2.916  1.00  0.00    -0.346 OA
ATOM     16  H1  UNL     1      28.523  84.389   3.322  1.00  0.00     0.219 HD
ENDBRANCH   4  15
ENDBRANCH   2   3
ENDBRANCH   1   2
BRANCH   1  17
HETATM   17  C11 UNL     1      26.269  87.117  -1.543  1.00  0.00    -0.026 C
BRANCH  17  18
HETATM   18  C12 UNL     1      25.720  85.789  -1.536  1.00  0.00     0.046 C
BRANCH  18  19
HETATM   19  C13 UNL     1      24.756  85.530  -2.745  1.00  0.00     0.117 C
BRANCH  19  20
HETATM   20  C14 UNL     1      24.757  84.076  -2.977  1.00  0.00     0.044 C
HETATM   21  C15 UNL     1      23.651  83.400  -3.608  1.00  0.00     0.134 C
BRANCH  21  22
HETATM   22  O2  UNL     1      23.634  82.110  -3.326  1.00  0.00    -0.346 OA
ATOM     23  H2  UNL     1      24.401  81.845  -2.832  1.00  0.00     0.219 HD
ENDBRANCH  21  22
BRANCH  21  24
HETATM   24  N2  UNL     1      22.618  83.783  -4.430  1.00  0.00    -0.363 N
HETATM   25  C16 UNL     1      21.228  83.629  -3.857  1.00  0.00     0.152 C
BRANCH  24  26
HETATM   26  C17 UNL     1      22.591  84.280  -5.766  1.00  0.00     0.077 C
HETATM   27  C18 UNL     1      22.608  83.145  -6.789  1.00  0.00     0.032 C
HETATM   28  C19 UNL     1      23.850  85.084  -6.060  1.00  0.00     0.032 C
ENDBRANCH  24  26
ENDBRANCH  21  24
ENDBRANCH  19  20
BRANCH  19  29
HETATM   29  C20 UNL     1      23.463  86.137  -2.408  1.00  0.00     0.181 C
HETATM   30  O3  UNL     1      23.003  86.031  -1.247  1.00  0.00    -0.647 OA
HETATM   31  O4  UNL     1      22.716  86.834  -3.341  1.00  0.00    -0.647 OA
ENDBRANCH  19  29
ENDBRANCH  18  19
ENDBRANCH  17  18
ENDBRANCH   1  17
TORSDOF 13
ENDMDL