MODEL 2
REMARK VINA RESULT: -9.360492585      1.066      1.455
REMARK  9 active torsions:
REMARK  status: ('A' for Active; 'I' for Inactive)
REMARK       I    between atoms: C1_2  and  N1_3
REMARK    1  A    between atoms: C1_2  and  C10_14
REMARK    2  A    between atoms: N1_3  and  C2_5
REMARK    3  A    between atoms: C2_5  and  C3_6
REMARK    4  A    between atoms: C3_6  and  C4_7
REMARK    5  A    between atoms: C4_7  and  C5_8
REMARK    6  A    between atoms: C5_8  and  C6_9
REMARK    7  A    between atoms: C6_9  and  C7_10
REMARK    8  A    between atoms: C7_10  and  C8_11
REMARK    9  A    between atoms: C8_11  and  C9_12
ROOT
HETATM    1  C10 UNL     1      35.130  81.105  -1.821  1.00  0.00     0.167 C
HETATM    2  N2  UNL     1      36.103  80.630  -1.142  1.00  0.00    -0.372 N
ATOM      3  H2  UNL     1      36.586  81.192  -0.442  1.00  0.00     0.161 HD
HETATM    4  C11 UNL     1      36.496  79.245  -1.411  1.00  0.00     0.123 C
HETATM    5  C12 UNL     1      35.197  78.448  -1.439  1.00  0.00     0.050 C
HETATM    6  C13 UNL     1      34.416  78.836  -2.676  1.00  0.00     0.033 C
HETATM    7  C14 UNL     1      35.065  78.149  -3.849  1.00  0.00     0.031 C
HETATM    8  C15 UNL     1      34.172  77.093  -4.458  1.00  0.00     0.002 C
HETATM    9  C16 UNL     1      33.547  76.207  -3.403  1.00  0.00     0.000 C
HETATM   10  C17 UNL     1      32.776  76.973  -2.374  1.00  0.00     0.002 C
HETATM   11  C18 UNL     1      32.958  78.459  -2.579  1.00  0.00     0.031 C
HETATM   12  N3  UNL     1      34.487  80.281  -2.785  1.00  0.00    -0.363 N
ATOM     13  H3  UNL     1      34.053  80.729  -3.593  1.00  0.00     0.162 HD
ENDROOT
BRANCH   1  14
HETATM   14  C1  UNL     1      34.708  82.491  -1.579  1.00  0.00     0.284 C
HETATM   15  O1  UNL     1      34.462  83.183  -2.619  1.00  0.00    -0.264 OA
HETATM   16  N1  UNL     1      34.588  83.003  -0.270  1.00  0.00    -0.354 N
ATOM     17  H1  UNL     1      34.793  82.393   0.522  1.00  0.00     0.162 HD
BRANCH  16  18
HETATM   18  C2  UNL     1      34.186  84.353  -0.022  1.00  0.00     0.123 C
BRANCH  18  19
HETATM   19  C3  UNL     1      33.436  84.430   1.276  1.00  0.00     0.020 C
BRANCH  19  20
HETATM   20  C4  UNL     1      31.935  84.533   1.019  1.00  0.00     0.002 C
BRANCH  20  21
HETATM   21  C5  UNL     1      31.273  85.559   1.864  1.00  0.00     0.000 C
BRANCH  21  22
HETATM   22  C6  UNL     1      29.804  85.682   1.472  1.00  0.00     0.000 C
BRANCH  22  23
HETATM   23  C7  UNL     1      29.600  86.048   0.056  1.00  0.00     0.001 C
BRANCH  23  24
HETATM   24  C8  UNL     1      28.476  86.942  -0.296  1.00  0.00     0.011 C
BRANCH  24  25
HETATM   25  C9  UNL     1      27.198  86.387  -0.763  1.00  0.00     0.085 C
HETATM   26 BR1  UNL     1      26.022  87.630  -1.595  1.00  0.00    -0.097 Br
ENDBRANCH  24  25
ENDBRANCH  23  24
ENDBRANCH  22  23
ENDBRANCH  21  22
ENDBRANCH  20  21
ENDBRANCH  19  20
ENDBRANCH  18  19
ENDBRANCH  16  18
ENDBRANCH   1  14
TORSDOF 9
ENDMDL