MODEL 3
REMARK VINA RESULT: -6.501814924      3.071      4.905
REMARK  11 active torsions:
REMARK  status: ('A' for Active; 'I' for Inactive)
REMARK    1  A    between atoms: C2_2  and  N1_3
REMARK    2  A    between atoms: N1_3  and  C3_4
REMARK    3  A    between atoms: N1_3  and  C5_6
REMARK    4  A    between atoms: C5_6  and  C6_7
REMARK    5  A    between atoms: C6_7  and  C7_8
REMARK    6  A    between atoms: C7_8  and  N2_9
REMARK    7  A    between atoms: N2_9  and  C8_11
REMARK    8  A    between atoms: C8_11  and  N3_13
REMARK    9  A    between atoms: N3_13  and  C10_15
REMARK   10  A    between atoms: C10_15  and  C11_16
REMARK   11  A    between atoms: C12_17  and  C13_18
ROOT
HETATM    1  N3  UNL     1      34.927  79.935  -1.937  1.00  0.00    -0.358 N
HETATM    2  C9  UNL     1      35.391  80.963  -2.862  1.00  0.00     0.152 C
ENDROOT
BRANCH   1   3
HETATM    3  C8  UNL     1      34.143  80.412  -0.813  1.00  0.00     0.169 C
HETATM    4  S1  UNL     1      33.997  79.480   0.514  1.00  0.00    -0.041 SA
BRANCH   3   5
HETATM    5  N2  UNL     1      33.547  81.685  -0.887  1.00  0.00    -0.367 N
ATOM      6  H2  UNL     1      32.828  81.829  -1.595  1.00  0.00     0.161 HD
BRANCH   5   7
HETATM    7  C7  UNL     1      33.876  82.789  -0.043  1.00  0.00     0.123 C
BRANCH   7   8
HETATM    8  C6  UNL     1      32.599  83.233   0.676  1.00  0.00     0.050 C
BRANCH   8   9
HETATM    9  C5  UNL     1      32.240  84.599   0.162  1.00  0.00     0.274 C
BRANCH   9  10
HETATM   10  N1  UNL     1      30.988  85.018   0.774  1.00  0.00     0.087 N
BRANCH  10  11
HETATM   11  C2  UNL     1      30.155  85.687  -0.180  1.00  0.00     0.268 C
HETATM   12  C1  UNL     1      28.868  86.244   0.314  1.00  0.00     0.037 C
ENDBRANCH  10  11
BRANCH  10  13
HETATM   13  C3  UNL     1      31.155  85.652   2.026  1.00  0.00     0.268 C
HETATM   14  C4  UNL     1      32.493  85.827   2.598  1.00  0.00     0.037 C
ENDBRANCH  10  13
ENDBRANCH   9  10
ENDBRANCH   8   9
ENDBRANCH   7   8
ENDBRANCH   5   7
ENDBRANCH   3   5
ENDBRANCH   1   3
BRANCH   1  15
HETATM   15  C10 UNL     1      35.214  78.555  -2.091  1.00  0.00     0.169 C
BRANCH  15  16
HETATM   16  C11 UNL     1      35.020  77.939  -3.396  1.00  0.00     0.035 A
HETATM   17  C12 UNL     1      33.736  77.525  -3.787  1.00  0.00    -0.025 A
HETATM   18  C15 UNL     1      33.524  76.976  -5.033  1.00  0.00     0.034 A
HETATM   19  C16 UNL     1      34.547  76.808  -5.943  1.00  0.00     0.009 A
HETATM   20  C17 UNL     1      34.345  76.209  -7.298  1.00  0.00     0.068 C
HETATM   21  N4  UNL     1      35.763  77.212  -5.547  1.00  0.00    -0.327 N
HETATM   22  C18 UNL     1      36.012  77.761  -4.321  1.00  0.00     0.254 A
ATOM     23  H4  UNL     1      36.542  77.103  -6.196  1.00  0.00     0.169 HD
HETATM   24  O1  UNL     1      37.216  78.075  -4.157  1.00  0.00    -0.268 OA
BRANCH  17  25
HETATM   25  C13 UNL     1      32.572  77.660  -2.877  1.00  0.00     0.111 C
HETATM   26  C14 UNL     1      31.280  77.282  -3.555  1.00  0.00     0.032 C
HETATM   27 CL1  UNL     1      32.765  76.479  -1.530  1.00  0.00    -0.120 Cl
ENDBRANCH  17  25
ENDBRANCH  15  16
ENDBRANCH   1  15
TORSDOF 11
ENDMDL