MODEL 5
REMARK VINA RESULT: -8.445265033      2.953      3.691
REMARK  10 active torsions:
REMARK  status: ('A' for Active; 'I' for Inactive)
REMARK    1  A    between atoms: C2_2  and  C3_3
REMARK    2  A    between atoms: C3_3  and  C4_4
REMARK    3  A    between atoms: C4_4  and  C5_5
REMARK    4  A    between atoms: C5_5  and  C6_6
REMARK    5  A    between atoms: C6_6  and  C7_7
REMARK    6  A    between atoms: C7_7  and  C8_8
REMARK    7  A    between atoms: C8_8  and  N1_9
REMARK    8  A    between atoms: C10_14  and  N3_15
REMARK       I    between atoms: N3_15  and  C11_17
REMARK    9  A    between atoms: C11_17  and  C12_19
REMARK   10  A    between atoms: C12_19  and  C13_20
ROOT
HETATM    1  N1  UNL     1      33.436  81.940  -0.056  1.00  0.00    -0.375 N
ATOM      2  H1  UNL     1      32.781  81.422   0.528  1.00  0.00     0.161 HD
HETATM    3  C9  UNL     1      33.934  81.225  -0.928  1.00  0.00     0.135 A
HETATM    4  N2  UNL     1      33.527  79.915  -0.946  1.00  0.00    -0.175 N
ATOM      5  H2  UNL     1      32.846  79.615  -0.249  1.00  0.00     0.186 HD
HETATM    6  C10 UNL     1      33.965  79.014  -1.818  1.00  0.00     0.686 A
HETATM    7  N4  UNL     1      34.862  79.392  -2.745  1.00  0.00    -0.200 N
ATOM      8  H4  UNL     1      35.203  78.705  -3.418  1.00  0.00     0.183 HD
HETATM    9  C16 UNL     1      35.317  80.648  -2.804  1.00  0.00     0.129 A
HETATM   10  C17 UNL     1      34.848  81.585  -1.882  1.00  0.00     0.071 A
HETATM   11 BR1  UNL     1      35.531  83.371  -2.009  1.00  0.00    -0.046 Br
ENDROOT
BRANCH   1  12
HETATM   12  C8  UNL     1      33.538  83.296   0.346  1.00  0.00     0.121 C
BRANCH  12  13
HETATM   13  C7  UNL     1      32.264  84.056   0.180  1.00  0.00     0.020 C
BRANCH  13  14
HETATM   14  C6  UNL     1      31.701  84.832   1.267  1.00  0.00     0.002 C
BRANCH  14  15
HETATM   15  C5  UNL     1      30.444  85.558   1.226  1.00  0.00     0.000 C
BRANCH  15  16
HETATM   16  C4  UNL     1      29.793  85.900  -0.071  1.00  0.00     0.000 C
BRANCH  16  17
HETATM   17  C3  UNL     1      28.619  86.849   0.262  1.00  0.00    -0.000 C
BRANCH  17  18
HETATM   18  C2  UNL     1      27.450  86.428  -0.606  1.00  0.00    -0.005 C
HETATM   19  C1  UNL     1      26.930  87.571  -1.416  1.00  0.00     0.005 C
ENDBRANCH  17  18
ENDBRANCH  16  17
ENDBRANCH  15  16
ENDBRANCH  14  15
ENDBRANCH  13  14
ENDBRANCH  12  13
ENDBRANCH   1  12
BRANCH   6  20
HETATM   20  N3  UNL     1      33.530  77.784  -1.772  1.00  0.00    -0.159 N
HETATM   21  C11 UNL     1      32.378  77.465  -0.993  1.00  0.00     0.236 C
HETATM   22  O1  UNL     1      31.243  77.679  -1.492  1.00  0.00    -0.273 OA
ATOM     23  H3  UNL     1      34.013  77.052  -2.294  1.00  0.00     0.187 HD
BRANCH  21  24
HETATM   24  C12 UNL     1      32.531  76.896   0.364  1.00  0.00     0.107 C
BRANCH  24  25
HETATM   25  C13 UNL     1      31.714  77.704   1.347  1.00  0.00    -0.014 C
HETATM   26  C14 UNL     1      30.356  77.094   1.509  1.00  0.00     0.010 C
HETATM   27  C15 UNL     1      32.433  77.794   2.677  1.00  0.00     0.010 C
ENDBRANCH  24  25
ENDBRANCH  21  24
ENDBRANCH   6  20
TORSDOF 10
ENDMDL