MODEL 3
REMARK VINA RESULT: -7.411183607      1.706      3.287
REMARK  11 active torsions:
REMARK  status: ('A' for Active; 'I' for Inactive)
REMARK    1  A    between atoms: C2_2  and  C3_3
REMARK    2  A    between atoms: C3_3  and  C4_4
REMARK    3  A    between atoms: C4_4  and  C5_5
REMARK    4  A    between atoms: C5_5  and  C6_6
REMARK    5  A    between atoms: C6_6  and  C7_7
REMARK    6  A    between atoms: C7_7  and  C8_8
REMARK    7  A    between atoms: C7_7  and  N3_24
REMARK    8  A    between atoms: C8_8  and  O1_9
REMARK    9  A    between atoms: C8_8  and  C9_11
REMARK   10  A    between atoms: C9_11  and  N1_13
REMARK   11  A    between atoms: N1_13  and  C11_15
ROOT
HETATM    1  C8  UNL     1      35.144  80.684  -0.428  1.00  0.00     0.162 C
ENDROOT
BRANCH   1   2
HETATM    2  C7  UNL     1      34.653  79.353  -0.143  1.00  0.00     0.109 C
BRANCH   2   3
HETATM    3  C6  UNL     1      33.297  79.125   0.420  1.00  0.00     0.027 C
BRANCH   3   4
HETATM    4  C5  UNL     1      32.958  78.003   1.310  1.00  0.00     0.002 C
BRANCH   4   5
HETATM    5  C4  UNL     1      31.509  77.543   1.154  1.00  0.00     0.000 C
BRANCH   5   6
HETATM    6  C3  UNL     1      31.382  76.763  -0.128  1.00  0.00    -0.000 C
BRANCH   6   7
HETATM    7  C2  UNL     1      30.056  76.956  -0.800  1.00  0.00    -0.005 C
HETATM    8  C1  UNL     1      30.093  77.638  -2.127  1.00  0.00     0.005 C
ENDBRANCH   6   7
ENDBRANCH   5   6
ENDBRANCH   4   5
ENDBRANCH   3   4
ENDBRANCH   2   3
BRANCH   2   9
HETATM    9  N3  UNL     1      34.681  78.510  -1.342  1.00  0.00    -0.414 N
HETATM   10  C17 UNL     1      35.692  77.565  -1.453  1.00  0.00     0.143 C
HETATM   11  C18 UNL     1      33.726  78.732  -2.314  1.00  0.00     0.143 C
ENDBRANCH   2   9
ENDBRANCH   1   2
BRANCH   1  12
HETATM   12  O1  UNL     1      36.469  80.647  -0.962  1.00  0.00    -0.391 OA
ATOM     13  H1  UNL     1      36.600  81.329  -1.610  1.00  0.00     0.210 HD
ENDBRANCH   1  12
BRANCH   1  14
HETATM   14  C9  UNL     1      34.448  81.840  -1.015  1.00  0.00     0.110 C
HETATM   15  C10 UNL     1      35.179  82.530  -2.155  1.00  0.00     0.035 C
BRANCH  14  16
HETATM   16  N1  UNL     1      34.373  82.896   0.034  1.00  0.00    -0.369 N
ATOM     17  H1  UNL     1      35.220  83.114   0.559  1.00  0.00     0.161 HD
BRANCH  16  18
HETATM   18  C11 UNL     1      33.327  83.534   0.308  1.00  0.00     0.107 A
HETATM   19  N2  UNL     1      32.181  83.568  -0.402  1.00  0.00    -0.351 N
HETATM   20  C12 UNL     1      31.150  84.367  -0.027  1.00  0.00     0.108 A
ATOM     21  H2  UNL     1      32.087  82.985  -1.233  1.00  0.00     0.166 HD
HETATM   22  C13 UNL     1      31.228  85.161   1.067  1.00  0.00     0.027 A
HETATM   23 BR1  UNL     1      29.757  86.310   1.591  1.00  0.00    -0.050 Br
HETATM   24  C14 UNL     1      32.383  85.157   1.822  1.00  0.00     0.031 A
HETATM   25  C15 UNL     1      33.423  84.351   1.447  1.00  0.00    -0.017 A
HETATM   26  C16 UNL     1      34.674  84.340   2.234  1.00  0.00     0.052 C
ENDBRANCH  16  18
ENDBRANCH  14  16
ENDBRANCH   1  14
TORSDOF 11
ENDMDL