MODEL 3
REMARK VINA RESULT: -7.138135971      2.151      7.043
REMARK  9 active torsions:
REMARK  status: ('A' for Active; 'I' for Inactive)
REMARK    1  A    between atoms: C2_2  and  N1_4
REMARK       I    between atoms: N1_4  and  C4_6
REMARK    2  A    between atoms: C4_6  and  C5_8
REMARK    3  A    between atoms: C5_8  and  C7_10
REMARK    4  A    between atoms: C5_8  and  N2_18
REMARK    5  A    between atoms: C7_10  and  C8_11
REMARK    6  A    between atoms: C8_11  and  C9_12
REMARK       I    between atoms: N2_18  and  C15_20
REMARK    7  A    between atoms: C15_20  and  C16_22
REMARK    8  A    between atoms: C16_22  and  C17_23
REMARK    9  A    between atoms: C16_22  and  N3_26
ROOT
HETATM    1  C5  UNL     1      33.582  78.831  -0.800  1.00  0.00     0.110 C
HETATM    2  C6  UNL     1      32.979  78.110  -2.020  1.00  0.00     0.049 C
ENDROOT
BRANCH   1   3
HETATM    3  C4  UNL     1      32.907  78.222   0.379  1.00  0.00     0.246 C
HETATM    4  N1  UNL     1      31.567  77.815   0.382  1.00  0.00    -0.355 N
ATOM      5  H1  UNL     1      31.005  77.934  -0.460  1.00  0.00     0.162 HD
HETATM    6  O1  UNL     1      33.593  78.073   1.418  1.00  0.00    -0.271 OA
BRANCH   4   7
HETATM    7  C2  UNL     1      30.972  77.231   1.554  1.00  0.00     0.076 C
HETATM    8  C1  UNL     1      29.698  76.500   1.131  1.00  0.00     0.032 C
HETATM    9  C3  UNL     1      30.590  78.272   2.584  1.00  0.00     0.032 C
ENDBRANCH   4   7
ENDBRANCH   1   3
BRANCH   1  10
HETATM   10  C7  UNL     1      35.057  78.508  -0.806  1.00  0.00     0.041 C
BRANCH  10  11
HETATM   11  C8  UNL     1      35.561  78.567  -2.197  1.00  0.00     0.007 C
BRANCH  11  12
HETATM   12  C9  UNL     1      36.594  77.573  -2.583  1.00  0.00    -0.014 C
HETATM   13  C10 UNL     1      37.364  78.085  -3.777  1.00  0.00     0.004 C
HETATM   14  C11 UNL     1      37.198  77.208  -5.002  1.00  0.00     0.000 C
HETATM   15  C12 UNL     1      35.724  76.974  -5.209  1.00  0.00     0.000 C
HETATM   16  C13 UNL     1      35.108  76.206  -4.075  1.00  0.00     0.000 C
HETATM   17  C14 UNL     1      36.056  76.206  -2.906  1.00  0.00     0.004 C
ENDBRANCH  11  12
ENDBRANCH  10  11
ENDBRANCH   1  10
BRANCH   1  18
HETATM   18  N2  UNL     1      33.288  80.240  -0.922  1.00  0.00    -0.339 N
HETATM   19  C15 UNL     1      34.017  81.281  -0.291  1.00  0.00     0.261 C
HETATM   20  O2  UNL     1      35.003  80.973   0.420  1.00  0.00    -0.267 OA
ATOM     21  H2  UNL     1      32.496  80.507  -1.506  1.00  0.00     0.164 HD
BRANCH  19  22
HETATM   22  C16 UNL     1      33.679  82.697  -0.420  1.00  0.00     0.073 C
BRANCH  22  23
HETATM   23  C17 UNL     1      34.624  83.546  -1.188  1.00  0.00     0.128 C
HETATM   24  C18 UNL     1      33.939  84.563  -2.058  1.00  0.00     0.033 C
HETATM   25 CL1  UNL     1      35.494  82.433  -2.312  1.00  0.00    -0.119 Cl
ENDBRANCH  22  23
BRANCH  22  26
HETATM   26  N3  UNL     1      33.245  83.351   0.762  1.00  0.00    -0.289 NA
HETATM   27  C19 UNL     1      34.323  84.104   1.404  1.00  0.00     0.116 C
HETATM   28  C20 UNL     1      32.032  84.083   0.726  1.00  0.00     0.116 C
ENDBRANCH  22  26
ENDBRANCH  19  22
ENDBRANCH   1  18
TORSDOF 9
ENDMDL