MODEL 3
REMARK VINA RESULT: -7.667850413      1.094      1.794
REMARK  11 active torsions:
REMARK  status: ('A' for Active; 'I' for Inactive)
REMARK    1  A    between atoms: C2_2  and  C4_4
REMARK    2  A    between atoms: C4_4  and  N1_5
REMARK    3  A    between atoms: N1_5  and  C6_7
REMARK    4  A    between atoms: C6_7  and  C7_8
REMARK    5  A    between atoms: C7_8  and  C8_9
REMARK    6  A    between atoms: C8_9  and  N2_10
REMARK    7  A    between atoms: N2_10  and  C9_12
REMARK    8  A    between atoms: C9_12  and  N3_14
REMARK    9  A    between atoms: N3_14  and  C10_16
REMARK   10  A    between atoms: C10_16  and  C11_17
REMARK   11  A    between atoms: C11_17  and  C12_18
ROOT
HETATM    1  C9  UNL     1      32.215  84.189   0.800  1.00  0.00     0.171 C
HETATM    2  S1  UNL     1      33.485  84.829   1.778  1.00  0.00    -0.041 SA
ENDROOT
BRANCH   1   3
HETATM    3  N2  UNL     1      32.660  83.224  -0.085  1.00  0.00    -0.367 N
ATOM      4  H2  UNL     1      31.904  82.717  -0.544  1.00  0.00     0.161 HD
BRANCH   3   5
HETATM    5  C8  UNL     1      33.944  82.795  -0.484  1.00  0.00     0.123 C
BRANCH   5   6
HETATM    6  C7  UNL     1      34.071  81.270  -0.100  1.00  0.00     0.050 C
BRANCH   6   7
HETATM    7  C6  UNL     1      35.037  80.759  -1.098  1.00  0.00     0.274 C
BRANCH   7   8
HETATM    8  N1  UNL     1      35.135  79.349  -1.320  1.00  0.00     0.088 N
HETATM    9  C5  UNL     1      36.469  78.894  -1.563  1.00  0.00     0.310 C
BRANCH   8  10
HETATM   10  C4  UNL     1      34.178  79.004  -2.352  1.00  0.00     0.305 C
BRANCH  10  11
HETATM   11  C2  UNL     1      33.087  78.128  -1.943  1.00  0.00    -0.065 C
HETATM   12  C1  UNL     1      32.216  77.735  -2.865  1.00  0.00     0.015 C
HETATM   13  C3  UNL     1      32.929  77.595  -0.565  1.00  0.00     0.044 C
ENDBRANCH  10  11
ENDBRANCH   8  10
ENDBRANCH   7   8
ENDBRANCH   6   7
ENDBRANCH   5   6
ENDBRANCH   3   5
ENDBRANCH   1   3
BRANCH   1  14
HETATM   14  N3  UNL     1      30.973  84.710   1.034  1.00  0.00    -0.347 N
ATOM     15  H3  UNL     1      30.214  84.100   0.730  1.00  0.00     0.167 HD
BRANCH  14  16
HETATM   16  C10 UNL     1      30.526  85.914   1.608  1.00  0.00     0.068 C
BRANCH  16  17
HETATM   17  C11 UNL     1      29.035  85.750   1.881  1.00  0.00     0.090 C
BRANCH  17  18
HETATM   18  C12 UNL     1      28.236  86.352   0.772  1.00  0.00    -0.011 A
HETATM   19  C13 UNL     1      28.745  87.139  -0.215  1.00  0.00     0.017 A
HETATM   20  C14 UNL     1      27.885  87.588  -1.152  1.00  0.00     0.028 A
HETATM   21  C15 UNL     1      26.574  87.211  -1.025  1.00  0.00     0.051 A
HETATM   22 BR1  UNL     1      25.117  87.684  -2.198  1.00  0.00    -0.043 Br
HETATM   23  S2  UNL     1      26.576  86.252   0.381  1.00  0.00    -0.087 SA
ENDBRANCH  17  18
ENDBRANCH  16  17
ENDBRANCH  14  16
ENDBRANCH   1  14
TORSDOF 11
ENDMDL