MODEL 4
REMARK VINA RESULT: -7.939418686      1.500      2.767
REMARK  11 active torsions:
REMARK  status: ('A' for Active; 'I' for Inactive)
REMARK    1  A    between atoms: C2_2  and  N1_3
REMARK    2  A    between atoms: N1_3  and  C3_4
REMARK    3  A    between atoms: N1_3  and  C13_17
REMARK    4  A    between atoms: C3_4  and  C4_5
REMARK    5  A    between atoms: C4_5  and  N2_6
REMARK    6  A    between atoms: N2_6  and  C5_9
REMARK    7  A    between atoms: C13_17  and  N3_19
REMARK    8  A    between atoms: N3_19  and  C14_21
REMARK    9  A    between atoms: C14_21  and  C15_22
REMARK   10  A    between atoms: C15_22  and  C16_23
REMARK   11  A    between atoms: C16_23  and  N4_24
ROOT
HETATM    1  N1  UNL     1      34.189  82.469  -0.482  1.00  0.00    -0.357 N
ENDROOT
BRANCH   1   2
HETATM    2  C2  UNL     1      35.029  82.965  -1.567  1.00  0.00     0.120 C
HETATM    3  C1  UNL     1      34.376  84.146  -2.282  1.00  0.00     0.026 C
ENDBRANCH   1   2
BRANCH   1   4
HETATM    4  C3  UNL     1      34.147  81.099  -0.115  1.00  0.00     0.152 C
BRANCH   4   5
HETATM    5  C4  UNL     1      35.334  80.293  -0.518  1.00  0.00     0.253 C
BRANCH   5   6
HETATM    6  N2  UNL     1      35.105  78.892  -0.611  1.00  0.00    -0.065 N
ATOM      7  H22 UNL     1      35.903  78.394  -1.006  1.00  0.00     0.278 HD
ATOM      8  H21 UNL     1      35.092  78.440   0.304  1.00  0.00     0.278 HD
BRANCH   6   9
HETATM    9  C5  UNL     1      33.863  78.651  -1.372  1.00  0.00     0.218 C
HETATM   10  C6  UNL     1      33.013  77.694  -0.553  1.00  0.00    -0.057 C
HETATM   11  C7  UNL     1      32.829  77.995   0.909  1.00  0.00     0.045 C
HETATM   12  C8  UNL     1      32.445  76.624  -1.042  1.00  0.00    -0.022 C
HETATM   13  C9  UNL     1      32.574  76.218  -2.488  1.00  0.00     0.028 C
HETATM   14  C10 UNL     1      32.858  77.502  -3.253  1.00  0.00     0.010 C
HETATM   15  C11 UNL     1      34.179  78.052  -2.704  1.00  0.00     0.016 C
HETATM   16  C12 UNL     1      34.768  79.061  -3.635  1.00  0.00     0.012 C
ENDBRANCH   6   9
ENDBRANCH   5   6
ENDBRANCH   4   5
ENDBRANCH   1   4
BRANCH   1  17
HETATM   17  C13 UNL     1      33.404  83.420   0.278  1.00  0.00     0.169 C
HETATM   18  S1  UNL     1      34.136  84.284   1.476  1.00  0.00    -0.041 SA
BRANCH  17  19
HETATM   19  N3  UNL     1      32.047  83.606  -0.003  1.00  0.00    -0.367 N
ATOM     20  H3  UNL     1      31.585  83.166  -0.798  1.00  0.00     0.161 HD
BRANCH  19  21
HETATM   21  C14 UNL     1      31.332  84.498   0.951  1.00  0.00     0.123 C
BRANCH  21  22
HETATM   22  C15 UNL     1      30.490  85.428   0.171  1.00  0.00     0.050 C
BRANCH  22  23
HETATM   23  C16 UNL     1      29.376  86.120   0.882  1.00  0.00     0.274 C
BRANCH  23  24
HETATM   24  N4  UNL     1      28.219  86.284   0.069  1.00  0.00     0.088 N
HETATM   25  C17 UNL     1      28.349  87.574  -0.704  1.00  0.00     0.272 C
HETATM   26  C18 UNL     1      27.063  87.702  -1.459  1.00  0.00     0.030 C
HETATM   27  C19 UNL     1      26.260  86.415  -1.486  1.00  0.00     0.003 C
HETATM   28  C20 UNL     1      25.900  85.922  -0.100  1.00  0.00     0.030 C
HETATM   29  C21 UNL     1      26.968  86.470   0.822  1.00  0.00     0.272 C
ENDBRANCH  23  24
ENDBRANCH  22  23
ENDBRANCH  21  22
ENDBRANCH  19  21
ENDBRANCH  17  19
ENDBRANCH   1  17
TORSDOF 11
ENDMDL