MODEL 2
REMARK VINA RESULT: -4.573324657      2.027      2.590
REMARK  1 active torsions:
REMARK  status: ('A' for Active; 'I' for Inactive)
REMARK    1  A    between atoms: C2_2  and  C3_4
ROOT
HETATM    1  C3  UNL     1      17.955  -7.435  12.118  1.00  0.00     0.200 C
HETATM    2  C4  UNL     1      17.807  -8.820  11.632  1.00  0.00     0.034 C
HETATM    3  C5  UNL     1      16.782  -9.061  10.592  1.00  0.00     0.004 C
HETATM    4  C6  UNL     1      15.681  -8.074  10.517  1.00  0.00     0.027 C
HETATM    5  C7  UNL     1      16.236  -6.682  10.697  1.00  0.00     0.232 C
HETATM    6  N1  UNL     1      16.772  -6.622  12.031  1.00  0.00    -0.070 N
ATOM      7  H11 UNL     1      16.943  -5.663  12.333  1.00  0.00     0.277 HD
ATOM      8  H12 UNL     1      16.079  -6.876  12.735  1.00  0.00     0.277 HD
ENDROOT
BRANCH   1   9
HETATM    9  C2  UNL     1      19.089  -6.665  11.479  1.00  0.00     0.085 C
HETATM   10  C1  UNL     1      19.277  -5.419  12.349  1.00  0.00     0.024 C
HETATM   11  S1  UNL     1      20.647  -7.569  11.526  1.00  0.00    -0.091 SA
ENDBRANCH   1   9
TORSDOF 1
ENDMDL