MODEL 4
REMARK VINA RESULT: -5.044767845      0.951      1.507
REMARK  2 active torsions:
REMARK  status: ('A' for Active; 'I' for Inactive)
REMARK    1  A    between atoms: C2_2  and  N1_4
REMARK    2  A    between atoms: N1_4  and  C4_6
ROOT
HETATM    1  C4  UNL     1      17.581  -8.939  11.548  1.00  0.00     0.280 C
HETATM    2  C5  UNL     1      17.412 -10.260  10.898  1.00  0.00     0.054 C
HETATM    3  C6  UNL     1      16.091 -10.257  10.156  1.00  0.00     0.005 C
HETATM    4  C7  UNL     1      15.048  -9.427  10.854  1.00  0.00     0.028 C
HETATM    5  C8  UNL     1      15.499  -8.015  11.108  1.00  0.00     0.235 C
HETATM    6  N2  UNL     1      16.920  -7.908  10.766  1.00  0.00    -0.055 N
ATOM      7  H21 UNL     1      17.109  -7.966   9.765  1.00  0.00     0.279 HD
ATOM      8  H22 UNL     1      17.308  -6.974  10.905  1.00  0.00     0.279 HD
ENDROOT
BRANCH   1   9
HETATM    9  N1  UNL     1      18.875  -8.525  11.874  1.00  0.00    -0.392 N
ATOM     10  H1  UNL     1      19.558  -9.220  12.176  1.00  0.00     0.155 HD
BRANCH   9  11
HETATM   11  C2  UNL     1      19.258  -7.178  11.797  1.00  0.00     0.070 C
HETATM   12  C1  UNL     1      19.221  -6.366  13.048  1.00  0.00     0.031 C
HETATM   13  C3  UNL     1      20.750  -7.217  11.393  1.00  0.00     0.031 C
ENDBRANCH   9  11
ENDBRANCH   1   9
TORSDOF 2
ENDMDL