MODEL 1
REMARK VINA RESULT: -5.225068466      0.000      0.000
REMARK  1 active torsions:
REMARK  status: ('A' for Active; 'I' for Inactive)
REMARK    1  A    between atoms: C2_2  and  C3_3
ROOT
HETATM    1  C3  UNL     1      15.954  -8.585  11.125  1.00  0.00     0.203 C
HETATM    2  C4  UNL     1      15.705  -7.125  10.946  1.00  0.00     0.146 C
HETATM    3  N1  UNL     1      16.703  -6.255  11.435  1.00  0.00    -0.417 N
ATOM      4  H1  UNL     1      16.483  -5.366  11.884  1.00  0.00     0.153 HD
HETATM    5  C5  UNL     1      18.060  -6.717  11.253  1.00  0.00     0.146 C
HETATM    6  C6  UNL     1      18.115  -8.110  11.894  1.00  0.00     0.199 C
HETATM    7  C7  UNL     1      19.554  -8.531  12.004  1.00  0.00     0.041 C
HETATM    8  N2  UNL     1      17.344  -8.962  11.016  1.00  0.00    -0.064 N
ATOM      9  H21 UNL     1      17.682  -8.943  10.053  1.00  0.00     0.278 HD
ATOM     10  H22 UNL     1      17.498  -9.954  11.196  1.00  0.00     0.278 HD
ENDROOT
BRANCH   1  11
HETATM   11  C2  UNL     1      15.144  -9.317  10.071  1.00  0.00     0.030 C
HETATM   12  C1  UNL     1      15.900 -10.470   9.472  1.00  0.00     0.007 C
ENDBRANCH   1  11
TORSDOF 1
ENDMDL