MODEL 3
REMARK VINA RESULT: -4.693013288      1.235      1.587
REMARK  1 active torsions:
REMARK  status: ('A' for Active; 'I' for Inactive)
REMARK    1  A    between atoms: C1_2  and  C2_3
ROOT
HETATM    1  C2  UNL     1      15.918  -8.588  11.226  1.00  0.00     0.034 C
HETATM    2  C3  UNL     1      17.349  -8.925  10.829  1.00  0.00     0.016 C
HETATM    3  C4  UNL     1      18.179  -8.184  11.882  1.00  0.00     0.045 C
HETATM    4  C5  UNL     1      17.924  -6.735  11.847  1.00  0.00     0.060 C
HETATM    5  N1  UNL     1      16.745  -6.269  11.274  1.00  0.00    -0.382 N
ATOM      6  H1  UNL     1      16.626  -5.268  11.122  1.00  0.00     0.164 HD
HETATM    7  C6  UNL     1      15.721  -7.142  10.903  1.00  0.00     0.065 C
ENDROOT
BRANCH   1   8
HETATM    8  C1  UNL     1      14.922  -9.433  10.468  1.00  0.00     0.096 C
HETATM    9  S1  UNL     1      15.884 -10.667   9.530  1.00  0.00    -0.097 SA
ENDBRANCH   1   8
TORSDOF 1
ENDMDL