MODEL 3
REMARK VINA RESULT: -4.748896306      1.663      4.185
REMARK  2 active torsions:
REMARK  status: ('A' for Active; 'I' for Inactive)
REMARK    1  A    between atoms: C2_2  and  N1_5
REMARK    2  A    between atoms: N1_5  and  C5_7
ROOT
HETATM    1  C5  UNL     1      17.232  -8.104  11.492  1.00  0.00     0.104 C
HETATM    2  C6  UNL     1      18.720  -8.192  11.901  1.00  0.00     0.054 C
HETATM    3  C7  UNL     1      19.112  -6.823  12.340  1.00  0.00     0.234 C
HETATM    4  N2  UNL     1      17.952  -5.976  12.230  1.00  0.00    -0.073 N
ATOM      5  H21 UNL     1      18.178  -5.034  11.912  1.00  0.00     0.277 HD
ATOM      6  H22 UNL     1      17.560  -5.720  13.137  1.00  0.00     0.277 HD
HETATM    7  C8  UNL     1      16.995  -6.649  11.369  1.00  0.00     0.256 C
ENDROOT
BRANCH   1   8
HETATM    8  N1  UNL     1      17.133  -8.811  10.267  1.00  0.00    -0.408 N
ATOM      9  H1  UNL     1      17.505  -8.421   9.402  1.00  0.00     0.154 HD
BRANCH   8  10
HETATM   10  C2  UNL     1      16.495 -10.088  10.289  1.00  0.00     0.015 C
HETATM   11  C1  UNL     1      17.247 -11.179  10.987  1.00  0.00     0.037 C
HETATM   12  C3  UNL     1      16.254 -10.603   8.865  1.00  0.00     0.037 C
HETATM   13  C4  UNL     1      15.133  -9.951  10.916  1.00  0.00     0.037 C
ENDBRANCH   8  10
ENDBRANCH   1   8
TORSDOF 2
ENDMDL