MODEL 2
REMARK VINA RESULT: -4.419241147      2.389      3.807
REMARK  1 active torsions:
REMARK  status: ('A' for Active; 'I' for Inactive)
REMARK    1  A    between atoms: C2_2  and  C3_3
ROOT
HETATM    1  C3  UNL     1      22.306  -0.966  12.461  1.00  0.00     0.384 C
HETATM    2  N1  UNL     1      23.105  -0.219  11.550  1.00  0.00    -0.039 N
ATOM      3  H11 UNL     1      24.043  -0.039  11.910  1.00  0.00     0.280 HD
ATOM      4  H12 UNL     1      22.797   0.750  11.466  1.00  0.00     0.280 HD
HETATM    5  C4  UNL     1      23.124  -0.900  10.288  1.00  0.00     0.229 C
HETATM    6  C5  UNL     1      22.136  -0.235   9.349  1.00  0.00     0.043 C
HETATM    7  C6  UNL     1      22.665  -2.313  10.624  1.00  0.00     0.324 C
HETATM    8  C7  UNL     1      23.801  -3.179  10.901  1.00  0.00     0.095 C
HETATM    9  N2  UNL     1      24.717  -3.879  11.105  1.00  0.00    -0.195 NA
HETATM   10  N3  UNL     1      21.817  -2.134  11.782  1.00  0.00    -0.028 N
ATOM     11  H31 UNL     1      20.824  -2.084  11.553  1.00  0.00     0.281 HD
ATOM     12  H32 UNL     1      21.767  -2.960  12.379  1.00  0.00     0.281 HD
ENDROOT
BRANCH   1  13
HETATM   13  C2  UNL     1      23.066  -1.423  13.688  1.00  0.00     0.058 C
HETATM   14  C1  UNL     1      24.347  -0.628  13.833  1.00  0.00     0.009 C
ENDBRANCH   1  13
TORSDOF 1
ENDMDL