MODEL 1
REMARK VINA RESULT: -5.971297766      0.000      0.000
REMARK  1 active torsions:
REMARK  status: ('A' for Active; 'I' for Inactive)
REMARK    1  A    between atoms: C4_4  and  C5_5
ROOT
HETATM    1  C1  UNL     1      16.647  -6.144  11.400  1.00  0.00     0.029 C
HETATM    2  C2  UNL     1      15.805  -7.370  11.286  1.00  0.00     0.092 C
HETATM    3  C3  UNL     1      16.652  -8.651  11.228  1.00  0.00     0.045 C
HETATM    4  C4  UNL     1      15.560  -9.600  10.757  1.00  0.00     0.100 C
HETATM    5  N1  UNL     1      14.942  -8.816   9.737  1.00  0.00    -0.143 NA
HETATM    6  N2  UNL     1      15.070  -7.476  10.064  1.00  0.00    -0.143 NA
ENDROOT
BRANCH   4   7
HETATM    7  C5  UNL     1      16.206 -10.856  10.285  1.00  0.00    -0.002 C
HETATM    8  C6  UNL     1      17.537 -11.116  10.928  1.00  0.00     0.011 C
HETATM    9  C7  UNL     1      16.426 -10.714   8.774  1.00  0.00     0.011 C
ENDBRANCH   4   7
TORSDOF 1
ENDMDL