MODEL 4
REMARK VINA RESULT: -3.839056802      9.856     10.190
REMARK  1 active torsions:
REMARK  status: ('A' for Active; 'I' for Inactive)
REMARK    1  A    between atoms: N1_2  and  C2_5
ROOT
HETATM    1  C2  UNL     1      22.524  -2.239   9.765  1.00  0.00     0.204 C
HETATM    2  C3  UNL     1      21.664  -1.582   8.694  1.00  0.00     0.036 C
HETATM    3  C4  UNL     1      22.086  -0.222   9.235  1.00  0.00     0.025 C
HETATM    4  C5  UNL     1      22.469  -0.955  10.512  1.00  0.00     0.043 C
HETATM    5  C6  UNL     1      21.287  -0.953  11.476  1.00  0.00     0.030 C
HETATM    6  S1  UNL     1      23.965  -0.340  11.265  1.00  0.00    -0.085 SA
ENDROOT
BRANCH   1   7
HETATM    7  N1  UNL     1      23.795  -2.729   9.335  1.00  0.00    -0.073 N
HETATM    8  C1  UNL     1      24.026  -4.016   9.991  1.00  0.00     0.267 C
ATOM      9  H12 UNL     1      24.550  -2.063   9.496  1.00  0.00     0.277 HD
ATOM     10  H11 UNL     1      23.874  -2.782   8.320  1.00  0.00     0.277 HD
ENDBRANCH   1   7
TORSDOF 1
ENDMDL