MODEL 1
REMARK VINA RESULT: -5.052263533      0.000      0.000
REMARK  1 active torsions:
REMARK  status: ('A' for Active; 'I' for Inactive)
REMARK    1  A    between atoms: C4_4  and  N1_5
ROOT
HETATM    1  N1  UNL     1      17.930  -6.808  11.098  1.00  0.00    -0.384 N
ATOM      2  H1  UNL     1      18.227  -6.641  10.137  1.00  0.00     0.160 HD
HETATM    3  C5  UNL     1      18.646  -6.466  12.092  1.00  0.00     0.166 C
HETATM    4  S1  UNL     1      19.462  -5.970  13.415  1.00  0.00    -0.075 SA
ENDROOT
BRANCH   1   5
HETATM    5  C4  UNL     1      16.653  -7.456  11.410  1.00  0.00     0.109 C
HETATM    6  C3  UNL     1      16.859  -8.934  11.144  1.00  0.00     0.059 C
HETATM    7  C2  UNL     1      16.083  -9.121   9.841  1.00  0.00     0.184 C
HETATM    8  C1  UNL     1      15.654 -10.571   9.807  1.00  0.00     0.040 C
HETATM    9  N2  UNL     1      14.960  -8.235  10.047  1.00  0.00    -0.069 N
HETATM   10  C6  UNL     1      15.538  -6.993  10.543  1.00  0.00     0.257 C
ATOM     11  H22 UNL     1      14.374  -8.115   9.221  1.00  0.00     0.277 HD
ATOM     12  H21 UNL     1      14.236  -8.622  10.651  1.00  0.00     0.277 HD
ENDBRANCH   1   5
TORSDOF 1
ENDMDL