MODEL 4
REMARK VINA RESULT: -4.752356343      1.058      1.236
REMARK  2 active torsions:
REMARK  status: ('A' for Active; 'I' for Inactive)
REMARK    1  A    between atoms: C2_2  and  O1_3
REMARK    2  A    between atoms: O1_3  and  C3_4
ROOT
HETATM    1  C3  UNL     1      17.992  -9.715  10.943  1.00  0.00     0.124 C
HETATM    2  C4  UNL     1      17.502  -8.498  11.696  1.00  0.00     0.059 C
HETATM    3  C5  UNL     1      16.732  -7.642  10.747  1.00  0.00     0.235 C
HETATM    4  N1  UNL     1      16.058  -8.377   9.719  1.00  0.00    -0.071 N
ATOM      5  H11 UNL     1      16.627  -8.412   8.873  1.00  0.00     0.277 HD
ATOM      6  H12 UNL     1      15.258  -7.850   9.368  1.00  0.00     0.277 HD
HETATM    7  C6  UNL     1      15.658  -9.701  10.113  1.00  0.00     0.184 C
HETATM    8  C7  UNL     1      14.587  -9.686  11.184  1.00  0.00     0.040 C
HETATM    9  C8  UNL     1      16.826 -10.580  10.503  1.00  0.00     0.064 C
ENDROOT
BRANCH   1  10
HETATM   10  O1  UNL     1      18.936 -10.430  11.652  1.00  0.00    -0.386 OA
BRANCH  10  11
HETATM   11  C2  UNL     1      20.019  -9.597  11.907  1.00  0.00     0.163 C
HETATM   12  C1  UNL     1      21.340 -10.313  11.762  1.00  0.00     0.033 C
ENDBRANCH  10  11
ENDBRANCH   1  10
TORSDOF 2
ENDMDL