MODEL 4
REMARK VINA RESULT: -5.728075037      1.256      5.254
REMARK  3 active torsions:
REMARK  status: ('A' for Active; 'I' for Inactive)
REMARK    1  A    between atoms: C3_7  and  N3_8
REMARK    2  A    between atoms: N3_8  and  C4_10
REMARK    3  A    between atoms: C4_10  and  C5_11
ROOT
HETATM    1  C4  UNL     1     -29.647   9.121 -25.657  1.00  0.00     0.199 C
ENDROOT
BRANCH   1   2
HETATM    2  N3  UNL     1     -28.735   7.999 -25.613  1.00  0.00    -0.381 N
ATOM      3  H3  UNL     1     -27.739   8.194 -25.506  1.00  0.00     0.160 HD
BRANCH   2   4
HETATM    4  C3  UNL     1     -29.138   6.661 -25.708  1.00  0.00     0.062 A
HETATM    5  C1  UNL     1     -30.257   6.201 -26.364  1.00  0.00     0.137 A
HETATM    6  N1  UNL     1     -30.291   4.862 -26.233  1.00  0.00    -0.310 N
HETATM    7  N2  UNL     1     -29.260   4.441 -25.532  1.00  0.00    -0.310 N
ATOM      8  H1  UNL     1     -31.015   4.258 -26.623  1.00  0.00     0.186 HD
HETATM    9  C2  UNL     1     -28.548   5.512 -25.203  1.00  0.00     0.137 A
ATOM     10  H2  UNL     1     -29.049   3.474 -25.287  1.00  0.00     0.186 HD
ENDBRANCH   2   4
ENDBRANCH   1   2
BRANCH   1  11
HETATM   11  C5  UNL     1     -28.835  10.377 -25.458  1.00  0.00     0.131 A
HETATM   12  N4  UNL     1     -28.040  10.968 -26.368  1.00  0.00    -0.271 N
HETATM   13  N5  UNL     1     -27.529  12.035 -25.783  1.00  0.00    -0.227 N
ATOM     14  H4  UNL     1     -27.866  10.653 -27.323  1.00  0.00     0.190 HD
HETATM   15  N6  UNL     1     -27.949  12.165 -24.548  1.00  0.00    -0.227 N
ATOM     16  H5  UNL     1     -26.883  12.681 -26.237  1.00  0.00     0.210 HD
HETATM   17  N7  UNL     1     -28.755  11.139 -24.352  1.00  0.00    -0.271 N
ATOM     18  H6  UNL     1     -27.706  12.899 -23.883  1.00  0.00     0.210 HD
ATOM     19  H7  UNL     1     -29.249  10.950 -23.480  1.00  0.00     0.190 HD
ENDBRANCH   1  11
TORSDOF 3
ENDMDL