MODEL 1
REMARK VINA RESULT: -5.472025296      0.000      0.000
REMARK  4 active torsions:
REMARK  status: ('A' for Active; 'I' for Inactive)
REMARK    1  A    between atoms: C3_3  and  C4_4
REMARK    2  A    between atoms: C4_4  and  N1_5
REMARK    3  A    between atoms: N1_5  and  N2_6
REMARK    4  A    between atoms: N2_6  and  C5_8
ROOT
HETATM    1  N1  UNL     1     -28.481   6.192 -26.725  1.00  0.00    -0.133 NA
ENDROOT
BRANCH   1   2
HETATM    2  C4  UNL     1     -29.407   7.039 -26.024  1.00  0.00     0.193 C
BRANCH   2   3
HETATM    3  C3  UNL     1     -30.717   6.983 -26.679  1.00  0.00     0.043 A
HETATM    4  C2  UNL     1     -31.423   8.176 -26.907  1.00  0.00     0.046 A
HETATM    5  C1  UNL     1     -32.613   7.823 -27.481  1.00  0.00     0.109 A
HETATM    6  N6  UNL     1     -32.616   6.472 -27.592  1.00  0.00    -0.312 N
HETATM    7  N5  UNL     1     -31.465   6.015 -27.100  1.00  0.00    -0.304 N
ATOM      8  H6  UNL     1     -33.368   5.904 -27.983  1.00  0.00     0.186 HD
ATOM      9  H5  UNL     1     -31.208   5.029 -27.061  1.00  0.00     0.186 HD
ENDBRANCH   2   3
ENDBRANCH   1   2
BRANCH   1  10
HETATM   10  N2  UNL     1     -28.080   5.107 -26.039  1.00  0.00    -0.275 N
ATOM     11  H2  UNL     1     -27.074   5.013 -25.905  1.00  0.00     0.185 HD
BRANCH  10  12
HETATM   12  C5  UNL     1     -28.872   4.086 -25.483  1.00  0.00     0.189 A
HETATM   13  N3  UNL     1     -29.036   2.804 -25.802  1.00  0.00    -0.345 N
HETATM   14  C6  UNL     1     -29.985   2.522 -24.762  1.00  0.00     0.249 A
ATOM     15  H3  UNL     1     -28.628   2.223 -26.533  1.00  0.00     0.164 HD
HETATM   16  N4  UNL     1     -29.786   3.910 -24.419  1.00  0.00    -0.345 N
ATOM     17  H4  UNL     1     -30.158   4.523 -23.694  1.00  0.00     0.164 HD
ENDBRANCH  10  12
ENDBRANCH   1  10
TORSDOF 4
ENDMDL