MODEL 4
REMARK VINA RESULT: -5.971467025      0.864      3.137
REMARK  3 active torsions:
REMARK  status: ('A' for Active; 'I' for Inactive)
REMARK    1  A    between atoms: N1_1  and  N2_4
REMARK    2  A    between atoms: N2_4  and  C1_5
REMARK    3  A    between atoms: C1_5  and  C2_6
ROOT
HETATM    1  C2  UNL     1     -29.836   8.247 -25.917  1.00  0.00    -0.023 A
HETATM    2  C3  UNL     1     -28.777   7.400 -25.713  1.00  0.00     0.054 A
HETATM    3  C4  UNL     1     -28.809   6.078 -26.088  1.00  0.00     0.118 A
HETATM    4  N3  UNL     1     -27.687   5.210 -25.863  1.00  0.00    -0.083 NA
HETATM    5  N4  UNL     1     -29.925   5.613 -26.673  1.00  0.00    -0.329 N
ATOM      6  H4  UNL     1     -29.966   4.634 -26.956  1.00  0.00     0.168 HD
HETATM    7  C5  UNL     1     -30.990   6.403 -26.895  1.00  0.00     0.133 A
HETATM    8  N5  UNL     1     -32.210   6.166 -27.461  1.00  0.00    -0.285 N
ATOM      9  H5  UNL     1     -32.537   5.276 -27.839  1.00  0.00     0.188 HD
HETATM   10  N6  UNL     1     -32.891   7.299 -27.432  1.00  0.00    -0.309 N
ATOM     11  H6  UNL     1     -33.839   7.412 -27.791  1.00  0.00     0.186 HD
HETATM   12  C6  UNL     1     -32.176   8.272 -26.873  1.00  0.00     0.123 A
HETATM   13  C7  UNL     1     -30.966   7.729 -26.524  1.00  0.00     0.034 A
ENDROOT
BRANCH   1  14
HETATM   14  C1  UNL     1     -29.851   9.670 -25.537  1.00  0.00     0.173 C
BRANCH  14  15
HETATM   15  N2  UNL     1     -29.858   9.804 -24.088  1.00  0.00    -0.144 NA
BRANCH  15  16
HETATM   16  N1  UNL     1     -28.956  10.795 -23.693  1.00  0.00    -0.348 N
ATOM     17  H12 UNL     1     -28.336  11.291 -24.332  1.00  0.00     0.172 HD
ATOM     18  H11 UNL     1     -29.014  10.941 -22.685  1.00  0.00     0.172 HD
ENDBRANCH  15  16
ENDBRANCH  14  15
ENDBRANCH   1  14
TORSDOF 3
ENDMDL