MODEL 1
REMARK VINA RESULT: -5.549272269      0.000      0.000
REMARK  4 active torsions:
REMARK  status: ('A' for Active; 'I' for Inactive)
REMARK    1  A    between atoms: N1_1  and  N2_4
REMARK    2  A    between atoms: N2_4  and  N3_5
REMARK    3  A    between atoms: N2_4  and  C1_8
REMARK    4  A    between atoms: C3_12  and  C4_13
ROOT
HETATM    1  C1  UNL     1     -30.300   6.313 -26.328  1.00  0.00     0.161 A
HETATM    2  C2  UNL     1     -30.191   7.657 -26.067  1.00  0.00     0.141 A
HETATM    3  N4  UNL     1     -31.253   8.222 -26.653  1.00  0.00    -0.348 N
ATOM      4  H4  UNL     1     -31.461   9.221 -26.639  1.00  0.00     0.166 HD
HETATM    5  C3  UNL     1     -32.016   7.281 -27.268  1.00  0.00     0.140 A
HETATM    6  N6  UNL     1     -31.417   6.101 -27.063  1.00  0.00    -0.325 N
ATOM      7  H6  UNL     1     -31.746   5.198 -27.402  1.00  0.00     0.169 HD
ENDROOT
BRANCH   1   8
HETATM    8  N2  UNL     1     -29.348   5.358 -25.866  1.00  0.00    -0.192 N
BRANCH   8   9
HETATM    9  N1  UNL     1     -28.022   5.520 -26.278  1.00  0.00    -0.323 N
ATOM     10  H12 UNL     1     -27.553   4.709 -26.683  1.00  0.00     0.179 HD
ATOM     11  H11 UNL     1     -27.535   6.411 -26.185  1.00  0.00     0.179 HD
ENDBRANCH   8   9
BRANCH   8  12
HETATM   12  N3  UNL     1     -29.730   4.324 -25.040  1.00  0.00    -0.323 N
ATOM     13  H32 UNL     1     -29.918   3.395 -25.419  1.00  0.00     0.179 HD
ATOM     14  H31 UNL     1     -29.842   4.452 -24.034  1.00  0.00     0.179 HD
ENDBRANCH   8  12
ENDBRANCH   1   8
BRANCH   5  15
HETATM   15  C4  UNL     1     -33.273   7.556 -28.007  1.00  0.00     0.393 C
HETATM   16  N5  UNL     1     -34.030   6.421 -28.426  1.00  0.00    -0.021 N
HETATM   17  C5  UNL     1     -35.171   7.175 -27.951  1.00  0.00     0.406 C
ATOM     18  H52 UNL     1     -33.978   6.051 -29.375  1.00  0.00     0.283 HD
ATOM     19  H51 UNL     1     -33.825   5.478 -28.098  1.00  0.00     0.283 HD
HETATM   20  O1  UNL     1     -34.312   7.826 -27.083  1.00  0.00    -0.326 OA
ENDBRANCH   5  15
TORSDOF 4
ENDMDL