MODEL 2
REMARK VINA RESULT: -6.191463420      1.797      2.247
REMARK  4 active torsions:
REMARK  status: ('A' for Active; 'I' for Inactive)
REMARK    1  A    between atoms: N1_1  and  C1_4
REMARK    2  A    between atoms: C3_6  and  C4_7
REMARK    3  A    between atoms: C4_7  and  N2_8
REMARK    4  A    between atoms: N2_8  and  C5_10
ROOT
HETATM    1  C1  UNL     1     -29.190   4.884 -25.750  1.00  0.00     0.115 A
HETATM    2  C2  UNL     1     -30.249   5.770 -25.794  1.00  0.00     0.077 A
HETATM    3  C3  UNL     1     -29.701   6.994 -26.145  1.00  0.00     0.047 A
HETATM    4  N5  UNL     1     -28.382   6.792 -26.290  1.00  0.00    -0.302 N
ATOM      5  H5  UNL     1     -27.718   7.522 -26.547  1.00  0.00     0.186 HD
HETATM    6  N6  UNL     1     -28.048   5.535 -26.059  1.00  0.00    -0.286 N
ATOM      7  H6  UNL     1     -27.111   5.135 -26.104  1.00  0.00     0.188 HD
ENDROOT
BRANCH   3   8
HETATM    8  C4  UNL     1     -30.468   8.262 -26.315  1.00  0.00     0.180 C
BRANCH   8   9
HETATM    9  N2  UNL     1     -30.262   9.140 -25.187  1.00  0.00    -0.362 N
ATOM     10  H2  UNL     1     -30.812   8.985 -24.342  1.00  0.00     0.162 HD
BRANCH   9  11
HETATM   11  C5  UNL     1     -29.328  10.210 -25.200  1.00  0.00     0.185 A
HETATM   12  C6  UNL     1     -28.493  10.619 -26.217  1.00  0.00     0.167 A
HETATM   13  N3  UNL     1     -27.765  11.685 -25.800  1.00  0.00    -0.288 N
HETATM   14  N4  UNL     1     -28.167  11.895 -24.562  1.00  0.00    -0.200 N
ATOM     15  H3  UNL     1     -27.064  12.206 -26.326  1.00  0.00     0.188 HD
HETATM   16  O1  UNL     1     -29.068  11.050 -24.207  1.00  0.00    -0.203 OA
ATOM     17  H4  UNL     1     -27.809  12.636 -23.961  1.00  0.00     0.216 HD
ENDBRANCH   9  11
ENDBRANCH   8   9
ENDBRANCH   3   8
BRANCH   1  18
HETATM   18  N1  UNL     1     -29.324   3.620 -25.451  1.00  0.00    -0.384 N
ATOM     19  H12 UNL     1     -28.589   2.965 -25.190  1.00  0.00     0.157 HD
ATOM     20  H11 UNL     1     -30.223   3.138 -25.448  1.00  0.00     0.157 HD
ENDBRANCH   1  18
TORSDOF 4
ENDMDL