MODEL 5
REMARK VINA RESULT: -5.009799883      1.847      3.307
REMARK  5 active torsions:
REMARK  status: ('A' for Active; 'I' for Inactive)
REMARK    1  A    between atoms: N1_1  and  C1_4
REMARK    2  A    between atoms: C2_9  and  C3_10
REMARK    3  A    between atoms: C3_10  and  C4_11
REMARK    4  A    between atoms: C4_11  and  C5_12
REMARK    5  A    between atoms: C5_12  and  N4_13
ROOT
HETATM    1  C1  UNL     1     -32.449   6.789 -27.471  1.00  0.00     0.691 A
HETATM    2  N2  UNL     1     -32.296   8.098 -27.206  1.00  0.00    -0.132 N
ATOM      3  H2  UNL     1     -33.016   8.754 -27.509  1.00  0.00     0.205 HD
HETATM    4  N3  UNL     1     -31.235   8.556 -26.563  1.00  0.00    -0.287 N
ATOM      5  H3  UNL     1     -31.157   9.558 -26.384  1.00  0.00     0.187 HD
HETATM    6  C2  UNL     1     -30.262   7.742 -26.140  1.00  0.00     0.068 A
HETATM    7  C6  UNL     1     -30.366   6.377 -26.384  1.00  0.00     0.155 A
HETATM    8  N5  UNL     1     -29.377   5.464 -25.961  1.00  0.00    -0.080 NA
HETATM    9  N6  UNL     1     -31.472   5.971 -27.047  1.00  0.00    -0.176 N
ATOM     10  H6  UNL     1     -31.571   4.974 -27.239  1.00  0.00     0.185 HD
ENDROOT
BRANCH   6  11
HETATM   11  C3  UNL     1     -29.090   8.297 -25.427  1.00  0.00     0.064 C
BRANCH  11  12
HETATM   12  C4  UNL     1     -29.415   9.650 -24.860  1.00  0.00     0.033 C
BRANCH  12  13
HETATM   13  C5  UNL     1     -29.387   9.634 -23.341  1.00  0.00     0.230 C
BRANCH  13  14
HETATM   14  N4  UNL     1     -30.527  10.355 -22.812  1.00  0.00    -0.079 N
ATOM     15  H43 UNL     1     -30.296  11.324 -22.592  1.00  0.00     0.274 HD
ATOM     16  H42 UNL     1     -31.234  10.527 -23.526  1.00  0.00     0.274 HD
ATOM     17  H41 UNL     1     -30.912   9.863 -22.005  1.00  0.00     0.274 HD
ENDBRANCH  13  14
ENDBRANCH  12  13
ENDBRANCH  11  12
ENDBRANCH   6  11
BRANCH   1  18
HETATM   18  N1  UNL     1     -33.495   6.317 -28.109  1.00  0.00    -0.233 N
ATOM     19  H12 UNL     1     -34.437   6.637 -27.881  1.00  0.00     0.174 HD
ATOM     20  H11 UNL     1     -33.415   5.620 -28.850  1.00  0.00     0.174 HD
ENDBRANCH   1  18
TORSDOF 5
ENDMDL