MODEL 3
REMARK VINA RESULT: -5.769531416      1.129      3.052
REMARK  4 active torsions:
REMARK  status: ('A' for Active; 'I' for Inactive)
REMARK    1  A    between atoms: N1_1  and  C1_4
REMARK    2  A    between atoms: C5_14  and  C6_15
REMARK    3  A    between atoms: C6_15  and  C7_16
REMARK    4  A    between atoms: C7_16  and  N5_17
ROOT
HETATM    1  C1  UNL     1     -29.249   5.730 -25.576  1.00  0.00     0.223 A
HETATM    2  N2  UNL     1     -30.347   5.421 -26.286  1.00  0.00    -0.306 N
ATOM      3  H2  UNL     1     -30.580   4.439 -26.440  1.00  0.00     0.171 HD
HETATM    4  C2  UNL     1     -31.140   6.364 -26.793  1.00  0.00     0.137 A
HETATM    5  N3  UNL     1     -32.268   6.320 -27.521  1.00  0.00    -0.285 N
ATOM      6  H3  UNL     1     -32.754   5.481 -27.838  1.00  0.00     0.188 HD
HETATM    7  N4  UNL     1     -32.627   7.572 -27.749  1.00  0.00    -0.309 N
ATOM      8  H4  UNL     1     -33.451   7.850 -28.280  1.00  0.00     0.186 HD
HETATM    9  C3  UNL     1     -31.758   8.430 -27.185  1.00  0.00     0.125 A
HETATM   10  C4  UNL     1     -30.778   7.691 -26.556  1.00  0.00     0.056 A
HETATM   11  C5  UNL     1     -29.644   7.996 -25.823  1.00  0.00     0.073 A
HETATM   12  O1  UNL     1     -28.950   6.994 -25.379  1.00  0.00    -0.283 OA
ENDROOT
BRANCH  11  13
HETATM   13  C6  UNL     1     -29.326   9.431 -25.613  1.00  0.00     0.093 C
BRANCH  13  14
HETATM   14  C7  UNL     1     -29.718   9.898 -24.236  1.00  0.00     0.236 C
BRANCH  14  15
HETATM   15  N5  UNL     1     -28.924   9.234 -23.225  1.00  0.00    -0.079 N
ATOM     16  H53 UNL     1     -28.565   8.338 -23.555  1.00  0.00     0.274 HD
ATOM     17  H52 UNL     1     -28.034   9.708 -23.071  1.00  0.00     0.274 HD
ATOM     18  H51 UNL     1     -29.454   9.133 -22.359  1.00  0.00     0.274 HD
ENDBRANCH  14  15
ENDBRANCH  13  14
ENDBRANCH  11  13
BRANCH   1  19
HETATM   19  N1  UNL     1     -28.479   4.789 -25.083  1.00  0.00    -0.365 N
ATOM     20  H12 UNL     1     -27.564   4.611 -25.497  1.00  0.00     0.159 HD
ATOM     21  H11 UNL     1     -28.783   4.229 -24.286  1.00  0.00     0.159 HD
ENDBRANCH   1  19
TORSDOF 4
ENDMDL