MODEL 4
REMARK VINA RESULT: -6.055656337      1.564      4.852
REMARK  5 active torsions:
REMARK  status: ('A' for Active; 'I' for Inactive)
REMARK    1  A    between atoms: N1_1  and  N2_4
REMARK    2  A    between atoms: N3_6  and  C1_8
REMARK    3  A    between atoms: C1_8  and  C2_9
REMARK    4  A    between atoms: C3_12  and  N5_13
REMARK    5  A    between atoms: C4_18  and  N7_19
ROOT
HETATM    1  C2  UNL     1     -29.615   8.255 -25.725  1.00  0.00     0.132 A
HETATM    2  N4  UNL     1     -28.635   7.343 -25.645  1.00  0.00    -0.178 N
ATOM      3  H4  UNL     1     -27.741   7.615 -25.237  1.00  0.00     0.185 HD
HETATM    4  C3  UNL     1     -28.793   6.071 -26.088  1.00  0.00     0.691 A
HETATM    5  N6  UNL     1     -29.959   5.677 -26.631  1.00  0.00    -0.023 N
ATOM      6  H6  UNL     1     -30.087   4.722 -26.967  1.00  0.00     0.203 HD
HETATM    7  C4  UNL     1     -30.951   6.581 -26.718  1.00  0.00     0.691 A
HETATM    8  N8  UNL     1     -30.777   7.859 -26.268  1.00  0.00    -0.178 N
ATOM      9  H8  UNL     1     -31.546   8.526 -26.345  1.00  0.00     0.185 HD
ENDROOT
BRANCH   1  10
HETATM   10  C1  UNL     1     -29.451   9.651 -25.241  1.00  0.00     0.218 C
BRANCH  10  11
HETATM   11  N3  UNL     1     -28.300  10.294 -25.800  1.00  0.00    -0.316 N
HETATM   12  N2  UNL     1     -28.094  11.505 -25.793  1.00  0.00    -0.253 N
ATOM     13  H2  UNL     1     -28.754  11.842 -26.493  1.00  0.00     0.207 HD
ATOM     14  H3  UNL     1     -27.596   9.700 -26.238  1.00  0.00     0.182 HD
BRANCH  12  15
HETATM   15  N1  UNL     1     -27.540  12.559 -25.422  1.00  0.00    -0.331 N
ATOM     16  H12 UNL     1     -26.591  12.214 -25.281  1.00  0.00     0.178 HD
ATOM     17  H11 UNL     1     -27.497  13.550 -25.184  1.00  0.00     0.178 HD
ENDBRANCH  12  15
ENDBRANCH  10  11
ENDBRANCH   1  10
BRANCH   4  18
HETATM   18  N5  UNL     1     -27.843   5.201 -26.006  1.00  0.00    -0.234 N
ATOM     19  H52 UNL     1     -27.191   5.133 -26.787  1.00  0.00     0.174 HD
ATOM     20  H51 UNL     1     -27.738   4.597 -25.190  1.00  0.00     0.174 HD
ENDBRANCH   4  18
BRANCH   7  21
HETATM   21  N7  UNL     1     -32.085   6.235 -27.236  1.00  0.00    -0.234 N
ATOM     22  H72 UNL     1     -32.122   5.925 -28.207  1.00  0.00     0.174 HD
ATOM     23  H71 UNL     1     -32.931   6.277 -26.667  1.00  0.00     0.174 HD
ENDBRANCH   7  21
TORSDOF 5
ENDMDL