MODEL 1
REMARK VINA RESULT: -5.216384141      0.000      0.000
REMARK  4 active torsions:
REMARK  status: ('A' for Active; 'I' for Inactive)
REMARK    1  A    between atoms: N1_1  and  C1_5
REMARK    2  A    between atoms: C1_5  and  C2_6
REMARK    3  A    between atoms: C2_6  and  S1_7
REMARK    4  A    between atoms: S1_7  and  C3_8
ROOT
HETATM    1  C3  UNL     1     -29.837   9.583 -25.356  1.00  0.00     0.125 A
HETATM    2  C4  UNL     1     -29.789   9.740 -23.968  1.00  0.00     0.145 A
HETATM    3  N2  UNL     1     -28.974  10.735 -23.637  1.00  0.00    -0.196 N
ATOM      4  H2  UNL     1     -28.754  11.062 -22.696  1.00  0.00     0.183 HD
HETATM    5  C5  UNL     1     -28.496  11.225 -24.799  1.00  0.00     0.716 A
HETATM    6  N3  UNL     1     -27.795  11.999 -25.622  1.00  0.00    -0.113 N
ATOM      7  H3  UNL     1     -27.147  12.779 -25.518  1.00  0.00     0.203 HD
HETATM    8  N4  UNL     1     -28.303  11.320 -26.634  1.00  0.00     0.016 NA
HETATM    9  N5  UNL     1     -29.015  10.530 -25.840  1.00  0.00    -0.061 N
ENDROOT
BRANCH   1  10
HETATM   10  S1  UNL     1     -30.740   8.381 -26.293  1.00  0.00    -0.107 SA
BRANCH  10  11
HETATM   11  C2  UNL     1     -30.062   6.744 -26.293  1.00  0.00     0.108 C
BRANCH  11  12
HETATM   12  C1  UNL     1     -28.590   6.775 -25.986  1.00  0.00     0.240 C
BRANCH  12  13
HETATM   13  N1  UNL     1     -27.948   5.517 -26.269  1.00  0.00    -0.079 N
ATOM     14  H13 UNL     1     -27.642   5.058 -25.411  1.00  0.00     0.274 HD
ATOM     15  H12 UNL     1     -28.622   4.824 -26.593  1.00  0.00     0.274 HD
ATOM     16  H11 UNL     1     -27.176   5.619 -26.928  1.00  0.00     0.274 HD
ENDBRANCH  12  13
ENDBRANCH  11  12
ENDBRANCH  10  11
ENDBRANCH   1  10
TORSDOF 4
ENDMDL