MODEL 2
REMARK VINA RESULT: -5.604750722      1.200      2.115
REMARK  6 active torsions:
REMARK  status: ('A' for Active; 'I' for Inactive)
REMARK    1  A    between atoms: N1_2  and  C3_4
REMARK    2  A    between atoms: C3_4  and  C4_5
REMARK    3  A    between atoms: C4_5  and  N2_6
REMARK    4  A    between atoms: N2_6  and  C5_8
REMARK    5  A    between atoms: C6_13  and  N5_14
REMARK    6  A    between atoms: C7_19  and  N7_20
ROOT
HETATM    1  C5  UNL     1      -6.135   9.429  14.962  1.00  0.00     0.161 A
HETATM    2  N3  UNL     1      -5.163   8.691  15.538  1.00  0.00    -0.268 N
ATOM      3  H3  UNL     1      -4.489   9.175  16.131  1.00  0.00     0.189 HD
HETATM    4  N4  UNL     1      -5.025   7.406  15.394  1.00  0.00    -0.131 N
ATOM      5  H4  UNL     1      -4.261   6.921  15.865  1.00  0.00     0.205 HD
HETATM    6  C6  UNL     1      -5.874   6.721  14.634  1.00  0.00     0.692 A
HETATM    7  N6  UNL     1      -6.874   7.387  14.022  1.00  0.00    -0.172 N
ATOM      8  H6  UNL     1      -7.532   6.873  13.436  1.00  0.00     0.186 HD
HETATM    9  C7  UNL     1      -7.022   8.735  14.172  1.00  0.00     0.160 A
ENDROOT
BRANCH   1  10
HETATM   10  N2  UNL     1      -6.223  10.823  15.173  1.00  0.00    -0.370 N
ATOM     11  H2  UNL     1      -6.765  11.144  15.976  1.00  0.00     0.161 HD
BRANCH  10  12
HETATM   12  C4  UNL     1      -5.605  11.827  14.340  1.00  0.00     0.151 C
BRANCH  12  13
HETATM   13  C3  UNL     1      -4.846  12.876  15.070  1.00  0.00     0.290 C
BRANCH  13  14
HETATM   14  N1  UNL     1      -5.097  14.214  14.652  1.00  0.00     0.081 N
HETATM   15  C1  UNL     1      -5.544  14.218  13.279  1.00  0.00     0.309 C
HETATM   16  C2  UNL     1      -4.055  15.146  14.904  1.00  0.00     0.309 C
ENDBRANCH  13  14
ENDBRANCH  12  13
ENDBRANCH  10  12
ENDBRANCH   1  10
BRANCH   9  17
HETATM   17  N7  UNL     1      -7.985   9.287  13.565  1.00  0.00    -0.382 N
ATOM     18  H72 UNL     1      -8.395  10.118  13.991  1.00  0.00     0.157 HD
ATOM     19  H71 UNL     1      -8.361   8.938  12.683  1.00  0.00     0.157 HD
ENDBRANCH   9  17
BRANCH   6  20
HETATM   20  N5  UNL     1      -5.783   5.455  14.457  1.00  0.00    -0.233 N
ATOM     21  H52 UNL     1      -5.565   4.865  15.260  1.00  0.00     0.174 HD
ATOM     22  H51 UNL     1      -5.921   5.012  13.548  1.00  0.00     0.174 HD
ENDBRANCH   6  20
TORSDOF 6
ENDMDL