MODEL 5
REMARK VINA RESULT: -5.545523417      1.036      1.235
REMARK  6 active torsions:
REMARK  status: ('A' for Active; 'I' for Inactive)
REMARK    1  A    between atoms: S1_2  and  C2_3
REMARK    2  A    between atoms: C3_6  and  N2_7
REMARK    3  A    between atoms: C4_12  and  N4_13
REMARK    4  A    between atoms: N4_13  and  C5_15
REMARK    5  A    between atoms: C5_15  and  N5_16
REMARK    6  A    between atoms: N5_16  and  N6_17
ROOT
HETATM    1  C2  UNL     1      -7.657   8.755  13.701  1.00  0.00     0.174 A
HETATM    2  N1  UNL     1      -6.911   7.645  13.810  1.00  0.00    -0.170 N
ATOM      3  H1  UNL     1      -7.270   6.763  13.446  1.00  0.00     0.186 HD
HETATM    4  C3  UNL     1      -5.680   7.673  14.398  1.00  0.00     0.692 A
HETATM    5  N3  UNL     1      -5.250   8.868  14.863  1.00  0.00    -0.023 N
ATOM      6  H3  UNL     1      -4.332   8.911  15.306  1.00  0.00     0.203 HD
HETATM    7  C4  UNL     1      -5.961   9.998  14.775  1.00  0.00     0.695 A
HETATM    8  N7  UNL     1      -7.185   9.906  14.177  1.00  0.00    -0.169 N
ATOM      9  H7  UNL     1      -7.756  10.747  14.090  1.00  0.00     0.186 HD
ENDROOT
BRANCH   7  10
HETATM   10  N4  UNL     1      -5.542  11.142  15.224  1.00  0.00    -0.210 N
ATOM     11  H4  UNL     1      -5.332  11.256  16.215  1.00  0.00     0.179 HD
BRANCH  10  12
HETATM   12  C5  UNL     1      -5.375  12.243  14.319  1.00  0.00     0.273 C
BRANCH  12  13
HETATM   13  N5  UNL     1      -4.371  13.124  14.874  1.00  0.00    -0.128 NA
BRANCH  13  14
HETATM   14  N6  UNL     1      -4.385  13.153  16.264  1.00  0.00    -0.347 N
ATOM     15  H62 UNL     1      -4.637  13.987  16.795  1.00  0.00     0.172 HD
ATOM     16  H61 UNL     1      -4.119  12.261  16.682  1.00  0.00     0.172 HD
ENDBRANCH  13  14
ENDBRANCH  12  13
ENDBRANCH  10  12
ENDBRANCH   7  10
BRANCH   4  17
HETATM   17  N2  UNL     1      -4.972   6.599  14.496  1.00  0.00    -0.234 N
ATOM     18  H22 UNL     1      -5.383   5.695  14.729  1.00  0.00     0.174 HD
ATOM     19  H21 UNL     1      -3.964   6.624  14.341  1.00  0.00     0.174 HD
ENDBRANCH   4  17
BRANCH   1  20
HETATM   20  S1  UNL     1      -9.262   8.670  12.925  1.00  0.00    -0.097 SA
HETATM   21  C1  UNL     1      -9.607   6.947  12.504  1.00  0.00     0.099 C
ENDBRANCH   1  20
TORSDOF 6
ENDMDL