MODEL 3
REMARK VINA RESULT: -5.951652006      1.402      1.846
REMARK  5 active torsions:
REMARK  status: ('A' for Active; 'I' for Inactive)
REMARK    1  A    between atoms: C4_11  and  N4_12
REMARK    2  A    between atoms: N4_12  and  N5_14
REMARK    3  A    between atoms: N5_14  and  C5_16
REMARK    4  A    between atoms: C5_16  and  C6_17
REMARK    5  A    between atoms: C6_17  and  N6_18
ROOT
HETATM    1  C1  UNL     1      -9.066   8.627  13.125  1.00  0.00     0.090 C
HETATM    2  C2  UNL     1      -7.761   8.564  13.822  1.00  0.00     0.109 A
HETATM    3  N1  UNL     1      -6.940   7.542  13.591  1.00  0.00    -0.180 N
ATOM      4  H1  UNL     1      -7.222   6.813  12.936  1.00  0.00     0.185 HD
HETATM    5  C3  UNL     1      -5.736   7.450  14.211  1.00  0.00     0.691 A
HETATM    6  N2  UNL     1      -4.930   6.468  13.999  1.00  0.00    -0.234 N
ATOM      7  H21 UNL     1      -4.024   6.400  14.465  1.00  0.00     0.174 HD
ATOM      8  H22 UNL     1      -5.185   5.725  13.350  1.00  0.00     0.174 HD
HETATM    9  N3  UNL     1      -5.394   8.446  15.082  1.00  0.00    -0.021 N
ATOM     10  H3  UNL     1      -4.495   8.404  15.561  1.00  0.00     0.203 HD
HETATM   11  C4  UNL     1      -6.215   9.476  15.317  1.00  0.00     0.712 A
HETATM   12  N7  UNL     1      -7.396   9.530  14.686  1.00  0.00    -0.178 N
ATOM     13  H7  UNL     1      -8.025  10.313  14.861  1.00  0.00     0.185 HD
ENDROOT
BRANCH  11  14
HETATM   14  N4  UNL     1      -5.902  10.407  16.128  1.00  0.00    -0.136 N
ATOM     15  H4  UNL     1      -5.905  10.238  17.134  1.00  0.00     0.205 HD
BRANCH  14  16
HETATM   16  N5  UNL     1      -5.556  11.657  15.624  1.00  0.00    -0.321 N
ATOM     17  H5  UNL     1      -5.529  12.444  16.272  1.00  0.00     0.180 HD
BRANCH  16  18
HETATM   18  C5  UNL     1      -5.236  11.907  14.245  1.00  0.00     0.167 C
BRANCH  18  19
HETATM   19  C6  UNL     1      -5.540  13.350  13.925  1.00  0.00     0.250 C
BRANCH  19  20
HETATM   20  N6  UNL     1      -4.412  14.183  14.308  1.00  0.00    -0.078 N
ATOM     21  H63 UNL     1      -3.655  13.639  14.721  1.00  0.00     0.274 HD
ATOM     22  H62 UNL     1      -3.909  14.545  13.498  1.00  0.00     0.274 HD
ATOM     23  H61 UNL     1      -4.731  14.928  14.926  1.00  0.00     0.274 HD
ENDBRANCH  19  20
ENDBRANCH  18  19
ENDBRANCH  16  18
ENDBRANCH  14  16
ENDBRANCH  11  14
TORSDOF 5
ENDMDL