MODEL 2
REMARK VINA RESULT: -5.845983204      2.125      4.664
REMARK  5 active torsions:
REMARK  status: ('A' for Active; 'I' for Inactive)
REMARK    1  A    between atoms: N1_1  and  N2_4
REMARK    2  A    between atoms: N2_4  and  C1_5
REMARK    3  A    between atoms: C1_5  and  C2_6
REMARK    4  A    between atoms: C2_6  and  N3_7
REMARK    5  A    between atoms: N3_7  and  C3_9
ROOT
HETATM    1  C3  UNL     1      -5.644   7.396  15.163  1.00  0.00     0.133 A
HETATM    2  N4  UNL     1      -5.012   6.638  16.066  1.00  0.00    -0.337 N
ATOM      3  H4  UNL     1      -4.841   5.648  15.892  1.00  0.00     0.168 HD
HETATM    4  C4  UNL     1      -4.610   7.221  17.210  1.00  0.00     0.183 A
HETATM    5  N5  UNL     1      -4.824   8.520  17.460  1.00  0.00    -0.337 N
ATOM      6  H5  UNL     1      -4.500   8.914  18.342  1.00  0.00     0.168 HD
HETATM    7  C5  UNL     1      -5.462   9.328  16.572  1.00  0.00     0.138 A
HETATM    8  N6  UNL     1      -5.804  10.630  16.561  1.00  0.00    -0.337 N
ATOM      9  H6  UNL     1      -5.621  11.307  17.302  1.00  0.00     0.168 HD
HETATM   10  C6  UNL     1      -6.433  10.878  15.391  1.00  0.00     0.182 A
HETATM   11  N7  UNL     1      -6.474   9.730  14.693  1.00  0.00    -0.346 N
ATOM     12  H7  UNL     1      -6.892   9.619  13.769  1.00  0.00     0.167 HD
HETATM   13  C7  UNL     1      -5.875   8.743  15.403  1.00  0.00     0.122 A
ENDROOT
BRANCH   1  14
HETATM   14  N3  UNL     1      -6.052   6.916  14.063  1.00  0.00    -0.373 N
ATOM     15  H3  UNL     1      -5.469   7.096  13.245  1.00  0.00     0.161 HD
BRANCH  14  16
HETATM   16  C2  UNL     1      -7.237   6.151  13.842  1.00  0.00     0.139 C
BRANCH  16  17
HETATM   17  C1  UNL     1      -8.390   6.985  13.344  1.00  0.00     0.153 C
BRANCH  17  18
HETATM   18  N2  UNL     1      -7.974   7.997  12.404  1.00  0.00    -0.147 NA
BRANCH  18  19
HETATM   19  N1  UNL     1      -8.868   9.033  12.279  1.00  0.00    -0.348 N
ATOM     20  H12 UNL     1      -8.595   9.949  11.923  1.00  0.00     0.172 HD
ATOM     21  H11 UNL     1      -9.815   8.793  12.573  1.00  0.00     0.172 HD
ENDBRANCH  18  19
ENDBRANCH  17  18
ENDBRANCH  16  17
ENDBRANCH  14  16
ENDBRANCH   1  14
TORSDOF 5
ENDMDL