MODEL 3
REMARK VINA RESULT: -5.956593270      4.034      5.333
REMARK  6 active torsions:
REMARK  status: ('A' for Active; 'I' for Inactive)
REMARK    1  A    between atoms: N1_1  and  C1_4
REMARK    2  A    between atoms: C2_7  and  N3_8
REMARK    3  A    between atoms: N3_8  and  N4_9
REMARK    4  A    between atoms: N3_8  and  N6_13
REMARK    5  A    between atoms: N4_9  and  N5_10
REMARK    6  A    between atoms: N6_13  and  C3_15
ROOT
HETATM    1  C1  UNL     1      -9.330   7.675  12.786  1.00  0.00     0.677 A
HETATM    2  N2  UNL     1      -8.591   6.662  13.254  1.00  0.00    -0.174 N
ATOM      3  H2  UNL     1      -8.902   5.700  13.121  1.00  0.00     0.186 HD
HETATM    4  C2  UNL     1      -7.452   6.911  13.894  1.00  0.00     0.160 A
HETATM    5  C4  UNL     1      -7.048   8.210  14.064  1.00  0.00     0.070 A
HETATM    6  C5  UNL     1      -7.813   9.245  13.578  1.00  0.00     0.110 A
HETATM    7  N7  UNL     1      -8.956   8.963  12.938  1.00  0.00    -0.202 N
ATOM      8  H7  UNL     1      -9.539   9.714  12.570  1.00  0.00     0.183 HD
ENDROOT
BRANCH   4   9
HETATM    9  N3  UNL     1      -6.630   5.852  14.415  1.00  0.00    -0.161 N
BRANCH   9  10
HETATM   10  N4  UNL     1      -5.309   6.036  14.763  1.00  0.00    -0.005 NA
BRANCH  10  11
HETATM   11  N5  UNL     1      -4.421   5.862  13.695  1.00  0.00    -0.327 N
ATOM     12  H52 UNL     1      -3.860   5.018  13.583  1.00  0.00     0.174 HD
ATOM     13  H51 UNL     1      -4.396   6.655  13.055  1.00  0.00     0.174 HD
ENDBRANCH  10  11
ENDBRANCH   9  10
BRANCH   9  14
HETATM   14  N6  UNL     1      -7.174   4.564  14.586  1.00  0.00    -0.256 N
ATOM     15  H6  UNL     1      -8.178   4.424  14.472  1.00  0.00     0.191 HD
BRANCH  14  16
HETATM   16  C3  UNL     1      -6.352   3.463  14.912  1.00  0.00     0.370 C
HETATM   17  O1  UNL     1      -5.900   2.750  13.972  1.00  0.00    -0.282 OA
ENDBRANCH  14  16
ENDBRANCH   9  14
ENDBRANCH   4   9
BRANCH   1  18
HETATM   18  N1  UNL     1     -10.443   7.385  12.161  1.00  0.00    -0.234 N
ATOM     19  H12 UNL     1     -10.413   6.967  11.231  1.00  0.00     0.174 HD
ATOM     20  H11 UNL     1     -11.323   7.588  12.635  1.00  0.00     0.174 HD
ENDBRANCH   1  18
TORSDOF 6
ENDMDL