MODEL 2
REMARK VINA RESULT: -5.635840870      1.649      3.942
REMARK  8 active torsions:
REMARK  status: ('A' for Active; 'I' for Inactive)
REMARK    1  A    between atoms: C2_2  and  C3_3
REMARK    2  A    between atoms: C3_3  and  N1_4
REMARK    3  A    between atoms: C4_7  and  N3_8
REMARK    4  A    between atoms: N4_11  and  N5_12
REMARK    5  A    between atoms: C5_15  and  N6_16
REMARK    6  A    between atoms: N6_16  and  C6_18
REMARK    7  A    between atoms: C6_18  and  C7_19
REMARK    8  A    between atoms: C7_19  and  N7_20
ROOT
HETATM    1  N1  UNL     1      -7.399   8.693  13.965  1.00  0.00    -0.107 N
HETATM    2  N2  UNL     1      -7.921   9.614  14.736  1.00  0.00    -0.114 N
ATOM      3  H2  UNL     1      -8.788  10.116  14.546  1.00  0.00     0.206 HD
HETATM    4  C4  UNL     1      -7.144   9.799  15.812  1.00  0.00     0.727 A
HETATM    5  N4  UNL     1      -6.082   8.953  15.717  1.00  0.00     0.085 N
HETATM    6  C5  UNL     1      -6.237   8.270  14.578  1.00  0.00     0.731 A
ENDROOT
BRANCH   6   7
HETATM    7  N6  UNL     1      -5.528   7.371  14.034  1.00  0.00    -0.221 N
ATOM      8  H6  UNL     1      -5.119   7.603  13.129  1.00  0.00     0.177 HD
BRANCH   7   9
HETATM    9  C6  UNL     1      -5.239   6.086  14.539  1.00  0.00     0.165 C
BRANCH   9  10
HETATM   10  C7  UNL     1      -6.496   5.251  14.778  1.00  0.00     0.249 C
BRANCH  10  11
HETATM   11  N7  UNL     1      -6.147   3.865  14.561  1.00  0.00    -0.078 N
ATOM     12  H73 UNL     1      -5.473   3.739  13.807  1.00  0.00     0.274 HD
ATOM     13  H72 UNL     1      -5.580   3.475  15.314  1.00  0.00     0.274 HD
ATOM     14  H71 UNL     1      -7.014   3.349  14.409  1.00  0.00     0.274 HD
ENDBRANCH  10  11
ENDBRANCH   9  10
ENDBRANCH   7   9
ENDBRANCH   6   7
BRANCH   1  15
HETATM   15  C3  UNL     1      -7.911   8.183  12.699  1.00  0.00     0.168 C
BRANCH  15  16
HETATM   16  C2  UNL     1      -9.056   7.227  12.905  1.00  0.00     0.018 C
HETATM   17  C1  UNL     1     -10.318   7.931  12.453  1.00  0.00     0.007 C
ENDBRANCH  15  16
ENDBRANCH   1  15
BRANCH   5  18
HETATM   18  N5  UNL     1      -5.046   8.846  16.649  1.00  0.00    -0.309 N
ATOM     19  H52 UNL     1      -4.594   9.595  17.173  1.00  0.00     0.178 HD
ATOM     20  H51 UNL     1      -4.596   7.977  16.934  1.00  0.00     0.178 HD
ENDBRANCH   5  18
BRANCH   4  21
HETATM   21  N3  UNL     1      -7.332  10.624  16.797  1.00  0.00    -0.231 N
ATOM     22  H32 UNL     1      -7.588  10.338  17.742  1.00  0.00     0.174 HD
ATOM     23  H31 UNL     1      -7.257  11.641  16.783  1.00  0.00     0.174 HD
ENDBRANCH   4  21
TORSDOF 8
ENDMDL