MODEL 1
REMARK VINA RESULT: -5.353809674      0.000      0.000
REMARK  5 active torsions:
REMARK  status: ('A' for Active; 'I' for Inactive)
REMARK    1  A    between atoms: N1_1  and  C1_5
REMARK    2  A    between atoms: C1_5  and  C2_6
REMARK    3  A    between atoms: C2_6  and  C3_7
REMARK    4  A    between atoms: C3_7  and  N2_8
REMARK    5  A    between atoms: C5_17  and  N6_18
ROOT
HETATM    1  N2  UNL     1      -6.063   8.040  14.552  1.00  0.00    -0.312 N
HETATM    2  C4  UNL     1      -5.963   9.278  15.233  1.00  0.00     0.192 C
HETATM    3  S1  UNL     1      -6.302  10.704  14.532  1.00  0.00    -0.039 SA
HETATM    4  N3  UNL     1      -5.518   9.175  16.601  1.00  0.00    -0.262 N
ATOM      5  H3  UNL     1      -5.692   9.951  17.239  1.00  0.00     0.191 HD
HETATM    6  N4  UNL     1      -4.864   8.053  17.068  1.00  0.00    -0.242 N
ATOM      7  H4  UNL     1      -4.300   8.061  17.918  1.00  0.00     0.208 HD
HETATM    8  N5  UNL     1      -5.025   6.937  16.311  1.00  0.00    -0.275 N
ATOM      9  H5  UNL     1      -5.175   6.027  16.747  1.00  0.00     0.185 HD
HETATM   10  C5  UNL     1      -4.982   7.066  14.896  1.00  0.00     0.406 C
ENDROOT
BRANCH   1  11
HETATM   11  C3  UNL     1      -7.056   7.725  13.601  1.00  0.00     0.131 C
BRANCH  11  12
HETATM   12  C2  UNL     1      -8.472   7.639  13.993  1.00  0.00     0.047 C
BRANCH  12  13
HETATM   13  C1  UNL     1      -9.279   7.867  12.675  1.00  0.00     0.231 C
BRANCH  13  14
HETATM   14  N1  UNL     1      -8.962   9.182  12.207  1.00  0.00    -0.079 N
ATOM     15  H13 UNL     1      -9.005   9.266  11.191  1.00  0.00     0.274 HD
ATOM     16  H12 UNL     1      -9.683   9.869  12.427  1.00  0.00     0.274 HD
ATOM     17  H11 UNL     1      -8.048   9.425  12.590  1.00  0.00     0.274 HD
ENDBRANCH  13  14
ENDBRANCH  12  13
ENDBRANCH  11  12
ENDBRANCH   1  11
BRANCH  10  18
HETATM   18  N6  UNL     1      -5.361   5.809  14.277  1.00  0.00    -0.039 N
ATOM     19  H63 UNL     1      -5.863   5.182  14.905  1.00  0.00     0.279 HD
ATOM     20  H62 UNL     1      -6.099   5.906  13.580  1.00  0.00     0.279 HD
ATOM     21  H61 UNL     1      -4.500   5.407  13.904  1.00  0.00     0.279 HD
ENDBRANCH  10  18
TORSDOF 5
ENDMDL