MODEL 2
REMARK VINA RESULT: -5.617924127      2.646      4.449
REMARK  7 active torsions:
REMARK  status: ('A' for Active; 'I' for Inactive)
REMARK    1  A    between atoms: N1_1  and  N2_4
REMARK    2  A    between atoms: C1_6  and  N3_7
REMARK    3  A    between atoms: N3_7  and  C2_9
REMARK    4  A    between atoms: C3_12  and  C4_13
REMARK    5  A    between atoms: C4_13  and  N5_14
REMARK    6  A    between atoms: N5_14  and  N6_15
REMARK    7  A    between atoms: C6_19  and  N7_20
ROOT
HETATM    1  C2  UNL     1      -6.376   7.547  14.176  1.00  0.00     0.109 C
HETATM    2  N4  UNL     1      -5.767   8.653  14.406  1.00  0.00    -0.372 N
ATOM      3  H4  UNL     1      -4.773   8.718  14.625  1.00  0.00     0.161 HD
HETATM    4  C3  UNL     1      -6.647   9.803  14.319  1.00  0.00     0.101 C
HETATM    5  C5  UNL     1      -8.010   9.148  14.616  1.00  0.00     0.067 C
HETATM    6  C6  UNL     1      -7.787   7.854  13.880  1.00  0.00     0.252 C
ENDROOT
BRANCH   1   7
HETATM    7  N3  UNL     1      -5.765   6.230  14.192  1.00  0.00    -0.340 N
ATOM      8  H3  UNL     1      -4.922   6.048  13.646  1.00  0.00     0.168 HD
BRANCH   7   9
HETATM    9  C1  UNL     1      -6.346   5.199  14.970  1.00  0.00     0.198 C
HETATM   10  N2  UNL     1      -6.429   4.007  14.527  1.00  0.00    -0.303 N
ATOM     11  H2  UNL     1      -6.071   3.793  13.597  1.00  0.00     0.187 HD
BRANCH  10  12
HETATM   12  N1  UNL     1      -7.001   2.990  15.293  1.00  0.00    -0.344 N
ATOM     13  H12 UNL     1      -6.479   2.634  16.094  1.00  0.00     0.176 HD
ATOM     14  H11 UNL     1      -7.918   2.607  15.062  1.00  0.00     0.176 HD
ENDBRANCH  10  12
ENDBRANCH   7   9
ENDBRANCH   1   7
BRANCH   6  15
HETATM   15  N7  UNL     1      -7.900   8.138  12.453  1.00  0.00    -0.068 N
ATOM     16  H73 UNL     1      -8.445   8.978  12.262  1.00  0.00     0.275 HD
ATOM     17  H72 UNL     1      -7.019   8.449  12.043  1.00  0.00     0.275 HD
ATOM     18  H71 UNL     1      -8.279   7.311  11.994  1.00  0.00     0.275 HD
ENDBRANCH   6  15
BRANCH   4  19
HETATM   19  C4  UNL     1      -6.254  10.738  15.441  1.00  0.00     0.159 C
BRANCH  19  20
HETATM   20  N5  UNL     1      -5.902  12.010  14.813  1.00  0.00    -0.146 NA
BRANCH  20  21
HETATM   21  N6  UNL     1      -4.589  11.994  14.326  1.00  0.00    -0.348 N
ATOM     22  H62 UNL     1      -3.766  12.064  14.925  1.00  0.00     0.172 HD
ATOM     23  H61 UNL     1      -4.570  11.905  13.310  1.00  0.00     0.172 HD
ENDBRANCH  20  21
ENDBRANCH  19  20
ENDBRANCH   4  19
TORSDOF 7
ENDMDL