MODEL 3
REMARK VINA RESULT: -6.008831343      1.716      2.540
REMARK  5 active torsions:
REMARK  status: ('A' for Active; 'I' for Inactive)
REMARK    1  A    between atoms: C2_3  and  N2_4
REMARK    2  A    between atoms: N2_4  and  C3_7
REMARK    3  A    between atoms: C3_7  and  C4_8
REMARK    4  A    between atoms: C5_11  and  N4_12
REMARK    5  A    between atoms: C6_17  and  N6_18
ROOT
HETATM    1  N1  UNL     1      -3.953  14.311  15.171  1.00  0.00    -0.196 NA
HETATM    2  C1  UNL     1      -4.652  13.482  14.771  1.00  0.00     0.086 C
HETATM    3  C2  UNL     1      -5.554  12.452  14.262  1.00  0.00     0.356 C
ENDROOT
BRANCH   3   4
HETATM    4  N2  UNL     1      -5.241  11.135  14.784  1.00  0.00    -0.057 N
ATOM      5  H22 UNL     1      -4.762  10.544  14.105  1.00  0.00     0.278 HD
ATOM      6  H21 UNL     1      -4.506  11.152  15.490  1.00  0.00     0.278 HD
BRANCH   4   7
HETATM    7  C3  UNL     1      -6.467  10.550  15.267  1.00  0.00     0.310 C
BRANCH   7   8
HETATM    8  C4  UNL     1      -6.737   9.226  14.653  1.00  0.00     0.139 A
HETATM    9  N3  UNL     1      -7.909   8.898  14.093  1.00  0.00    -0.178 N
HETATM   10  C5  UNL     1      -8.093   7.685  13.552  1.00  0.00     0.691 A
ATOM     11  H3  UNL     1      -8.669   9.579  14.077  1.00  0.00     0.185 HD
HETATM   12  N5  UNL     1      -7.083   6.807  13.582  1.00  0.00    -0.023 N
HETATM   13  C6  UNL     1      -5.890   7.086  14.131  1.00  0.00     0.691 A
ATOM     14  H5  UNL     1      -7.227   5.886  13.170  1.00  0.00     0.203 HD
HETATM   15  N7  UNL     1      -5.751   8.315  14.661  1.00  0.00    -0.178 N
ATOM     16  H7  UNL     1      -4.858   8.566  15.086  1.00  0.00     0.185 HD
BRANCH  10  17
HETATM   17  N4  UNL     1      -9.208   7.328  13.001  1.00  0.00    -0.234 N
ATOM     18  H42 UNL     1      -9.266   7.315  11.982  1.00  0.00     0.174 HD
ATOM     19  H41 UNL     1     -10.029   7.059  13.543  1.00  0.00     0.174 HD
ENDBRANCH  10  17
BRANCH  13  20
HETATM   20  N6  UNL     1      -4.938   6.200  14.136  1.00  0.00    -0.234 N
ATOM     21  H62 UNL     1      -3.958   6.435  14.293  1.00  0.00     0.174 HD
ATOM     22  H61 UNL     1      -5.144   5.213  13.976  1.00  0.00     0.174 HD
ENDBRANCH  13  20
ENDBRANCH   7   8
ENDBRANCH   4   7
ENDBRANCH   3   4
TORSDOF 5
ENDMDL