MODEL 2
REMARK VINA RESULT: -4.118429443      0.956      1.019
REMARK  2 active torsions:
REMARK  status: ('A' for Active; 'I' for Inactive)
REMARK    1  A    between atoms: N2_14  and  O2_16
REMARK    2  A    between atoms: C11_22  and  N4_23
ROOT
HETATM    1  C1  UNL     1      23.695   8.446  20.969  1.00  0.00     0.030 C
HETATM    2  C2  UNL     1      22.707   7.436  20.518  1.00  0.00     0.045 C
HETATM    3  C3  UNL     1      23.243   6.119  20.142  1.00  0.00     0.060 C
HETATM    4  C4  UNL     1      23.940   6.105  18.801  1.00  0.00     0.166 C
HETATM    5  O1  UNL     1      24.158   4.748  18.436  1.00  0.00    -0.329 OA
HETATM    6  C5  UNL     1      24.360   4.380  17.121  1.00  0.00     0.115 C
HETATM    7  N1  UNL     1      24.723   3.190  16.847  1.00  0.00    -0.383 N
ATOM      8  H11 UNL     1      24.873   2.918  15.874  1.00  0.00     0.157 HD
ATOM      9  H12 UNL     1      24.867   2.507  17.591  1.00  0.00     0.157 HD
HETATM   10  C6  UNL     1      24.154   5.358  16.054  1.00  0.00     0.111 C
HETATM   11  C7  UNL     1      23.378   6.542  16.501  1.00  0.00    -0.007 C
HETATM   12  C8  UNL     1      23.273   6.898  17.773  1.00  0.00    -0.005 C
HETATM   13  C9  UNL     1      22.492   8.094  18.165  1.00  0.00     0.072 C
HETATM   14  N2  UNL     1      22.502   9.134  17.429  1.00  0.00    -0.271 N
ATOM     15  H2  UNL     1      21.940   9.915  17.765  1.00  0.00     0.194 HD
HETATM   16  C10 UNL     1      21.764   7.976  19.432  1.00  0.00     0.259 C
HETATM   17  N3  UNL     1      21.200   9.165  19.964  1.00  0.00    -0.026 N
ATOM     18  H31 UNL     1      20.714   9.750  19.285  1.00  0.00     0.281 HD
ATOM     19  H32 UNL     1      21.878   9.875  20.241  1.00  0.00     0.281 HD
HETATM   20  C11 UNL     1      20.352   8.655  21.060  1.00  0.00     0.444 C
HETATM   21  S1  UNL     1      21.403   7.337  21.814  1.00  0.00    -0.096 SA
ENDROOT
BRANCH  14  22
HETATM   22  O2  UNL     1      23.152   9.345  16.270  1.00  0.00    -0.290 OA
ATOM     23  H2  UNL     1      22.957   9.968  15.580  1.00  0.00     0.244 HD
ENDBRANCH  14  22
BRANCH  20  24
HETATM   24  N4  UNL     1      19.115   8.128  20.587  1.00  0.00    -0.041 N
ATOM     25  H43 UNL     1      19.257   7.255  20.077  1.00  0.00     0.277 HD
ATOM     26  H42 UNL     1      18.546   7.776  21.357  1.00  0.00     0.277 HD
ATOM     27  H41 UNL     1      18.597   8.803  20.025  1.00  0.00     0.277 HD
ENDBRANCH  20  24
TORSDOF 2
ENDMDL