MODEL 4
REMARK VINA RESULT: -5.312628463      1.514      5.776
REMARK  1 active torsions:
REMARK  status: ('A' for Active; 'I' for Inactive)
REMARK    1  A    between atoms: N4_12  and  C5_14
ROOT
HETATM    1  N1  UNL     1      21.717   9.924  16.841  1.00  0.00    -0.063 NA
HETATM    2  C1  UNL     1      21.916   9.020  17.920  1.00  0.00     0.194 A
HETATM    3  N2  UNL     1      22.606   7.861  17.910  1.00  0.00    -0.323 N
ATOM      4  H2  UNL     1      23.091   7.469  17.102  1.00  0.00     0.169 HD
HETATM    5  C2  UNL     1      22.553   7.304  19.138  1.00  0.00     0.110 A
HETATM    6  S1  UNL     1      23.168   5.874  19.881  1.00  0.00    -0.040 SA
HETATM    7  C3  UNL     1      22.724   5.760  21.522  1.00  0.00     0.146 A
HETATM    8  S2  UNL     1      23.166   4.510  22.479  1.00  0.00    -0.052 SA
HETATM    9  N3  UNL     1      21.981   6.780  21.966  1.00  0.00    -0.326 N
ATOM     10  H3  UNL     1      21.704   6.732  22.947  1.00  0.00     0.169 HD
HETATM   11  C4  UNL     1      21.558   7.847  21.299  1.00  0.00     0.134 A
HETATM   12  N4  UNL     1      20.839   8.749  21.890  1.00  0.00    -0.353 N
ATOM     13  H4  UNL     1      20.547   9.541  21.318  1.00  0.00     0.163 HD
HETATM   14  C10 UNL     1      21.816   8.116  19.957  1.00  0.00     0.113 A
HETATM   15  N6  UNL     1      21.444   9.163  19.162  1.00  0.00    -0.325 N
ATOM     16  H6  UNL     1      20.880   9.953  19.476  1.00  0.00     0.169 HD
ENDROOT
BRANCH  12  17
HETATM   17  C5  UNL     1      20.411   8.760  23.242  1.00  0.00     0.178 C
HETATM   18  C6  UNL     1      21.237   7.841  24.145  1.00  0.00     0.046 C
HETATM   19  C7  UNL     1      20.453   7.754  25.437  1.00  0.00     0.005 C
HETATM   20  C8  UNL     1      20.410   9.122  26.057  1.00  0.00     0.019 C
HETATM   21  C9  UNL     1      20.107  10.230  25.134  1.00  0.00     0.115 C
HETATM   22  N5  UNL     1      20.510  10.074  23.785  1.00  0.00    -0.401 N
ATOM     23  H5  UNL     1      20.853  10.859  23.232  1.00  0.00     0.155 HD
ENDBRANCH  12  17
TORSDOF 1
ENDMDL