MODEL 2
REMARK VINA RESULT: -3.569060920      9.410     10.918
REMARK  4 active torsions:
REMARK  status: ('A' for Active; 'I' for Inactive)
REMARK    1  A    between atoms: C8_8  and  O1_9
REMARK    2  A    between atoms: C10_12  and  O2_14
REMARK    3  A    between atoms: C12_16  and  O3_17
REMARK    4  A    between atoms: C14_20  and  O4_21
ROOT
HETATM    1  C1  UNL     1      22.956   8.646  20.998  1.00  0.00     0.046 C
HETATM    2  C2  UNL     1      22.634   8.108  19.840  1.00  0.00     0.040 C
HETATM    3  C3  UNL     1      22.512   6.630  19.797  1.00  0.00     0.064 C
HETATM    4  C4  UNL     1      23.875   6.055  19.957  1.00  0.00     0.007 C
HETATM    5  C5  UNL     1      24.149   4.795  19.209  1.00  0.00     0.007 C
HETATM    6  C6  UNL     1      23.882   4.856  17.738  1.00  0.00     0.010 C
HETATM    7  C7  UNL     1      24.092   3.456  17.178  1.00  0.00     0.012 C
HETATM    8  C8  UNL     1      24.795   5.843  17.056  1.00  0.00     0.124 C
HETATM    9  C9  UNL     1      24.139   6.467  15.817  1.00  0.00     0.072 C
HETATM   10  C10 UNL     1      24.162   7.950  15.848  1.00  0.00     0.082 C
HETATM   11  C11 UNL     1      25.024   8.412  14.660  1.00  0.00     0.049 C
HETATM   12  C12 UNL     1      22.873   8.662  15.740  1.00  0.00     0.156 C
HETATM   13  C13 UNL     1      21.711   8.112  16.482  1.00  0.00     0.095 C
HETATM   14  C14 UNL     1      21.411   8.838  17.782  1.00  0.00     0.265 C
HETATM   15  O5  UNL     1      22.419   8.835  18.718  1.00  0.00    -0.326 OA
ENDROOT
BRANCH  10  16
HETATM   16  O2  UNL     1      24.850   8.465  16.973  1.00  0.00    -0.388 OA
ATOM     17  H2  UNL     1      24.674   7.977  17.769  1.00  0.00     0.210 HD
ENDBRANCH  10  16
BRANCH  12  18
HETATM   18  O3  UNL     1      22.597   8.845  14.368  1.00  0.00    -0.392 OA
ATOM     19  H3  UNL     1      22.279   9.733  14.252  1.00  0.00     0.210 HD
ENDBRANCH  12  18
BRANCH   8  20
HETATM   20  O1  UNL     1      25.996   5.182  16.707  1.00  0.00    -0.395 OA
ATOM     21  H1  UNL     1      26.178   5.347  15.789  1.00  0.00     0.210 HD
ENDBRANCH   8  20
BRANCH  14  22
HETATM   22  O4  UNL     1      20.165   8.428  18.282  1.00  0.00    -0.371 OA
ATOM     23  H4  UNL     1      19.467   8.871  17.814  1.00  0.00     0.212 HD
ENDBRANCH  14  22
TORSDOF 4
ENDMDL