MODEL 3
REMARK VINA RESULT: -6.422470620      1.032      1.273
REMARK  1 active torsions:
REMARK  status: ('A' for Active; 'I' for Inactive)
REMARK    1  A    between atoms: C3_4  and  O2_5
ROOT
HETATM    1  C1  UNL     1      24.553   7.132  14.386  1.00  0.00     0.077 C
HETATM    2  C2  UNL     1      24.423   6.290  15.627  1.00  0.00     0.060 A
HETATM    3  O1  UNL     1      24.791   5.059  15.801  1.00  0.00    -0.291 OA
HETATM    4  C3  UNL     1      24.522   4.643  17.012  1.00  0.00     0.211 A
HETATM    5  C4  UNL     1      23.927   5.682  17.705  1.00  0.00     0.096 A
HETATM    6  C5  UNL     1      23.866   6.732  16.813  1.00  0.00     0.003 A
HETATM    7  C6  UNL     1      23.273   8.063  17.200  1.00  0.00     0.050 C
HETATM    8  C7  UNL     1      22.369   7.850  18.358  1.00  0.00     0.014 C
HETATM    9  C8  UNL     1      21.985   9.111  19.083  1.00  0.00     0.024 C
HETATM   10  C9  UNL     1      21.466   8.560  20.404  1.00  0.00     0.019 C
HETATM   11  C10 UNL     1      21.856   9.403  21.547  1.00  0.00     0.094 C
HETATM   12  N1  UNL     1      21.199   9.216  22.660  1.00  0.00    -0.295 N
ATOM     13  H1  UNL     1      21.396   9.751  23.507  1.00  0.00     0.187 HD
HETATM   14  N2  UNL     1      20.199   8.222  22.609  1.00  0.00    -0.208 N
ATOM     15  H2  UNL     1      20.038   7.653  23.440  1.00  0.00     0.216 HD
HETATM   16  O3  UNL     1      19.450   7.988  21.523  1.00  0.00    -0.264 OA
HETATM   17  C11 UNL     1      19.957   8.501  20.357  1.00  0.00     0.218 C
HETATM   18  C12 UNL     1      22.078   7.199  20.573  1.00  0.00     0.043 C
HETATM   19  C13 UNL     1      23.093   7.117  19.497  1.00  0.00     0.087 C
HETATM   20  N3  UNL     1      23.424   5.806  19.053  1.00  0.00    -0.381 N
ATOM     21  H3  UNL     1      23.312   4.992  19.658  1.00  0.00     0.160 HD
ENDROOT
BRANCH   4  22
HETATM   22  O2  UNL     1      24.774   3.372  17.566  1.00  0.00    -0.339 OA
ATOM     23  H2  UNL     1      25.330   3.158  18.305  1.00  0.00     0.220 HD
ENDBRANCH   4  22
TORSDOF 1
ENDMDL