MODEL 2
REMARK VINA RESULT: -4.131563404      2.594      3.479
REMARK  5 active torsions:
REMARK  status: ('A' for Active; 'I' for Inactive)
REMARK    1  A    between atoms: O1_2  and  C2_3
REMARK    2  A    between atoms: C2_3  and  O3_5
REMARK    3  A    between atoms: O3_5  and  C3_6
REMARK    4  A    between atoms: C5_8  and  O4_9
REMARK    5  A    between atoms: C7_14  and  N2_15
ROOT
HETATM    1  C3  UNL     1      20.820   0.566  25.438  1.00  0.00     0.149 C
HETATM    2  C4  UNL     1      21.589   1.350  24.437  1.00  0.00     0.072 C
HETATM    3  C5  UNL     1      22.462   2.413  25.004  1.00  0.00     0.171 C
HETATM    4  C6  UNL     1      23.492   1.700  25.889  1.00  0.00     0.054 A
HETATM    5  N1  UNL     1      24.806   1.836  25.932  1.00  0.00    -0.337 N
ATOM      6  H1  UNL     1      25.281   2.495  25.315  1.00  0.00     0.168 HD
HETATM    7  C7  UNL     1      25.495   1.097  26.795  1.00  0.00     0.142 A
HETATM    8  S1  UNL     1      24.295   0.182  27.574  1.00  0.00    -0.056 SA
HETATM    9  C8  UNL     1      22.931   0.794  26.747  1.00  0.00     0.022 A
HETATM   10  C9  UNL     1      21.439   0.539  26.805  1.00  0.00     0.015 C
HETATM   11  C10 UNL     1      21.326  -0.879  27.391  1.00  0.00     0.023 C
HETATM   12  C11 UNL     1      20.761   1.443  27.798  1.00  0.00     0.023 C
ENDROOT
BRANCH   1  13
HETATM   13  O3  UNL     1      20.704  -0.766  24.982  1.00  0.00    -0.291 OA
BRANCH  13  14
HETATM   14  C2  UNL     1      21.519  -1.311  24.007  1.00  0.00     0.406 C
HETATM   15  O2  UNL     1      21.096  -1.391  22.843  1.00  0.00    -0.230 OA
BRANCH  14  16
HETATM   16  O1  UNL     1      22.783  -1.764  24.311  1.00  0.00    -0.303 OA
HETATM   17  C1  UNL     1      23.947  -1.283  23.631  1.00  0.00     0.215 C
ENDBRANCH  14  16
ENDBRANCH  13  14
ENDBRANCH   1  13
BRANCH   3  18
HETATM   18  O4  UNL     1      21.827   3.423  25.675  1.00  0.00    -0.389 OA
ATOM     19  H4  UNL     1      21.713   3.300  26.609  1.00  0.00     0.210 HD
ENDBRANCH   3  18
BRANCH   7  20
HETATM   20  N2  UNL     1      26.799   1.104  26.971  1.00  0.00    -0.380 N
ATOM     21  H22 UNL     1      27.533   1.536  26.409  1.00  0.00     0.158 HD
ATOM     22  H21 UNL     1      27.314   0.660  27.731  1.00  0.00     0.158 HD
ENDBRANCH   7  20
TORSDOF 5
ENDMDL