MODEL 1
REMARK VINA RESULT: -3.861923950      0.000      0.000
REMARK  1 active torsions:
REMARK  status: ('A' for Active; 'I' for Inactive)
REMARK    1  A    between atoms: C5_9  and  N2_10
ROOT
HETATM    1  C1  UNL     1      21.336   4.609  27.333  1.00  0.00     0.041 C
HETATM    2  C2  UNL     1      21.767   3.137  27.402  1.00  0.00     0.193 C
HETATM    3  C3  UNL     1      20.710   2.390  26.587  1.00  0.00     0.113 C
HETATM    4  S1  UNL     1      20.978   0.624  26.578  1.00  0.00    -0.113 SA
HETATM    5  C4  UNL     1      20.759  -0.086  24.926  1.00  0.00     0.071 C
HETATM    6  N1  UNL     1      19.649   0.120  24.333  1.00  0.00    -0.395 N
ATOM      7  H11 UNL     1      19.526  -0.280  23.403  1.00  0.00     0.156 HD
ATOM      8  H12 UNL     1      18.915   0.668  24.781  1.00  0.00     0.156 HD
HETATM    9  C5  UNL     1      21.821  -0.879  24.278  1.00  0.00     0.248 C
HETATM   10  C6  UNL     1      22.561  -1.771  25.272  1.00  0.00     0.113 C
HETATM   11  S2  UNL     1      24.336  -1.539  25.090  1.00  0.00    -0.164 SA
HETATM   12  C7  UNL     1      25.146  -0.985  26.583  1.00  0.00     0.112 C
HETATM   13  C8  UNL     1      25.245   0.523  26.689  1.00  0.00     0.129 C
HETATM   14  C9  UNL     1      25.261   1.190  25.331  1.00  0.00     0.046 C
HETATM   15  C10 UNL     1      26.548   0.940  27.381  1.00  0.00     0.046 C
HETATM   16  N3  UNL     1      24.115   0.959  27.496  1.00  0.00    -0.043 N
ATOM     17  H31 UNL     1      24.122   0.500  28.408  1.00  0.00     0.280 HD
ATOM     18  H32 UNL     1      23.240   0.586  27.126  1.00  0.00     0.280 HD
HETATM   19  C11 UNL     1      24.039   2.377  27.644  1.00  0.00     0.464 C
HETATM   20  N4  UNL     1      23.081   3.015  26.792  1.00  0.00    -0.047 N
ATOM     21  H41 UNL     1      23.422   3.925  26.479  1.00  0.00     0.279 HD
ATOM     22  H42 UNL     1      23.022   2.540  25.892  1.00  0.00     0.279 HD
ENDROOT
BRANCH   9  23
HETATM   23  N2  UNL     1      21.203  -1.683  23.222  1.00  0.00    -0.068 N
ATOM     24  H23 UNL     1      20.236  -1.932  23.429  1.00  0.00     0.275 HD
ATOM     25  H22 UNL     1      21.026  -1.149  22.371  1.00  0.00     0.275 HD
ATOM     26  H21 UNL     1      21.794  -2.498  23.060  1.00  0.00     0.275 HD
ENDBRANCH   9  23
TORSDOF 1
ENDMDL