MODEL 1
REMARK VINA RESULT: -7.236560630      0.000      0.000
REMARK  5 active torsions:
REMARK  status: ('A' for Active; 'I' for Inactive)
REMARK    1  A    between atoms: C2_2  and  C5_5
REMARK    2  A    between atoms: C9_13  and  N3_14
REMARK    3  A    between atoms: C11_20  and  N5_21
REMARK    4  A    between atoms: N5_21  and  N6_22
REMARK    5  A    between atoms: N5_21  and  O1_25
ROOT
HETATM    1  C5  UNL     1      23.377   7.327  17.835  1.00  0.00     0.024 A
HETATM    2  S1  UNL     1      22.482   8.152  19.028  1.00  0.00    -0.086 SA
HETATM    3  C6  UNL     1      22.630   7.040  20.311  1.00  0.00     0.073 A
HETATM    4  C7  UNL     1      22.167   7.006  21.639  1.00  0.00     0.149 A
HETATM    5  C8  UNL     1      21.385   8.115  22.057  1.00  0.00     0.119 C
HETATM    6  N1  UNL     1      20.737   9.014  22.392  1.00  0.00    -0.190 NA
HETATM    7  N2  UNL     1      22.456   5.968  22.441  1.00  0.00    -0.181 N
ATOM      8  H2  UNL     1      22.132   5.920  23.407  1.00  0.00     0.185 HD
HETATM    9  C9  UNL     1      23.202   4.998  21.882  1.00  0.00     0.677 A
HETATM   10  N4  UNL     1      23.653   5.000  20.632  1.00  0.00    -0.188 N
ATOM     11  H4  UNL     1      24.213   4.213  20.305  1.00  0.00     0.184 HD
HETATM   12  C10 UNL     1      23.385   6.042  19.765  1.00  0.00     0.101 A
HETATM   13  C11 UNL     1      23.777   6.186  18.479  1.00  0.00     0.123 A
ENDROOT
BRANCH   9  14
HETATM   14  N3  UNL     1      23.499   3.988  22.630  1.00  0.00    -0.234 N
ATOM     15  H32 UNL     1      23.022   3.902  23.527  1.00  0.00     0.174 HD
ATOM     16  H31 UNL     1      24.195   3.337  22.268  1.00  0.00     0.174 HD
ENDBRANCH   9  14
BRANCH   1  17
HETATM   17  C2  UNL     1      23.614   7.786  16.440  1.00  0.00    -0.015 C
HETATM   18  C1  UNL     1      23.705   6.694  15.432  1.00  0.00     0.020 C
HETATM   19  C3  UNL     1      24.979   8.497  16.420  1.00  0.00     0.020 C
HETATM   20  C4  UNL     1      22.586   8.792  15.992  1.00  0.00     0.020 C
ENDBRANCH   1  17
BRANCH  13  21
HETATM   21  N5  UNL     1      24.590   5.190  17.804  1.00  0.00    -0.167 N
BRANCH  21  22
HETATM   22  N6  UNL     1      25.717   5.575  17.118  1.00  0.00    -0.319 N
ATOM     23  H62 UNL     1      26.624   5.667  17.576  1.00  0.00     0.179 HD
ATOM     24  H61 UNL     1      25.659   5.781  16.121  1.00  0.00     0.179 HD
ENDBRANCH  21  22
BRANCH  21  25
HETATM   25  O1  UNL     1      24.210   3.923  17.875  1.00  0.00    -0.268 OA
ATOM     26  H1  UNL     1      24.162   3.519  18.734  1.00  0.00     0.247 HD
ENDBRANCH  21  25
ENDBRANCH  13  21
TORSDOF 5
ENDMDL