MODEL 2
REMARK VINA RESULT: -6.316394556      1.025      1.468
REMARK  2 active torsions:
REMARK  status: ('A' for Active; 'I' for Inactive)
REMARK    1  A    between atoms: C2_2  and  C5_6
REMARK    2  A    between atoms: C9_17  and  N4_18
ROOT
HETATM    1  C1  UNL     1      23.269   8.240  14.709  1.00  0.00     0.035 C
HETATM    2  C2  UNL     1      23.627   7.736  16.102  1.00  0.00     0.061 C
HETATM    3  C3  UNL     1      23.945   6.282  16.043  1.00  0.00     0.035 C
HETATM    4  C4  UNL     1      24.848   8.451  16.486  1.00  0.00     0.072 C
HETATM    5  N1  UNL     1      25.806   9.025  16.804  1.00  0.00    -0.196 NA
ENDROOT
BRANCH   2   6
HETATM    6  C5  UNL     1      22.535   8.095  17.010  1.00  0.00     0.020 C
HETATM    7  C6  UNL     1      22.247   7.502  18.146  1.00  0.00     0.054 C
HETATM    8  S1  UNL     1      23.299   6.135  18.594  1.00  0.00    -0.051 SA
HETATM    9  C10 UNL     1      21.122   7.988  18.931  1.00  0.00     0.203 C
HETATM   10  C7  UNL     1      23.521   6.114  20.367  1.00  0.00     0.143 C
HETATM   11  N2  UNL     1      24.439   5.309  20.811  1.00  0.00    -0.380 N
HETATM   12  N3  UNL     1      22.851   6.842  21.388  1.00  0.00    -0.329 N
ATOM     13  H22 UNL     1      24.920   4.787  20.079  1.00  0.00     0.158 HD
ATOM     14  H21 UNL     1      24.566   5.297  21.823  1.00  0.00     0.158 HD
HETATM   15  C8  UNL     1      21.681   7.634  21.280  1.00  0.00     0.118 C
ATOM     16  H3  UNL     1      23.265   6.788  22.318  1.00  0.00     0.168 HD
HETATM   17  S2  UNL     1      21.504   8.811  22.400  1.00  0.00    -0.062 SA
HETATM   18  C9  UNL     1      20.601   7.512  20.263  1.00  0.00     0.319 C
HETATM   19  O1  UNL     1      20.514   8.942  18.399  1.00  0.00    -0.289 OA
BRANCH  18  20
HETATM   20  N4  UNL     1      19.444   8.294  20.616  1.00  0.00    -0.062 N
ATOM     21  H43 UNL     1      19.705   9.240  20.894  1.00  0.00     0.275 HD
ATOM     22  H42 UNL     1      18.883   8.519  19.794  1.00  0.00     0.275 HD
ATOM     23  H41 UNL     1      18.883   7.837  21.335  1.00  0.00     0.275 HD
ENDBRANCH  18  20
ENDBRANCH   2   6
TORSDOF 2
ENDMDL