MODEL 4
REMARK VINA RESULT: -5.864962778      2.108      3.543
REMARK  2 active torsions:
REMARK  status: ('A' for Active; 'I' for Inactive)
REMARK    1  A    between atoms: C5_11  and  N4_12
REMARK    2  A    between atoms: C6_17  and  N6_18
ROOT
HETATM    1  C1  UNL     1      22.851   7.510  17.944  1.00  0.00     0.064 C
HETATM    2  C2  UNL     1      22.921   7.027  19.382  1.00  0.00    -0.011 C
HETATM    3  N1  UNL     1      22.108   7.685  20.106  1.00  0.00    -0.347 N
ATOM      4  H1  UNL     1      21.569   8.398  19.614  1.00  0.00     0.167 HD
HETATM    5  C3  UNL     1      21.842   7.579  21.478  1.00  0.00     0.141 A
HETATM    6  N2  UNL     1      21.275   8.687  21.985  1.00  0.00    -0.324 N
ATOM      7  H2  UNL     1      21.087   9.487  21.381  1.00  0.00     0.169 HD
HETATM    8  C4  UNL     1      20.959   8.739  23.278  1.00  0.00     0.153 A
HETATM    9  N3  UNL     1      20.387   9.822  23.850  1.00  0.00    -0.174 N
ATOM     10  H3  UNL     1      20.185  10.639  23.274  1.00  0.00     0.186 HD
HETATM   11  C5  UNL     1      20.077   9.851  25.153  1.00  0.00     0.679 A
HETATM   12  N5  UNL     1      20.323   8.792  25.967  1.00  0.00    -0.175 N
ATOM     13  H5  UNL     1      20.079   8.834  26.957  1.00  0.00     0.186 HD
HETATM   14  C6  UNL     1      20.884   7.699  25.460  1.00  0.00     0.145 A
HETATM   15  C7  UNL     1      21.202   7.676  24.114  1.00  0.00     0.123 A
HETATM   16  N7  UNL     1      21.766   6.547  23.650  1.00  0.00    -0.342 N
ATOM     17  H7  UNL     1      21.952   5.747  24.257  1.00  0.00     0.167 HD
HETATM   18  C8  UNL     1      22.069   6.533  22.347  1.00  0.00     0.115 A
HETATM   19  S1  UNL     1      22.821   4.962  21.869  1.00  0.00    -0.108 SA
HETATM   20  C9  UNL     1      24.261   5.443  20.842  1.00  0.00     0.091 C
HETATM   21  C10 UNL     1      23.873   5.972  19.535  1.00  0.00     0.036 C
HETATM   22  C11 UNL     1      23.357   4.778  18.708  1.00  0.00     0.017 C
ENDROOT
BRANCH  11  23
HETATM   23  N4  UNL     1      19.531  10.896  25.685  1.00  0.00    -0.234 N
ATOM     24  H42 UNL     1      19.000  10.761  26.546  1.00  0.00     0.174 HD
ATOM     25  H41 UNL     1      19.629  11.816  25.257  1.00  0.00     0.174 HD
ENDBRANCH  11  23
BRANCH  14  26
HETATM   26  N6  UNL     1      21.132   6.674  26.203  1.00  0.00    -0.383 N
ATOM     27  H62 UNL     1      21.808   6.744  26.963  1.00  0.00     0.157 HD
ATOM     28  H61 UNL     1      20.660   5.783  26.045  1.00  0.00     0.157 HD
ENDBRANCH  14  26
TORSDOF 2
ENDMDL