MODEL 5
REMARK VINA RESULT: -6.068762875      3.354      7.753
REMARK  4 active torsions:
REMARK  status: ('A' for Active; 'I' for Inactive)
REMARK    1  A    between atoms: C3_5  and  N2_6
REMARK    2  A    between atoms: C7_14  and  N4_15
REMARK       I    between atoms: N4_15  and  C8_17
REMARK    3  A    between atoms: C8_17  and  O2_19
REMARK    4  A    between atoms: O2_19  and  C9_20
ROOT
HETATM    1  C1  UNL     1      23.695   5.610  19.679  1.00  0.00     0.069 C
HETATM    2  C2  UNL     1      22.984   6.803  19.173  1.00  0.00     0.033 A
HETATM    3  N1  UNL     1      23.053   7.190  17.895  1.00  0.00    -0.196 N
ATOM      4  H1  UNL     1      23.618   6.638  17.249  1.00  0.00     0.184 HD
HETATM    5  C3  UNL     1      22.412   8.272  17.420  1.00  0.00     0.677 A
HETATM    6  N3  UNL     1      21.676   8.982  18.286  1.00  0.00    -0.175 N
ATOM      7  H3  UNL     1      21.179   9.808  17.953  1.00  0.00     0.186 HD
HETATM    8  C4  UNL     1      21.572   8.630  19.605  1.00  0.00     0.144 A
HETATM    9  C5  UNL     1      22.226   7.525  20.092  1.00  0.00     0.018 A
HETATM   10  C6  UNL     1      22.153   7.091  21.489  1.00  0.00     0.122 A
HETATM   11  C7  UNL     1      21.319   7.967  22.334  1.00  0.00     0.104 A
HETATM   12  N5  UNL     1      20.727   8.996  21.832  1.00  0.00    -0.287 N
ATOM     13  H5  UNL     1      20.162   9.563  22.464  1.00  0.00     0.188 HD
HETATM   14  N6  UNL     1      20.792   9.397  20.508  1.00  0.00    -0.283 N
ATOM     15  H6  UNL     1      20.291  10.227  20.189  1.00  0.00     0.188 HD
ENDROOT
BRANCH  11  16
HETATM   16  N4  UNL     1      21.182   7.651  23.728  1.00  0.00    -0.290 N
HETATM   17  C8  UNL     1      20.460   8.406  24.665  1.00  0.00     0.366 C
HETATM   18  O1  UNL     1      19.837   9.448  24.427  1.00  0.00    -0.238 OA
ATOM     19  H4  UNL     1      21.648   6.808  24.065  1.00  0.00     0.172 HD
BRANCH  17  20
HETATM   20  O2  UNL     1      20.422   7.966  25.996  1.00  0.00    -0.294 OA
BRANCH  20  21
HETATM   21  C9  UNL     1      20.305   8.868  27.069  1.00  0.00     0.061 C
HETATM   22  C10 UNL     1      18.916   8.711  27.701  1.00  0.00     0.046 C
HETATM   23  C11 UNL     1      20.495  10.267  26.536  1.00  0.00     0.046 C
HETATM   24  C12 UNL     1      21.382   8.516  28.083  1.00  0.00     0.046 C
ENDBRANCH  20  21
ENDBRANCH  17  20
ENDBRANCH  11  16
BRANCH   5  25
HETATM   25  N2  UNL     1      22.533   8.572  16.174  1.00  0.00    -0.234 N
ATOM     26  H22 UNL     1      23.160   8.084  15.535  1.00  0.00     0.174 HD
ATOM     27  H21 UNL     1      21.977   9.338  15.794  1.00  0.00     0.174 HD
ENDBRANCH   5  25
TORSDOF 4
ENDMDL