MODEL 4
REMARK VINA RESULT: -7.359879659      3.422      7.560
REMARK  8 active torsions:
REMARK  status: ('A' for Active; 'I' for Inactive)
REMARK    1  A    between atoms: C15_19  and  C16_20
REMARK    2  A    between atoms: C16_20  and  O2_21
REMARK    3  A    between atoms: C16_20  and  C17_23
REMARK    4  A    between atoms: C17_23  and  C18_24
REMARK    5  A    between atoms: C18_24  and  C19_25
REMARK    6  A    between atoms: C19_25  and  O3_26
REMARK    7  A    between atoms: C19_25  and  C20_28
REMARK    8  A    between atoms: C20_28  and  O4_29
ROOT
HETATM    1  C1  UNL     1      -2.911   4.942  11.921  1.00  0.00     0.015 C
HETATM    2  C2  UNL     1      -1.683   4.700  12.333  1.00  0.00    -0.081 C
HETATM    3  C3  UNL     1      -1.254   3.947  13.519  1.00  0.00     0.041 C
HETATM    4  C4  UNL     1      -0.069   3.071  13.022  1.00  0.00     0.032 C
HETATM    5  C5  UNL     1      -0.482   1.659  12.864  1.00  0.00     0.227 A
HETATM    6  N1  UNL     1      -0.115   0.779  11.824  1.00  0.00    -0.058 N
ATOM      7  H11 UNL     1       0.369   0.839  10.929  1.00  0.00     0.278 HD
ATOM      8  H12 UNL     1      -0.585   0.255  11.088  1.00  0.00     0.278 HD
HETATM    9  C6  UNL     1       0.261   0.563  13.302  1.00  0.00     0.151 A
HETATM   10  C7  UNL     1      -0.529  -0.622  13.919  1.00  0.00     0.048 C
HETATM   11  C8  UNL     1       1.704   0.411  13.386  1.00  0.00     0.048 C
HETATM   12  C9  UNL     1       2.498   1.293  14.280  1.00  0.00     0.081 C
HETATM   13  C10 UNL     1       3.077   2.488  13.618  1.00  0.00     0.127 C
HETATM   14  O1  UNL     1       3.844   3.138  14.309  1.00  0.00    -0.298 OA
HETATM   15  C11 UNL     1       2.815   2.941  12.251  1.00  0.00     0.079 C
HETATM   16  C12 UNL     1       1.910   4.129  12.102  1.00  0.00     0.017 C
HETATM   17  C13 UNL     1       0.468   3.815  11.853  1.00  0.00    -0.028 C
HETATM   18  C14 UNL     1       0.296   3.154  10.516  1.00  0.00     0.016 C
HETATM   19  C15 UNL     1      -0.354   5.104  11.725  1.00  0.00     0.051 C
ENDROOT
BRANCH  19  20
HETATM   20  C16 UNL     1       0.191   6.309  12.371  1.00  0.00     0.127 C
BRANCH  20  21
HETATM   21  O2  UNL     1       1.150   6.041  13.335  1.00  0.00    -0.395 OA
ATOM     22  H2  UNL     1       1.890   6.637  13.315  1.00  0.00     0.210 HD
ENDBRANCH  20  21
BRANCH  20  23
HETATM   23  C17 UNL     1       0.978   7.082  11.296  1.00  0.00     0.035 C
BRANCH  23  24
HETATM   24  C18 UNL     1       0.268   8.441  11.192  1.00  0.00     0.036 C
BRANCH  24  25
HETATM   25  C19 UNL     1       1.278   9.545  10.959  1.00  0.00     0.141 C
BRANCH  25  26
HETATM   26  O3  UNL     1       1.073  10.486  11.981  1.00  0.00    -0.393 OA
ATOM     27  H3  UNL     1       1.411  11.311  11.653  1.00  0.00     0.210 HD
ENDBRANCH  25  26
BRANCH  25  28
HETATM   28  C20 UNL     1       2.693   9.043  11.122  1.00  0.00     0.195 C
BRANCH  28  29
HETATM   29  O4  UNL     1       3.399   9.809  12.057  1.00  0.00    -0.398 OA
ATOM     30  H4  UNL     1       2.963  10.636  12.225  1.00  0.00     0.209 HD
ENDBRANCH  28  29
ENDBRANCH  25  28
ENDBRANCH  24  25
ENDBRANCH  23  24
ENDBRANCH  20  23
ENDBRANCH  19  20
TORSDOF 8
ENDMDL