MODEL 1
REMARK VINA RESULT: -7.196021065      0.000      0.000
REMARK  6 active torsions:
REMARK  status: ('A' for Active; 'I' for Inactive)
REMARK    1  A    between atoms: C2_2  and  N1_3
REMARK    2  A    between atoms: N1_3  and  C3_4
REMARK    3  A    between atoms: N1_3  and  C5_6
REMARK    4  A    between atoms: C6_7  and  N2_8
REMARK    5  A    between atoms: N2_8  and  C7_10
REMARK    6  A    between atoms: C9_14  and  C10_15
ROOT
HETATM    1  C10 UNL     1       0.185   7.172   9.590  1.00  0.00     0.171 C
HETATM    2  C11 UNL     1       1.524   7.781   9.637  1.00  0.00     0.064 C
HETATM    3  N4  UNL     1       2.580   8.280   9.689  1.00  0.00    -0.197 NA
ENDROOT
BRANCH   1   4
HETATM    4  C9  UNL     1       0.089   6.363  10.857  1.00  0.00     0.014 A
HETATM    5  C8  UNL     1      -0.377   6.761  12.086  1.00  0.00     0.105 A
HETATM    6  N3  UNL     1      -0.372   5.882  13.048  1.00  0.00    -0.345 N
HETATM    7  C7  UNL     1       0.076   4.657  12.802  1.00  0.00     0.150 A
ATOM      8  H3  UNL     1      -0.708   6.133  13.977  1.00  0.00     0.167 HD
HETATM    9  S1  UNL     1       0.512   4.734  11.154  1.00  0.00    -0.056 SA
BRANCH   7  10
HETATM   10  N2  UNL     1       0.177   3.626  13.574  1.00  0.00    -0.321 N
ATOM     11  H2  UNL     1      -0.641   3.321  14.102  1.00  0.00     0.169 HD
BRANCH  10  12
HETATM   12  C6  UNL     1       1.390   2.905  13.707  1.00  0.00     0.137 A
HETATM   13  C5  UNL     1       1.570   1.546  13.703  1.00  0.00     0.105 A
HETATM   14  C14 UNL     1       2.928   1.333  13.860  1.00  0.00     0.111 A
HETATM   15  C12 UNL     1       3.574   2.550  13.958  1.00  0.00     0.134 A
HETATM   16  N7  UNL     1       3.908   0.402  13.955  1.00  0.00    -0.293 N
HETATM   17  N5  UNL     1       2.618   3.465  13.862  1.00  0.00    -0.334 N
HETATM   18  C13 UNL     1       4.930   2.326  14.113  1.00  0.00     0.289 A
ATOM     19  H5  UNL     1       2.786   4.471  13.900  1.00  0.00     0.168 HD
HETATM   20  O1  UNL     1       5.854   3.177  14.238  1.00  0.00    -0.264 OA
HETATM   21  N6  UNL     1       5.072   0.998  14.103  1.00  0.00    -0.264 N
ATOM     22  H6  UNL     1       5.963   0.512  14.199  1.00  0.00     0.190 HD
ATOM     23  H7  UNL     1       3.765  -0.608  13.919  1.00  0.00     0.187 HD
BRANCH  13  24
HETATM   24  N1  UNL     1       0.590   0.529  13.560  1.00  0.00    -0.377 N
BRANCH  24  25
HETATM   25  C2  UNL     1       0.480  -0.523  14.550  1.00  0.00     0.118 C
HETATM   26  C1  UNL     1       0.938  -1.874  14.027  1.00  0.00     0.026 C
ENDBRANCH  24  25
BRANCH  24  27
HETATM   27  C3  UNL     1      -0.339   0.483  12.448  1.00  0.00     0.118 C
HETATM   28  C4  UNL     1      -1.767   0.689  12.852  1.00  0.00     0.026 C
ENDBRANCH  24  27
ENDBRANCH  13  24
ENDBRANCH  10  12
ENDBRANCH   7  10
ENDBRANCH   1   4
TORSDOF 6
ENDMDL