MODEL 5
REMARK VINA RESULT: -6.401027958      2.993      6.296
REMARK  9 active torsions:
REMARK  status: ('A' for Active; 'I' for Inactive)
REMARK    1  A    between atoms: C4_4  and  C5_5
REMARK    2  A    between atoms: C5_5  and  N1_7
REMARK    3  A    between atoms: N1_7  and  C6_9
REMARK    4  A    between atoms: C6_9  and  C7_10
REMARK    5  A    between atoms: C8_12  and  C9_13
REMARK    6  A    between atoms: C8_12  and  C14_18
REMARK    7  A    between atoms: C9_13  and  C10_14
REMARK    8  A    between atoms: C15_21  and  O4_22
REMARK    9  A    between atoms: C16_24  and  O5_25
ROOT
HETATM    1  C7  UNL     1       0.708   3.584  11.979  1.00  0.00     0.172 C
HETATM    2  O1  UNL     1       1.150   2.300  12.081  1.00  0.00    -0.357 OA
HETATM    3  C8  UNL     1       1.386   1.922  13.360  1.00  0.00     0.178 C
HETATM    4  C15 UNL     1       1.546   3.233  14.139  1.00  0.00     0.195 C
HETATM    5  C16 UNL     1       0.677   4.168  13.380  1.00  0.00     0.181 C
ENDROOT
BRANCH   1   6
HETATM    6  C6  UNL     1      -0.652   3.704  11.336  1.00  0.00     0.155 C
BRANCH   6   7
HETATM    7  N1  UNL     1      -0.923   4.960  10.724  1.00  0.00    -0.379 N
ATOM      8  H1  UNL     1      -0.510   5.117   9.805  1.00  0.00     0.160 HD
BRANCH   7   9
HETATM    9  C5  UNL     1      -1.709   6.022  11.256  1.00  0.00     0.096 C
HETATM   10  S1  UNL     1      -1.696   7.420  10.418  1.00  0.00    -0.061 SA
BRANCH   9  11
HETATM   11  C4  UNL     1      -2.495   5.855  12.462  1.00  0.00     0.043 C
HETATM   12  C2  UNL     1      -3.719   5.384  12.525  1.00  0.00    -0.085 C
HETATM   13  C1  UNL     1      -4.548   4.928  11.399  1.00  0.00     0.043 C
HETATM   14  C3  UNL     1      -4.324   5.311  13.916  1.00  0.00     0.043 C
ENDBRANCH   9  11
ENDBRANCH   7   9
ENDBRANCH   6   7
ENDBRANCH   1   6
BRANCH   5  15
HETATM   15  O5  UNL     1       1.183   5.468  13.414  1.00  0.00    -0.390 OA
ATOM     16  H5  UNL     1       2.019   5.513  13.863  1.00  0.00     0.210 HD
ENDBRANCH   5  15
BRANCH   3  17
HETATM   17  C9  UNL     1       0.346   1.132  14.042  1.00  0.00     0.061 C
BRANCH  17  18
HETATM   18  C10 UNL     1      -0.467   0.178  13.279  1.00  0.00    -0.048 C
HETATM   19  C11 UNL     1      -1.836   0.697  12.892  1.00  0.00     0.014 C
HETATM   20  C12 UNL     1       0.159  -0.422  12.062  1.00  0.00     0.014 C
HETATM   21  C13 UNL     1      -0.768  -1.013  14.212  1.00  0.00     0.014 C
ENDBRANCH  17  18
ENDBRANCH   3  17
BRANCH   3  22
HETATM   22  C14 UNL     1       2.707   1.243  13.544  1.00  0.00     0.212 C
HETATM   23  O2  UNL     1       2.760   0.398  14.488  1.00  0.00    -0.646 OA
HETATM   24  O3  UNL     1       3.815   1.477  12.776  1.00  0.00    -0.646 OA
ENDBRANCH   3  22
BRANCH   4  25
HETATM   25  O4  UNL     1       2.869   3.665  14.043  1.00  0.00    -0.389 OA
ATOM     26  H4  UNL     1       3.204   3.843  14.914  1.00  0.00     0.210 HD
ENDBRANCH   4  25
TORSDOF 9
ENDMDL