MODEL 5
REMARK VINA RESULT: -6.971934782      5.604      9.289
REMARK  5 active torsions:
REMARK  status: ('A' for Active; 'I' for Inactive)
REMARK    1  A    between atoms: C2_2  and  C4_4
REMARK    2  A    between atoms: C4_4  and  C5_5
REMARK    3  A    between atoms: C4_4  and  S1_17
REMARK    4  A    between atoms: S1_17  and  C10_18
REMARK    5  A    between atoms: C10_18  and  C11_19
ROOT
HETATM    1  C4  UNL     1       1.208   3.419  12.119  1.00  0.00     0.074 C
ENDROOT
BRANCH   1   2
HETATM    2  C2  UNL     1       0.143   4.098  12.942  1.00  0.00    -0.005 C
HETATM    3  C1  UNL     1      -1.247   3.611  12.775  1.00  0.00     0.011 C
HETATM    4  C3  UNL     1       0.479   3.983  14.436  1.00  0.00     0.011 C
ENDBRANCH   1   2
BRANCH   1   5
HETATM    5  C5  UNL     1       2.387   3.093  12.993  1.00  0.00     0.011 C
HETATM    6  C6  UNL     1       2.662   1.985  13.588  1.00  0.00     0.097 A
HETATM    7  C7  UNL     1       1.851   0.805  13.519  1.00  0.00     0.264 A
HETATM    8  C9  UNL     1       3.888   1.887  14.413  1.00  0.00     0.264 A
HETATM    9  O1  UNL     1       0.803   0.739  12.872  1.00  0.00    -0.267 OA
HETATM   10  N1  UNL     1       2.220  -0.404  14.218  1.00  0.00    -0.275 N
HETATM   11  C8  UNL     1       3.406  -0.449  14.996  1.00  0.00     0.329 A
ATOM     12  H1  UNL     1       1.625  -1.230  14.151  1.00  0.00     0.173 HD
HETATM   13  O2  UNL     1       3.690  -1.532  15.591  1.00  0.00    -0.246 OA
HETATM   14  N2  UNL     1       4.220   0.698  15.079  1.00  0.00    -0.275 N
ATOM     15  H2  UNL     1       5.072   0.664  15.639  1.00  0.00     0.173 HD
HETATM   16  O3  UNL     1       4.636   2.893  14.507  1.00  0.00    -0.267 OA
ENDBRANCH   1   5
BRANCH   1  17
HETATM   17  S1  UNL     1       1.753   4.344  10.679  1.00  0.00    -0.154 SA
BRANCH  17  18
HETATM   18  C10 UNL     1       0.717   5.731  10.315  1.00  0.00     0.133 C
BRANCH  18  19
HETATM   19  C11 UNL     1       1.392   7.046  10.629  1.00  0.00     0.036 A
HETATM   20  C12 UNL     1       0.831   8.164  11.197  1.00  0.00     0.116 A
HETATM   21  N3  UNL     1       1.757   9.150  11.317  1.00  0.00    -0.341 N
HETATM   22  C13 UNL     1       2.904   8.620  10.813  1.00  0.00     0.176 A
ATOM     23  H3  UNL     1       1.622  10.085  11.702  1.00  0.00     0.167 HD
HETATM   24  S2  UNL     1       4.304   9.455  10.751  1.00  0.00    -0.041 SA
HETATM   25  N4  UNL     1       2.673   7.358  10.403  1.00  0.00    -0.335 N
ATOM     26  H4  UNL     1       3.366   6.737   9.986  1.00  0.00     0.168 HD
ENDBRANCH  18  19
ENDBRANCH  17  18
ENDBRANCH   1  17
TORSDOF 5
ENDMDL