MODEL 1
REMARK VINA RESULT: -7.204260566      0.000      0.000
REMARK  10 active torsions:
REMARK  status: ('A' for Active; 'I' for Inactive)
REMARK    1  A    between atoms: C2_2  and  C3_4
REMARK    2  A    between atoms: C3_4  and  C4_5
REMARK    3  A    between atoms: C3_4  and  C10_11
REMARK    4  A    between atoms: C4_5  and  C5_6
REMARK    5  A    between atoms: C5_6  and  C6_7
REMARK    6  A    between atoms: C10_11  and  O2_12
REMARK    7  A    between atoms: C15_18  and  O3_19
REMARK    8  A    between atoms: C16_21  and  O4_22
REMARK    9  A    between atoms: C16_21  and  C17_24
REMARK   10  A    between atoms: C17_24  and  O5_25
ROOT
HETATM    1  C10 UNL     1       3.535  10.655   8.843  1.00  0.00     0.098 C
HETATM    2  C11 UNL     1       3.052  11.951   8.285  1.00  0.00     0.021 C
HETATM    3  C12 UNL     1       2.915  12.172   6.857  1.00  0.00     0.013 C
HETATM    4  C13 UNL     1       1.793  12.454   8.993  1.00  0.00     0.010 C
HETATM    5  C14 UNL     1       0.590  11.650   8.701  1.00  0.00     0.035 C
HETATM    6  C15 UNL     1       0.334  10.508   9.643  1.00  0.00     0.155 C
HETATM    7  C16 UNL     1       1.434   9.576   9.851  1.00  0.00     0.115 C
HETATM    8  C18 UNL     1       2.604   9.528   8.962  1.00  0.00     0.024 C
HETATM    9  C19 UNL     1       3.335   8.346   9.647  1.00  0.00     0.022 C
HETATM   10  C20 UNL     1       2.104   8.975   7.619  1.00  0.00     0.022 C
ENDROOT
BRANCH   1  11
HETATM   11  C3  UNL     1       4.937  10.438   8.438  1.00  0.00     0.001 C
BRANCH  11  12
HETATM   12  C2  UNL     1       5.871  11.546   8.744  1.00  0.00     0.150 C
HETATM   13  C1  UNL     1       6.633  12.351   7.745  1.00  0.00     0.096 C
HETATM   14  O1  UNL     1       6.139  11.957   9.891  1.00  0.00    -0.293 OA
ENDBRANCH  11  12
BRANCH  11  15
HETATM   15  C4  UNL     1       5.359   9.712   7.267  1.00  0.00     0.045 C
BRANCH  15  16
HETATM   16  C5  UNL     1       6.418   8.657   7.342  1.00  0.00     0.032 C
BRANCH  16  17
HETATM   17  C6  UNL     1       7.448   8.597   6.322  1.00  0.00    -0.024 C
HETATM   18  C7  UNL     1       8.186   7.488   6.093  1.00  0.00    -0.091 C
HETATM   19  C8  UNL     1       9.210   7.543   5.026  1.00  0.00     0.042 C
HETATM   20  C9  UNL     1       8.005   6.252   6.862  1.00  0.00     0.042 C
ENDBRANCH  16  17
ENDBRANCH  15  16
ENDBRANCH  11  15
ENDBRANCH   1  11
BRANCH   1  21
HETATM   21  O2  UNL     1       3.629  11.024  10.238  1.00  0.00    -0.384 OA
ATOM     22  H2  UNL     1       3.512  11.966  10.234  1.00  0.00     0.211 HD
ENDBRANCH   1  21
BRANCH   7  23
HETATM   23  O4  UNL     1       0.791   8.308   9.575  1.00  0.00    -0.384 OA
ATOM     24  H4  UNL     1       1.505   7.816   9.188  1.00  0.00     0.210 HD
ENDBRANCH   7  23
BRANCH   7  25
HETATM   25  C17 UNL     1       1.675   9.415  11.340  1.00  0.00     0.205 C
BRANCH  25  26
HETATM   26  O5  UNL     1       1.108  10.558  11.978  1.00  0.00    -0.398 OA
ATOM     27  H5  UNL     1       1.830  11.055  12.345  1.00  0.00     0.209 HD
ENDBRANCH  25  26
ENDBRANCH   7  25
BRANCH   6  28
HETATM   28  O3  UNL     1      -0.946   9.938   9.440  1.00  0.00    -0.392 OA
ATOM     29  H3  UNL     1      -0.953   9.010   9.643  1.00  0.00     0.210 HD
ENDBRANCH   6  28
TORSDOF 10
ENDMDL