MODEL 4
REMARK VINA RESULT: -7.083474584      3.245      8.445
REMARK  8 active torsions:
REMARK  status: ('A' for Active; 'I' for Inactive)
REMARK    1  A    between atoms: C2_2  and  O1_3
REMARK    2  A    between atoms: O1_3  and  C3_4
REMARK       I    between atoms: C3_4  and  N1_6
REMARK    3  A    between atoms: C5_8  and  O3_9
REMARK    4  A    between atoms: C5_8  and  C6_11
REMARK    5  A    between atoms: C11_17  and  C12_18
REMARK    6  A    between atoms: C12_18  and  C13_19
REMARK    7  A    between atoms: C14_20  and  C15_21
REMARK    8  A    between atoms: C17_25  and  N4_26
ROOT
HETATM    1  C6  UNL     1       0.862   2.127  13.061  1.00  0.00     0.164 C
HETATM    2  C7  UNL     1       2.146   1.617  13.507  1.00  0.00     0.062 C
HETATM    3  N2  UNL     1       3.168   1.190  13.885  1.00  0.00    -0.197 NA
ENDROOT
BRANCH   1   4
HETATM    4  C5  UNL     1       0.823   3.611  12.857  1.00  0.00     0.095 C
HETATM    5  C4  UNL     1      -0.368   4.234  13.530  1.00  0.00     0.168 C
HETATM    6  N1  UNL     1      -1.105   4.938  12.536  1.00  0.00    -0.319 N
HETATM    7  C3  UNL     1      -2.445   5.350  12.620  1.00  0.00     0.363 C
HETATM    8  C11 UNL     1      -0.224   5.153  11.423  1.00  0.00     0.103 C
HETATM    9  O2  UNL     1      -3.127   5.106  13.651  1.00  0.00    -0.238 OA
HETATM   10  C8  UNL     1       0.755   4.048  11.410  1.00  0.00     0.007 C
HETATM   11  C9  UNL     1       0.182   2.903  10.546  1.00  0.00     0.020 C
HETATM   12  C10 UNL     1       2.096   4.343  10.849  1.00  0.00     0.020 C
BRANCH   7  13
HETATM   13  O1  UNL     1      -3.044   6.029  11.576  1.00  0.00    -0.304 OA
BRANCH  13  14
HETATM   14  C2  UNL     1      -3.559   7.344  11.706  1.00  0.00     0.176 C
HETATM   15  C1  UNL     1      -3.090   8.174  10.534  1.00  0.00     0.034 C
ENDBRANCH  13  14
ENDBRANCH   7  13
BRANCH   8  16
HETATM   16  C12 UNL     1       0.287   6.562  11.331  1.00  0.00     0.053 C
BRANCH  16  17
HETATM   17  C13 UNL     1       0.472   7.098  10.002  1.00  0.00    -0.022 C
HETATM   18  C14 UNL     1       1.391   7.855   9.521  1.00  0.00     0.027 C
BRANCH  18  19
HETATM   19  C15 UNL     1       2.574   8.463  10.062  1.00  0.00     0.064 A
HETATM   20  C16 UNL     1       2.552   9.503  11.013  1.00  0.00     0.136 A
HETATM   21  N3  UNL     1       3.806   9.869  11.312  1.00  0.00    -0.200 N
HETATM   22  C17 UNL     1       4.627   9.118  10.606  1.00  0.00     0.676 A
ATOM     23  H3  UNL     1       4.078  10.599  11.971  1.00  0.00     0.183 HD
HETATM   24  N5  UNL     1       3.876   8.274   9.854  1.00  0.00    -0.191 N
ATOM     25  H5  UNL     1       4.260   7.582   9.211  1.00  0.00     0.184 HD
BRANCH  22  26
HETATM   26  N4  UNL     1       5.915   9.180  10.628  1.00  0.00    -0.234 N
ATOM     27  H42 UNL     1       6.482  10.014  10.472  1.00  0.00     0.174 HD
ATOM     28  H41 UNL     1       6.548   8.400  10.805  1.00  0.00     0.174 HD
ENDBRANCH  22  26
ENDBRANCH  18  19
ENDBRANCH  16  17
ENDBRANCH   8  16
BRANCH   4  29
HETATM   29  O3  UNL     1       1.967   4.125  13.502  1.00  0.00    -0.386 OA
ATOM     30  H3  UNL     1       2.693   3.561  13.260  1.00  0.00     0.210 HD
ENDBRANCH   4  29
ENDBRANCH   1   4
TORSDOF 8
ENDMDL