MODEL 4
REMARK VINA RESULT: -5.851755791      4.185      5.622
REMARK  9 active torsions:
REMARK  status: ('A' for Active; 'I' for Inactive)
REMARK    1  A    between atoms: C2_2  and  C3_3
REMARK    2  A    between atoms: C3_3  and  C4_4
REMARK    3  A    between atoms: C4_4  and  C5_5
REMARK    4  A    between atoms: C5_5  and  O1_6
REMARK    5  A    between atoms: C10_13  and  O3_14
REMARK    6  A    between atoms: C11_16  and  O4_17
REMARK    7  A    between atoms: C12_19  and  C13_20
REMARK    8  A    between atoms: C13_20  and  O5_21
REMARK    9  A    between atoms: C13_20  and  C14_23
ROOT
HETATM    1  C4  UNL     1      -3.768   2.789  12.033  1.00  0.00     0.109 C
HETATM    2  O2  UNL     1      -2.686   1.933  12.098  1.00  0.00    -0.366 OA
HETATM    3  C6  UNL     1      -1.542   2.717  11.816  1.00  0.00     0.142 C
HETATM    4  C7  UNL     1      -1.784   4.067  12.300  1.00  0.00     0.078 C
HETATM    5  C8  UNL     1      -3.260   4.024  12.631  1.00  0.00    -0.043 C
HETATM    6  C9  UNL     1      -3.860   4.960  13.326  1.00  0.00     0.018 C
HETATM    7  C10 UNL     1      -1.057   4.574  13.477  1.00  0.00     0.158 C
HETATM    8  C11 UNL     1       0.271   3.943  13.761  1.00  0.00     0.155 C
HETATM    9  C12 UNL     1       0.745   3.033  12.659  1.00  0.00     0.056 C
HETATM   10  C17 UNL     1      -0.295   2.007  12.372  1.00  0.00    -0.012 C
HETATM   11  C18 UNL     1      -0.777   1.239  13.564  1.00  0.00     0.018 C
HETATM   12  C19 UNL     1       0.095   1.017  11.291  1.00  0.00     0.018 C
ENDROOT
BRANCH   1  13
HETATM   13  C3  UNL     1      -4.182   3.069  10.610  1.00  0.00     0.071 C
BRANCH  13  14
HETATM   14  C2  UNL     1      -5.625   3.326  10.500  1.00  0.00    -0.033 C
HETATM   15  C1  UNL     1      -6.062   4.520  10.139  1.00  0.00     0.007 C
ENDBRANCH  13  14
ENDBRANCH   1  13
BRANCH   1  16
HETATM   16  C5  UNL     1      -4.929   2.298  12.871  1.00  0.00     0.207 C
BRANCH  16  17
HETATM   17  O1  UNL     1      -4.757   0.999  13.305  1.00  0.00    -0.398 OA
ATOM     18  H1  UNL     1      -4.965   0.891  14.226  1.00  0.00     0.209 HD
ENDBRANCH  16  17
ENDBRANCH   1  16
BRANCH   7  19
HETATM   19  O3  UNL     1      -0.939   5.984  13.326  1.00  0.00    -0.392 OA
ATOM     20  H3  UNL     1      -0.884   6.357  14.199  1.00  0.00     0.210 HD
ENDBRANCH   7  19
BRANCH   9  21
HETATM   21  C13 UNL     1       2.154   2.681  12.649  1.00  0.00     0.129 C
BRANCH  21  22
HETATM   22  O5  UNL     1       2.826   3.829  12.102  1.00  0.00    -0.395 OA
ATOM     23  H5  UNL     1       2.137   4.372  11.740  1.00  0.00     0.210 HD
ENDBRANCH  21  22
BRANCH  21  24
HETATM   24  C14 UNL     1       2.979   2.256  13.748  1.00  0.00     0.007 C
HETATM   25  C15 UNL     1       2.978   0.796  14.128  1.00  0.00     0.012 C
HETATM   26  C16 UNL     1       4.394   2.735  13.883  1.00  0.00     0.012 C
ENDBRANCH  21  24
ENDBRANCH   9  21
BRANCH   8  27
HETATM   27  O4  UNL     1       1.207   4.999  13.880  1.00  0.00    -0.392 OA
ATOM     28  H4  UNL     1       2.010   4.616  14.213  1.00  0.00     0.210 HD
ENDBRANCH   8  27
TORSDOF 9
ENDMDL