MODEL 4
REMARK VINA RESULT: -7.255907451      2.799      6.829
REMARK  9 active torsions:
REMARK  status: ('A' for Active; 'I' for Inactive)
REMARK    1  A    between atoms: C2_2  and  N1_4
REMARK    2  A    between atoms: N1_4  and  C4_5
REMARK    3  A    between atoms: C4_5  and  C5_6
REMARK    4  A    between atoms: C8_11  and  C9_12
REMARK    5  A    between atoms: C14_21  and  N5_22
REMARK    6  A    between atoms: C15_24  and  C16_25
REMARK    7  A    between atoms: C16_25  and  O1_26
REMARK    8  A    between atoms: C16_25  and  C17_28
REMARK    9  A    between atoms: C17_28  and  O2_29
ROOT
HETATM    1  C5  UNL     1       2.192   0.842  13.877  1.00  0.00     0.038 A
HETATM    2  C6  UNL     1       1.083   1.266  13.160  1.00  0.00     0.051 A
HETATM    3  C7  UNL     1       1.023   2.611  12.802  1.00  0.00     0.079 A
HETATM    4  N2  UNL     1       0.104   3.309  12.109  1.00  0.00    -0.342 N
ATOM      5  H2  UNL     1      -0.764   2.945  11.714  1.00  0.00     0.167 HD
HETATM    6  C8  UNL     1       0.555   4.598  12.035  1.00  0.00     0.091 A
HETATM    7  N3  UNL     1       1.713   4.708  12.658  1.00  0.00    -0.330 N
ATOM      8  H3  UNL     1       2.270   5.557  12.755  1.00  0.00     0.168 HD
HETATM    9  C13 UNL     1       2.026   3.475  13.149  1.00  0.00     0.135 A
HETATM   10  N4  UNL     1       3.067   3.059  13.828  1.00  0.00    -0.326 N
ATOM     11  H4  UNL     1       3.800   3.724  14.076  1.00  0.00     0.169 HD
HETATM   12  C14 UNL     1       3.194   1.725  14.220  1.00  0.00     0.119 A
ENDROOT
BRANCH  12  13
HETATM   13  N5  UNL     1       4.207   1.448  14.828  1.00  0.00    -0.353 N
HETATM   14  C15 UNL     1       5.537   1.501  15.108  1.00  0.00     0.096 C
ATOM     15  H5  UNL     1       3.863   0.803  15.539  1.00  0.00     0.166 HD
BRANCH  14  16
HETATM   16  C16 UNL     1       5.988   0.639  16.300  1.00  0.00     0.180 C
BRANCH  16  17
HETATM   17  O1  UNL     1       6.858  -0.316  15.719  1.00  0.00    -0.388 OA
ATOM     18  H1  UNL     1       7.600  -0.338  16.310  1.00  0.00     0.210 HD
ENDBRANCH  16  17
BRANCH  16  19
HETATM   19  C17 UNL     1       4.826  -0.113  16.918  1.00  0.00     0.201 C
BRANCH  19  20
HETATM   20  O2  UNL     1       4.780  -1.403  16.444  1.00  0.00    -0.398 OA
ATOM     21  H2  UNL     1       4.953  -1.419  15.510  1.00  0.00     0.209 HD
ENDBRANCH  19  20
ENDBRANCH  16  19
ENDBRANCH  14  16
ENDBRANCH  12  13
BRANCH   1  22
HETATM   22  C4  UNL     1       2.307  -0.593  14.242  1.00  0.00     0.190 C
BRANCH  22  23
HETATM   23  N1  UNL     1       1.370  -1.254  14.577  1.00  0.00    -0.455 NA
BRANCH  23  24
HETATM   24  C2  UNL     1       0.233  -1.713  15.053  1.00  0.00     0.154 C
HETATM   25  C1  UNL     1       0.197  -3.198  15.435  1.00  0.00     0.047 C
HETATM   26  C3  UNL     1      -0.927  -1.440  14.064  1.00  0.00     0.047 C
ENDBRANCH  23  24
ENDBRANCH  22  23
ENDBRANCH   1  22
BRANCH   6  27
HETATM   27  C9  UNL     1      -0.199   5.689  11.329  1.00  0.00     0.007 C
HETATM   28  C10 UNL     1      -0.396   6.875  12.277  1.00  0.00     0.022 C
HETATM   29  C11 UNL     1       0.491   6.194  10.110  1.00  0.00     0.022 C
HETATM   30  C12 UNL     1      -1.590   5.168  11.055  1.00  0.00     0.022 C
ENDBRANCH   6  27
TORSDOF 9
ENDMDL