MODEL 2
REMARK VINA RESULT: -7.924745654      8.662     10.927
REMARK  7 active torsions:
REMARK  status: ('A' for Active; 'I' for Inactive)
REMARK    1  A    between atoms: C2_2  and  C4_4
REMARK    2  A    between atoms: C4_4  and  C5_5
REMARK    3  A    between atoms: C5_5  and  C6_6
REMARK    4  A    between atoms: C6_6  and  C8_8
REMARK    5  A    between atoms: C16_19  and  O2_20
REMARK    6  A    between atoms: C18_24  and  C19_25
REMARK    7  A    between atoms: C19_25  and  O4_26
ROOT
HETATM    1  C8  UNL     1       4.991  10.991   7.111  1.00  0.00     0.090 C
HETATM    2  C9  UNL     1       3.837  10.255   6.550  1.00  0.00     0.136 C
HETATM    3  O1  UNL     1       3.951   9.506   5.606  1.00  0.00    -0.297 OA
HETATM    4  C10 UNL     1       2.434  10.323   7.041  1.00  0.00     0.107 C
HETATM    5  C11 UNL     1       2.286   9.149   8.018  1.00  0.00     0.125 C
HETATM    6  N1  UNL     1       0.951   8.785   8.198  1.00  0.00    -0.394 N
ATOM      7  H1  UNL     1       0.525   8.091   7.583  1.00  0.00     0.159 HD
HETATM    8  C12 UNL     1       0.197   9.371   9.219  1.00  0.00     0.056 C
HETATM    9  C13 UNL     1       0.934  10.136  10.252  1.00  0.00     0.052 C
HETATM   10  C14 UNL     1       2.260   9.550  10.495  1.00  0.00     0.032 C
HETATM   11  C15 UNL     1       2.420   8.089  10.652  1.00  0.00     0.043 C
HETATM   12  C16 UNL     1       3.697   8.220   9.805  1.00  0.00     0.155 C
HETATM   13  C17 UNL     1       3.117   9.457   9.223  1.00  0.00     0.112 C
HETATM   14  O3  UNL     1       3.823  10.587   9.088  1.00  0.00    -0.367 OA
HETATM   15  C18 UNL     1       5.083  10.580   8.571  1.00  0.00     0.158 C
ENDROOT
BRANCH   1  16
HETATM   16  C6  UNL     1       6.248  10.918   6.357  1.00  0.00    -0.005 C
HETATM   17  C7  UNL     1       6.977  12.199   6.135  1.00  0.00     0.011 C
BRANCH  16  18
HETATM   18  C5  UNL     1       7.238   9.902   6.883  1.00  0.00     0.005 C
BRANCH  18  19
HETATM   19  C4  UNL     1       7.299   8.660   6.036  1.00  0.00     0.004 C
BRANCH  19  20
HETATM   20  C2  UNL     1       8.513   7.827   6.227  1.00  0.00    -0.023 C
HETATM   21  C1  UNL     1       8.033   6.477   6.786  1.00  0.00     0.009 C
HETATM   22  C3  UNL     1       9.123   7.516   4.877  1.00  0.00     0.009 C
ENDBRANCH  19  20
ENDBRANCH  18  19
ENDBRANCH  16  18
ENDBRANCH   1  16
BRANCH  15  23
HETATM   23  C19 UNL     1       5.839  11.712   9.283  1.00  0.00     0.197 C
BRANCH  23  24
HETATM   24  O4  UNL     1       5.513  11.763  10.641  1.00  0.00    -0.398 OA
ATOM     25  H4  UNL     1       5.401  10.890  11.001  1.00  0.00     0.209 HD
ENDBRANCH  23  24
ENDBRANCH  15  23
BRANCH  12  26
HETATM   26  O2  UNL     1       4.777   8.296  10.638  1.00  0.00    -0.392 OA
ATOM     27  H2  UNL     1       5.553   8.478  10.121  1.00  0.00     0.210 HD
ENDBRANCH  12  26
TORSDOF 7
ENDMDL