MODEL 2
REMARK VINA RESULT: -7.640716816      1.358      1.595
REMARK  8 active torsions:
REMARK  status: ('A' for Active; 'I' for Inactive)
REMARK    1  A    between atoms: C4_4  and  C5_5
REMARK    2  A    between atoms: C5_5  and  O1_6
REMARK    3  A    between atoms: C5_5  and  C6_8
REMARK    4  A    between atoms: C6_8  and  C8_10
REMARK    5  A    between atoms: C8_10  and  C9_11
REMARK    6  A    between atoms: C13_15  and  O2_16
REMARK    7  A    between atoms: C15_21  and  O3_22
REMARK    8  A    between atoms: O3_22  and  C16_23
ROOT
HETATM    1  C9  UNL     1      -0.178   2.247  13.477  1.00  0.00    -0.010 C
HETATM    2  C10 UNL     1       0.796   1.403  13.729  1.00  0.00     0.023 A
HETATM    3  C11 UNL     1       0.508   0.029  13.698  1.00  0.00     0.003 A
HETATM    4  C12 UNL     1      -0.893  -0.435  13.378  1.00  0.00     0.054 C
HETATM    5  C13 UNL     1       1.504  -0.866  13.958  1.00  0.00     0.147 A
HETATM    6  N1  UNL     1       2.742  -0.438  14.241  1.00  0.00    -0.332 N
ATOM      7  H1  UNL     1       3.473  -1.123  14.432  1.00  0.00     0.168 HD
HETATM    8  C14 UNL     1       3.046   0.866  14.279  1.00  0.00     0.108 A
HETATM    9  C15 UNL     1       4.291   1.271  14.564  1.00  0.00     0.182 C
HETATM   10  C17 UNL     1       2.071   1.816  14.022  1.00  0.00     0.211 A
HETATM   11  O6  UNL     1       2.423   3.039  14.072  1.00  0.00    -0.285 OA
ENDROOT
BRANCH   1  12
HETATM   12  C8  UNL     1      -0.149   3.696  13.445  1.00  0.00     0.035 C
BRANCH  12  13
HETATM   13  C6  UNL     1      -1.203   4.327  12.531  1.00  0.00     0.017 C
HETATM   14  C7  UNL     1      -2.461   3.480  12.510  1.00  0.00     0.013 C
BRANCH  13  15
HETATM   15  C5  UNL     1      -0.636   4.255  11.129  1.00  0.00     0.145 C
BRANCH  15  16
HETATM   16  C4  UNL     1      -0.031   5.555  10.759  1.00  0.00     0.007 C
HETATM   17  C2  UNL     1       1.263   5.689  10.584  1.00  0.00    -0.089 C
HETATM   18  C1  UNL     1       2.151   4.518  10.758  1.00  0.00     0.042 C
HETATM   19  C3  UNL     1       1.895   6.985  10.213  1.00  0.00     0.042 C
ENDBRANCH  15  16
BRANCH  15  20
HETATM   20  O1  UNL     1      -1.664   3.871  10.277  1.00  0.00    -0.391 OA
ATOM     21  H1  UNL     1      -2.478   4.332  10.445  1.00  0.00     0.210 HD
ENDBRANCH  15  20
ENDBRANCH  13  15
ENDBRANCH  12  13
ENDBRANCH   1  12
BRANCH   5  22
HETATM   22  O2  UNL     1       1.201  -2.239  13.923  1.00  0.00    -0.346 OA
ATOM     23  H2  UNL     1       0.309  -2.511  14.102  1.00  0.00     0.219 HD
ENDBRANCH   5  22
BRANCH   9  24
HETATM   24  O3  UNL     1       5.240   0.308  14.814  1.00  0.00    -0.263 OA
BRANCH  24  25
HETATM   25  C16 UNL     1       5.401  -0.205  16.097  1.00  0.00     0.337 C
HETATM   26  O4  UNL     1       6.178   0.361  16.916  1.00  0.00    -0.623 OA
HETATM   27  O5  UNL     1       4.715  -1.330  16.475  1.00  0.00    -0.623 OA
ENDBRANCH  24  25
ENDBRANCH   9  24
TORSDOF 8
ENDMDL