MODEL 5
REMARK VINA RESULT: -7.356529044      4.265      6.847
REMARK  8 active torsions:
REMARK  status: ('A' for Active; 'I' for Inactive)
REMARK    1  A    between atoms: C1_2  and  C2_4
REMARK    2  A    between atoms: C2_4  and  C3_5
REMARK    3  A    between atoms: C6_8  and  N1_9
REMARK    4  A    between atoms: N1_9  and  C7_10
REMARK    5  A    between atoms: N1_9  and  C14_21
REMARK    6  A    between atoms: C7_10  and  C8_11
REMARK       I    between atoms: N2_14  and  C11_15
REMARK    7  A    between atoms: C11_15  and  O4_17
REMARK    8  A    between atoms: C19_26  and  C20_27
ROOT
HETATM    1  N1  UNL     1     -18.674  -7.533  13.729  1.00  0.00    -0.383 N
ENDROOT
BRANCH   1   2
HETATM    2  C6  UNL     1     -19.083  -6.215  13.789  1.00  0.00     0.098 C
HETATM    3  C5  UNL     1     -17.910  -5.266  13.706  1.00  0.00     0.026 C
HETATM    4  C4  UNL     1     -18.391  -3.842  14.074  1.00  0.00     0.007 C
HETATM    5  C3  UNL     1     -19.146  -3.394  12.828  1.00  0.00    -0.004 C
HETATM    6  C21 UNL     1     -19.870  -4.463  12.125  1.00  0.00     0.022 C
HETATM    7  C19 UNL     1     -20.151  -5.728  12.853  1.00  0.00     0.110 C
BRANCH   5   8
HETATM    8  C2  UNL     1     -19.875  -2.106  13.072  1.00  0.00     0.117 C
BRANCH   8   9
HETATM    9  C1  UNL     1     -20.376  -1.507  11.813  1.00  0.00     0.172 C
HETATM   10  O1  UNL     1     -19.553  -0.960  11.033  1.00  0.00    -0.648 OA
HETATM   11  O2  UNL     1     -21.715  -1.523  11.456  1.00  0.00    -0.648 OA
ENDBRANCH   8   9
ENDBRANCH   5   8
BRANCH   7  12
HETATM   12  C20 UNL     1     -21.472  -5.571  13.522  1.00  0.00     0.179 C
HETATM   13  O5  UNL     1     -21.986  -6.542  14.143  1.00  0.00    -0.648 OA
HETATM   14  O6  UNL     1     -22.205  -4.407  13.517  1.00  0.00    -0.648 OA
ENDBRANCH   7  12
ENDBRANCH   1   2
BRANCH   1  15
HETATM   15  C7  UNL     1     -18.197  -8.169  12.588  1.00  0.00     0.064 C
BRANCH  15  16
HETATM   16  C8  UNL     1     -17.393  -7.488  11.565  1.00  0.00     0.027 C
HETATM   17  C9  UNL     1     -15.996  -8.018  11.394  1.00  0.00     0.030 C
HETATM   18  C10 UNL     1     -15.895  -9.179  10.431  1.00  0.00     0.129 C
HETATM   19  N2  UNL     1     -16.144  -8.599   9.109  1.00  0.00    -0.327 N
HETATM   20  C11 UNL     1     -15.538  -9.048   7.928  1.00  0.00     0.379 C
HETATM   21  C12 UNL     1     -17.088  -7.494   9.110  1.00  0.00     0.129 C
HETATM   22  O3  UNL     1     -14.718  -9.995   7.877  1.00  0.00    -0.237 OA
HETATM   23  C13 UNL     1     -18.087  -7.802  10.202  1.00  0.00     0.030 C
BRANCH  20  24
HETATM   24  O4  UNL     1     -15.859  -8.412   6.732  1.00  0.00    -0.186 OA
HETATM   25 CL1  UNL     1     -17.247  -8.937   5.849  1.00  0.00     0.072 Cl
ENDBRANCH  20  24
ENDBRANCH  15  16
ENDBRANCH   1  15
BRANCH   1  26
HETATM   26  C14 UNL     1     -18.842  -8.399  14.864  1.00  0.00     0.084 C
HETATM   27  C15 UNL     1     -19.346  -7.798  16.122  1.00  0.00     0.025 C
HETATM   28  C16 UNL     1     -18.226  -7.856  17.139  1.00  0.00     0.002 C
HETATM   29  C17 UNL     1     -17.136  -8.703  16.547  1.00  0.00     0.002 C
HETATM   30  C18 UNL     1     -17.615  -9.211  15.216  1.00  0.00     0.025 C
ENDBRANCH   1  26
TORSDOF 8
ENDMDL