MODEL 1
REMARK VINA RESULT: -8.678418420      0.000      0.000
REMARK  8 active torsions:
REMARK  status: ('A' for Active; 'I' for Inactive)
REMARK    1  A    between atoms: C2_2  and  C3_3
REMARK    2  A    between atoms: C3_3  and  C4_4
REMARK    3  A    between atoms: C4_4  and  C5_5
REMARK       I    between atoms: C5_5  and  N1_7
REMARK    4  A    between atoms: C8_10  and  C9_11
REMARK    5  A    between atoms: C9_11  and  C10_12
REMARK    6  A    between atoms: C10_12  and  N2_13
REMARK    7  A    between atoms: C12_18  and  N4_19
REMARK    8  A    between atoms: N4_19  and  C13_20
ROOT
HETATM    1  N2  UNL     1     -18.244  -7.588  10.260  1.00  0.00    -0.354 N
ATOM      2  H2  UNL     1     -18.926  -6.988   9.796  1.00  0.00     0.166 HD
HETATM    3  C11 UNL     1     -18.445  -7.513  11.470  1.00  0.00     0.131 A
HETATM    4  N3  UNL     1     -17.767  -8.139  12.405  1.00  0.00    -0.301 N
ATOM      5  H3  UNL     1     -16.990  -8.732  12.114  1.00  0.00     0.171 HD
HETATM    6  C12 UNL     1     -18.034  -8.045  13.738  1.00  0.00     0.261 A
HETATM    7  N7  UNL     1     -19.086  -7.241  14.147  1.00  0.00    -0.325 N
ATOM      8  H7  UNL     1     -19.315  -7.148  15.137  1.00  0.00     0.169 HD
HETATM    9  C19 UNL     1     -19.793  -6.591  13.223  1.00  0.00     0.119 A
HETATM   10  C20 UNL     1     -19.508  -6.698  11.892  1.00  0.00     0.093 A
HETATM   11 CL1  UNL     1     -20.432  -5.848  10.705  1.00  0.00    -0.079 Cl
ENDROOT
BRANCH   1  12
HETATM   12  C10 UNL     1     -17.465  -8.160   9.288  1.00  0.00     0.063 C
BRANCH  12  13
HETATM   13  C9  UNL     1     -16.125  -8.750   9.697  1.00  0.00     0.049 C
BRANCH  13  14
HETATM   14  C8  UNL     1     -16.060 -10.219   9.358  1.00  0.00    -0.007 C
HETATM   15  C7  UNL     1     -17.441 -10.789   9.271  1.00  0.00     0.025 C
HETATM   16  C6  UNL     1     -17.382 -12.233   8.827  1.00  0.00     0.126 C
HETATM   17  N1  UNL     1     -16.610 -12.973   9.807  1.00  0.00    -0.352 N
HETATM   18  C5  UNL     1     -16.875 -14.355  10.023  1.00  0.00     0.219 C
HETATM   19  C22 UNL     1     -15.585 -12.379  10.590  1.00  0.00     0.126 C
HETATM   20  O1  UNL     1     -17.785 -14.901   9.368  1.00  0.00    -0.273 OA
HETATM   21  C21 UNL     1     -15.190 -10.990  10.321  1.00  0.00     0.025 C
BRANCH  18  22
HETATM   22  C4  UNL     1     -16.085 -15.116  10.993  1.00  0.00     0.103 C
BRANCH  22  23
HETATM   23  C3  UNL     1     -16.232 -16.592  10.754  1.00  0.00     0.009 C
BRANCH  23  24
HETATM   24  C2  UNL     1     -15.866 -17.294  12.061  1.00  0.00    -0.004 C
HETATM   25  C1  UNL     1     -15.176 -16.344  12.995  1.00  0.00     0.005 C
ENDBRANCH  23  24
ENDBRANCH  22  23
ENDBRANCH  18  22
ENDBRANCH  13  14
ENDBRANCH  12  13
ENDBRANCH   1  12
BRANCH   6  26
HETATM   26  N4  UNL     1     -17.405  -8.602  14.596  1.00  0.00    -0.367 NA
BRANCH  26  27
HETATM   27  C13 UNL     1     -16.664  -9.147  15.529  1.00  0.00     0.158 A
HETATM   28  C14 UNL     1     -15.527  -9.980  15.344  1.00  0.00     0.065 A
HETATM   29  C15 UNL     1     -15.016 -10.339  13.995  1.00  0.00     0.073 C
HETATM   30  N5  UNL     1     -15.089 -10.311  16.557  1.00  0.00    -0.300 N
HETATM   31  N6  UNL     1     -15.816  -9.783  17.500  1.00  0.00    -0.298 N
ATOM     32  H5  UNL     1     -14.279 -10.907  16.729  1.00  0.00     0.187 HD
HETATM   33  C16 UNL     1     -15.610  -9.946  18.949  1.00  0.00     0.177 C
HETATM   34  C17 UNL     1     -16.789  -9.064  16.931  1.00  0.00     0.067 A
HETATM   35  C18 UNL     1     -17.844  -8.289  17.619  1.00  0.00     0.074 C
ENDBRANCH  26  27
ENDBRANCH   6  26
TORSDOF 8
ENDMDL