MODEL 3
REMARK VINA RESULT: -8.422544523      1.606      1.860
REMARK  8 active torsions:
REMARK  status: ('A' for Active; 'I' for Inactive)
REMARK    1  A    between atoms: C3_6  and  O2_7
REMARK    2  A    between atoms: N2_9  and  C4_10
REMARK    3  A    between atoms: C4_10  and  C5_11
REMARK    4  A    between atoms: C5_11  and  C6_12
REMARK    5  A    between atoms: C6_12  and  C7_13
REMARK    6  A    between atoms: C7_13  and  C8_14
REMARK    7  A    between atoms: C8_14  and  N3_15
REMARK    8  A    between atoms: N4_18  and  C11_19
ROOT
HETATM    1  N3  UNL     1     -16.890  -8.853  10.554  1.00  0.00    -0.390 N
HETATM    2  C9  UNL     1     -17.691  -9.225   9.465  1.00  0.00     0.141 C
HETATM    3  C10 UNL     1     -17.001 -10.374   8.720  1.00  0.00     0.143 C
HETATM    4  N4  UNL     1     -16.284 -11.262   9.597  1.00  0.00    -0.378 N
HETATM    5  C20 UNL     1     -15.218 -10.655  10.411  1.00  0.00     0.143 C
HETATM    6  C21 UNL     1     -15.525  -9.209  10.570  1.00  0.00     0.141 C
ENDROOT
BRANCH   1   7
HETATM    7  C8  UNL     1     -17.445  -8.780  11.843  1.00  0.00     0.058 C
BRANCH   7   8
HETATM    8  C7  UNL     1     -17.770  -7.385  12.331  1.00  0.00     0.044 C
BRANCH   8   9
HETATM    9  C6  UNL     1     -19.255  -7.243  12.594  1.00  0.00     0.007 C
BRANCH   9  10
HETATM   10  C5  UNL     1     -20.036  -6.684  11.457  1.00  0.00     0.021 C
BRANCH  10  11
HETATM   11  C4  UNL     1     -19.385  -5.522  10.780  1.00  0.00     0.136 C
BRANCH  11  12
HETATM   12  N2  UNL     1     -19.781  -4.277  11.384  1.00  0.00    -0.279 N
HETATM   13  C1  UNL     1     -19.042  -3.575  12.247  1.00  0.00     0.328 A
HETATM   14  O1  UNL     1     -17.881  -3.860  12.697  1.00  0.00    -0.246 OA
HETATM   15  N1  UNL     1     -19.686  -2.454  12.625  1.00  0.00    -0.314 N
HETATM   16  C2  UNL     1     -20.866  -2.422  12.000  1.00  0.00     0.148 A
ATOM     17  H1  UNL     1     -19.334  -1.752  13.276  1.00  0.00     0.170 HD
HETATM   18  C3  UNL     1     -20.916  -3.574  11.222  1.00  0.00     0.162 A
BRANCH  18  19
HETATM   19  O2  UNL     1     -21.962  -3.944  10.408  1.00  0.00    -0.345 OA
ATOM     20  H2  UNL     1     -22.010  -3.796   9.471  1.00  0.00     0.219 HD
ENDBRANCH  18  19
ENDBRANCH  11  12
ENDBRANCH  10  11
ENDBRANCH   9  10
ENDBRANCH   8   9
ENDBRANCH   7   8
ENDBRANCH   1   7
BRANCH   4  21
HETATM   21  C11 UNL     1     -16.535 -12.662   9.728  1.00  0.00     0.032 A
HETATM   22  C12 UNL     1     -17.577 -13.272   9.084  1.00  0.00     0.049 A
HETATM   23  C13 UNL     1     -17.708 -14.646   9.271  1.00  0.00     0.019 A
HETATM   24 BR1  UNL     1     -19.154 -15.512   8.379  1.00  0.00    -0.050 Br
HETATM   25  C14 UNL     1     -16.860 -15.395  10.051  1.00  0.00    -0.034 A
HETATM   26  C15 UNL     1     -15.816 -14.773  10.693  1.00  0.00    -0.048 A
HETATM   27  C19 UNL     1     -16.831 -16.845  10.370  1.00  0.00     0.041 C
HETATM   28  C16 UNL     1     -15.664 -13.417  10.527  1.00  0.00     0.037 A
HETATM   29  C17 UNL     1     -15.039 -15.803  11.472  1.00  0.00     0.039 C
HETATM   30  C18 UNL     1     -16.119 -16.831  11.731  1.00  0.00     0.009 C
ENDBRANCH   4  21
TORSDOF 8
ENDMDL