MODEL 3
REMARK VINA RESULT: -7.510502904      1.332      1.678
REMARK  7 active torsions:
REMARK  status: ('A' for Active; 'I' for Inactive)
REMARK    1  A    between atoms: C2_2  and  C3_3
REMARK    2  A    between atoms: C3_3  and  C4_4
REMARK       I    between atoms: C4_4  and  N1_6
REMARK    3  A    between atoms: C7_9  and  C8_10
REMARK    4  A    between atoms: C7_9  and  C12_14
REMARK    5  A    between atoms: C8_10  and  C9_11
REMARK    6  A    between atoms: N3_20  and  C15_21
REMARK    7  A    between atoms: C15_21  and  C16_22
ROOT
HETATM    1  C4  UNL     1     -21.616  -7.880  16.438  1.00  0.00     0.219 C
HETATM    2  O1  UNL     1     -22.893  -7.769  16.338  1.00  0.00    -0.273 OA
HETATM    3  N1  UNL     1     -20.804  -7.082  15.611  1.00  0.00    -0.350 N
HETATM    4  C5  UNL     1     -19.389  -7.037  15.663  1.00  0.00     0.127 C
HETATM    5  C6  UNL     1     -18.780  -5.654  15.452  1.00  0.00     0.039 C
HETATM    6  C7  UNL     1     -19.306  -5.028  14.166  1.00  0.00     0.043 C
HETATM    7  C20 UNL     1     -20.796  -4.987  14.362  1.00  0.00     0.064 C
HETATM    8  C21 UNL     1     -21.572  -4.243  13.305  1.00  0.00     0.035 C
HETATM    9 CL1  UNL     1     -21.012  -4.024  15.892  1.00  0.00    -0.117 Cl
HETATM   10  C22 UNL     1     -21.462  -6.281  14.560  1.00  0.00     0.152 C
ENDROOT
BRANCH   6  11
HETATM   11  C8  UNL     1     -18.804  -3.626  14.082  1.00  0.00     0.023 C
BRANCH  11  12
HETATM   12  C9  UNL     1     -17.692  -3.156  14.914  1.00  0.00    -0.021 C
HETATM   13  C10 UNL     1     -16.720  -2.433  13.906  1.00  0.00     0.009 C
HETATM   14  C11 UNL     1     -17.983  -2.034  15.909  1.00  0.00     0.009 C
ENDBRANCH  11  12
ENDBRANCH   6  11
BRANCH   6  15
HETATM   15  C12 UNL     1     -18.854  -5.904  13.074  1.00  0.00     0.094 A
HETATM   16  N2  UNL     1     -17.546  -6.110  12.732  1.00  0.00    -0.338 N
HETATM   17  C13 UNL     1     -17.466  -6.963  11.723  1.00  0.00     0.147 A
ATOM     18  H2  UNL     1     -16.748  -5.671  13.188  1.00  0.00     0.167 HD
HETATM   19  C14 UNL     1     -16.420  -7.535  10.988  1.00  0.00     0.282 A
HETATM   20  C19 UNL     1     -18.753  -7.332  11.388  1.00  0.00     0.143 A
HETATM   21  O2  UNL     1     -15.275  -7.168  11.318  1.00  0.00    -0.265 OA
HETATM   22  N3  UNL     1     -16.690  -8.408  10.008  1.00  0.00    -0.264 N
HETATM   23  C18 UNL     1     -17.950  -8.757   9.699  1.00  0.00     0.331 A
HETATM   24  O3  UNL     1     -18.192  -9.587   8.762  1.00  0.00    -0.246 OA
HETATM   25  N4  UNL     1     -18.977  -8.222  10.383  1.00  0.00    -0.292 N
ATOM     26  H4  UNL     1     -19.934  -8.487  10.146  1.00  0.00     0.172 HD
HETATM   27  N5  UNL     1     -19.564  -6.667  12.229  1.00  0.00    -0.329 N
ATOM     28  H5  UNL     1     -20.582  -6.734  12.225  1.00  0.00     0.168 HD
BRANCH  22  29
HETATM   29  C15 UNL     1     -15.591  -8.953   9.257  1.00  0.00     0.137 C
BRANCH  29  30
HETATM   30  C16 UNL     1     -15.407  -8.264   7.915  1.00  0.00     0.016 C
HETATM   31  C17 UNL     1     -14.903  -9.305   6.945  1.00  0.00     0.006 C
ENDBRANCH  29  30
ENDBRANCH  22  29
ENDBRANCH   6  15
BRANCH   1  32
HETATM   32  C3  UNL     1     -21.097  -8.843  17.399  1.00  0.00     0.103 C
BRANCH  32  33
HETATM   33  C2  UNL     1     -20.720 -10.159  16.712  1.00  0.00     0.005 C
HETATM   34  C1  UNL     1     -21.896 -11.080  16.573  1.00  0.00     0.005 C
ENDBRANCH  32  33
ENDBRANCH   1  32
TORSDOF 7
ENDMDL