MODEL 4
REMARK VINA RESULT: -7.239443911      1.370      2.442
REMARK  8 active torsions:
REMARK  status: ('A' for Active; 'I' for Inactive)
REMARK    1  A    between atoms: O1_2  and  C2_3
REMARK    2  A    between atoms: N1_8  and  C6_9
REMARK    3  A    between atoms: C6_9  and  C7_10
REMARK       I    between atoms: C7_10  and  N2_12
REMARK    4  A    between atoms: N2_12  and  C8_14
REMARK    5  A    between atoms: C8_14  and  C9_15
REMARK    6  A    between atoms: C8_14  and  C13_19
REMARK    7  A    between atoms: C9_15  and  C10_16
REMARK       I    between atoms: C13_19  and  N3_21
REMARK    8  A    between atoms: N3_21  and  C14_23
ROOT
HETATM    1  C2  UNL     1     -20.335  -3.517  14.184  1.00  0.00     0.125 A
HETATM    2  C3  UNL     1     -20.546  -3.309  12.837  1.00  0.00     0.069 A
HETATM    3 BR1  UNL     1     -21.033  -1.685  11.949  1.00  0.00    -0.046 Br
HETATM    4  C4  UNL     1     -20.329  -4.534  12.239  1.00  0.00     0.029 A
HETATM    5  C5  UNL     1     -20.447  -4.772  10.786  1.00  0.00     0.070 C
HETATM    6  N1  UNL     1     -20.002  -5.451  13.174  1.00  0.00    -0.330 N
HETATM    7  C18 UNL     1     -20.001  -4.841  14.373  1.00  0.00     0.152 A
HETATM    8  C19 UNL     1     -19.718  -5.383  15.672  1.00  0.00     0.121 C
HETATM    9  N4  UNL     1     -19.481  -5.830  16.707  1.00  0.00    -0.190 NA
ENDROOT
BRANCH   1  10
HETATM   10  O1  UNL     1     -20.465  -2.493  15.118  1.00  0.00    -0.352 OA
HETATM   11  C1  UNL     1     -19.371  -1.664  15.449  1.00  0.00     0.210 C
ENDBRANCH   1  10
BRANCH   6  12
HETATM   12  C6  UNL     1     -19.701  -6.847  12.945  1.00  0.00     0.232 C
BRANCH  12  13
HETATM   13  C7  UNL     1     -18.354  -7.069  12.424  1.00  0.00     0.236 C
HETATM   14  O2  UNL     1     -17.405  -6.367  12.838  1.00  0.00    -0.272 OA
HETATM   15  N2  UNL     1     -18.045  -8.048  11.462  1.00  0.00    -0.346 N
ATOM     16  H2  UNL     1     -18.799  -8.636  11.105  1.00  0.00     0.163 HD
BRANCH  15  17
HETATM   17  C8  UNL     1     -16.673  -8.263  10.942  1.00  0.00     0.177 C
BRANCH  17  18
HETATM   18  C9  UNL     1     -16.094  -9.419  11.654  1.00  0.00     0.038 C
BRANCH  18  19
HETATM   19  C10 UNL     1     -14.714  -9.337  12.184  1.00  0.00    -0.020 C
HETATM   20  C11 UNL     1     -14.687  -9.969  13.607  1.00  0.00     0.009 C
HETATM   21  C12 UNL     1     -13.674 -10.134  11.431  1.00  0.00     0.009 C
ENDBRANCH  18  19
ENDBRANCH  17  18
BRANCH  17  22
HETATM   22  C13 UNL     1     -16.827  -8.335   9.492  1.00  0.00     0.241 C
HETATM   23  O3  UNL     1     -17.800  -7.782   8.943  1.00  0.00    -0.271 OA
HETATM   24  N3  UNL     1     -15.890  -9.015   8.691  1.00  0.00    -0.351 N
ATOM     25  H3  UNL     1     -15.100  -9.467   9.152  1.00  0.00     0.163 HD
BRANCH  24  26
HETATM   26  C14 UNL     1     -15.986  -9.107   7.250  1.00  0.00     0.022 C
HETATM   27  C15 UNL     1     -14.913 -10.032   6.724  1.00  0.00     0.037 C
HETATM   28  C16 UNL     1     -17.352  -9.560   6.773  1.00  0.00     0.037 C
HETATM   29  C17 UNL     1     -15.722  -7.731   6.625  1.00  0.00     0.037 C
ENDBRANCH  24  26
ENDBRANCH  17  22
ENDBRANCH  15  17
ENDBRANCH  12  13
ENDBRANCH   6  12
TORSDOF 8
ENDMDL