MODEL 1
REMARK VINA RESULT: -8.287418073      0.000      0.000
REMARK  8 active torsions:
REMARK  status: ('A' for Active; 'I' for Inactive)
REMARK    1  A    between atoms: C2_2  and  C3_3
REMARK    2  A    between atoms: C6_10  and  C7_11
REMARK    3  A    between atoms: C7_11  and  C8_12
REMARK    4  A    between atoms: C8_12  and  N3_15
REMARK    5  A    between atoms: N3_15  and  C11_17
REMARK    6  A    between atoms: C11_17  and  O1_18
REMARK    7  A    between atoms: C12_20  and  N4_22
REMARK       I    between atoms: N4_22  and  C14_24
REMARK    8  A    between atoms: C14_24  and  C15_26
ROOT
HETATM    1  C11 UNL     1     -19.368  -6.498  13.282  1.00  0.00     0.159 C
HETATM    2  C12 UNL     1     -18.747  -7.407  12.456  1.00  0.00     0.059 C
HETATM    3  C13 UNL     1     -18.289  -8.481  13.847  1.00  0.00     0.072 C
ENDROOT
BRANCH   1   4
HETATM    4  N3  UNL     1     -20.478  -5.691  12.959  1.00  0.00    -0.357 N
ATOM      5  H3  UNL     1     -21.442  -6.006  13.068  1.00  0.00     0.162 HD
BRANCH   4   6
HETATM    6  C8  UNL     1     -20.113  -4.298  12.429  1.00  0.00     0.044 C
HETATM    7  C9  UNL     1     -21.293  -3.364  12.148  1.00  0.00     0.042 C
HETATM    8  C10 UNL     1     -19.931  -4.844  10.883  1.00  0.00     0.042 C
BRANCH   6   9
HETATM    9  C7  UNL     1     -18.870  -3.711  12.688  1.00  0.00     0.020 C
BRANCH   9  10
HETATM   10  C6  UNL     1     -18.925  -2.578  13.634  1.00  0.00     0.026 A
HETATM   11  C3  UNL     1     -18.303  -1.368  13.298  1.00  0.00     0.038 A
HETATM   12  N1  UNL     1     -18.361  -0.612  14.382  1.00  0.00    -0.301 N
HETATM   13  N2  UNL     1     -18.992  -1.266  15.364  1.00  0.00    -0.284 N
ATOM     14  H1  UNL     1     -17.980   0.332  14.457  1.00  0.00     0.187 HD
HETATM   15  C4  UNL     1     -19.225  -0.883  16.767  1.00  0.00     0.179 C
HETATM   16  C5  UNL     1     -19.349  -2.505  14.880  1.00  0.00     0.132 A
HETATM   17 CL1  UNL     1     -20.382  -3.604  15.850  1.00  0.00    -0.062 Cl
BRANCH  11  18
HETATM   18  C2  UNL     1     -17.878  -0.870  11.903  1.00  0.00     0.055 C
HETATM   19  C1  UNL     1     -19.159  -0.604  11.106  1.00  0.00     0.011 C
ENDBRANCH  11  18
ENDBRANCH   9  10
ENDBRANCH   6   9
ENDBRANCH   4   6
ENDBRANCH   1   4
BRANCH   1  20
HETATM   20  O1  UNL     1     -18.930  -6.428  14.556  1.00  0.00    -0.345 OA
ATOM     21  H1  UNL     1     -18.626  -7.241  14.942  1.00  0.00     0.219 HD
ENDBRANCH   1  20
BRANCH   2  22
HETATM   22  N4  UNL     1     -18.163  -8.357  11.580  1.00  0.00    -0.327 N
HETATM   23  C14 UNL     1     -17.065  -7.750  10.810  1.00  0.00     0.231 C
HETATM   24  O2  UNL     1     -16.514  -6.857  11.253  1.00  0.00    -0.272 OA
ATOM     25  H4  UNL     1     -18.463  -9.329  11.495  1.00  0.00     0.168 HD
BRANCH  23  26
HETATM   26  C15 UNL     1     -16.964  -8.517   9.482  1.00  0.00     0.046 C
HETATM   27  C16 UNL     1     -17.253  -7.788   8.266  1.00  0.00     0.024 C
HETATM   28  C17 UNL     1     -16.956  -8.568   7.042  1.00  0.00    -0.009 C
HETATM   29  C18 UNL     1     -15.453  -8.817   6.905  1.00  0.00     0.037 C
HETATM   30  C22 UNL     1     -17.658  -9.927   7.029  1.00  0.00     0.037 C
HETATM   31  C19 UNL     1     -15.145  -9.649   8.163  1.00  0.00     0.123 C
HETATM   32  C20 UNL     1     -15.313  -8.748   9.315  1.00  0.00     0.051 C
HETATM   33  O3  UNL     1     -15.830 -10.835   8.206  1.00  0.00    -0.381 OA
HETATM   34  C21 UNL     1     -17.210 -10.641   8.273  1.00  0.00     0.123 C
HETATM   35  C23 UNL     1     -17.605  -9.887   9.454  1.00  0.00     0.051 C
ENDBRANCH  23  26
ENDBRANCH   2  22
TORSDOF 8
ENDMDL