MODEL 3
REMARK VINA RESULT: -8.515938019      5.100      8.472
REMARK  10 active torsions:
REMARK  status: ('A' for Active; 'I' for Inactive)
REMARK    1  A    between atoms: C3_3  and  C4_4
REMARK    2  A    between atoms: C4_4  and  C5_5
REMARK    3  A    between atoms: C5_5  and  N1_6
REMARK    4  A    between atoms: N1_6  and  C6_8
REMARK    5  A    between atoms: C7_11  and  N3_12
REMARK    6  A    between atoms: N3_12  and  C8_14
REMARK    7  A    between atoms: C8_14  and  C9_15
REMARK    8  A    between atoms: C9_15  and  C10_16
REMARK    9  A    between atoms: C10_16  and  C11_17
REMARK   10  A    between atoms: N6_28  and  C18_29
ROOT
HETATM    1  C1  UNL     1     -14.764 -10.329  18.610  1.00  0.00     0.112 C
HETATM    2  C2  UNL     1     -15.953  -9.506  18.307  1.00  0.00    -0.111 C
HETATM    3  C3  UNL     1     -16.912  -8.820  18.070  1.00  0.00    -0.105 C
ENDROOT
BRANCH   3   4
HETATM    4  C4  UNL     1     -18.091  -7.980  17.759  1.00  0.00     0.114 C
BRANCH   4   5
HETATM    5  C5  UNL     1     -19.164  -8.850  17.201  1.00  0.00     0.150 C
BRANCH   5   6
HETATM    6  N1  UNL     1     -18.831  -9.386  15.894  1.00  0.00    -0.225 N
ATOM      7  H1  UNL     1     -18.545 -10.361  15.814  1.00  0.00     0.177 HD
BRANCH   6   8
HETATM    8  C6  UNL     1     -18.889  -8.654  14.828  1.00  0.00     0.681 A
HETATM    9  N2  UNL     1     -19.870  -7.785  14.736  1.00  0.00    -0.176 N
HETATM   10  C7  UNL     1     -19.968  -6.990  13.623  1.00  0.00     0.132 A
ATOM     11  H2  UNL     1     -20.554  -7.702  15.488  1.00  0.00     0.186 HD
HETATM   12  C16 UNL     1     -19.030  -7.124  12.620  1.00  0.00     0.071 A
HETATM   13  C17 UNL     1     -18.788  -6.552  11.412  1.00  0.00     0.127 A
HETATM   14  C24 UNL     1     -18.016  -8.066  12.782  1.00  0.00     0.158 A
HETATM   15  N5  UNL     1     -17.687  -7.132  10.895  1.00  0.00    -0.302 N
HETATM   16  N6  UNL     1     -17.197  -8.049  11.696  1.00  0.00    -0.237 N
ATOM     17  H5  UNL     1     -17.283  -6.888   9.991  1.00  0.00     0.186 HD
HETATM   18  N7  UNL     1     -17.945  -8.834  13.888  1.00  0.00    -0.174 N
ATOM     19  H7  UNL     1     -17.203  -9.524  14.008  1.00  0.00     0.186 HD
BRANCH  10  20
HETATM   20  N3  UNL     1     -20.896  -6.181  13.562  1.00  0.00    -0.375 N
ATOM     21  H3  UNL     1     -21.608  -6.572  12.946  1.00  0.00     0.161 HD
BRANCH  20  22
HETATM   22  C8  UNL     1     -21.348  -4.962  13.996  1.00  0.00     0.121 C
BRANCH  22  23
HETATM   23  C9  UNL     1     -20.778  -3.833  13.124  1.00  0.00     0.024 C
BRANCH  23  24
HETATM   24  C10 UNL     1     -20.054  -2.862  14.001  1.00  0.00     0.041 C
BRANCH  24  25
HETATM   25  C11 UNL     1     -18.643  -2.760  13.548  1.00  0.00    -0.043 A
HETATM   26  C12 UNL     1     -17.808  -3.837  13.749  1.00  0.00     0.010 A
HETATM   27  C13 UNL     1     -16.491  -3.764  13.335  1.00  0.00     0.018 A
HETATM   28  C14 UNL     1     -16.008  -2.626  12.723  1.00  0.00     0.087 A
HETATM   29  N4  UNL     1     -16.845  -1.588  12.538  1.00  0.00    -0.375 N
HETATM   30  C15 UNL     1     -18.127  -1.647  12.937  1.00  0.00     0.094 A
ATOM     31  H4  UNL     1     -16.500  -0.741  12.087  1.00  0.00     0.164 HD
ENDBRANCH  24  25
ENDBRANCH  23  24
ENDBRANCH  22  23
ENDBRANCH  20  22
ENDBRANCH  10  20
BRANCH  16  32
HETATM   32  C18 UNL     1     -16.044  -8.868  11.485  1.00  0.00     0.080 A
HETATM   33  C19 UNL     1     -14.893  -8.653  12.202  1.00  0.00     0.033 A
HETATM   34  C20 UNL     1     -13.803  -9.460  11.973  1.00  0.00     0.002 A
HETATM   35  C21 UNL     1     -13.844 -10.473  11.042  1.00  0.00     0.002 A
HETATM   36  C22 UNL     1     -14.989 -10.700  10.317  1.00  0.00     0.026 A
HETATM   37  C23 UNL     1     -16.074  -9.885  10.557  1.00  0.00     0.062 A
HETATM   38 CL1  UNL     1     -17.553 -10.184   9.613  1.00  0.00    -0.082 Cl
ENDBRANCH  16  32
ENDBRANCH   6   8
ENDBRANCH   5   6
ENDBRANCH   4   5
ENDBRANCH   3   4
TORSDOF 10
ENDMDL