MODEL 1
REMARK VINA RESULT: -8.118884980      0.000      0.000
REMARK  8 active torsions:
REMARK  status: ('A' for Active; 'I' for Inactive)
REMARK    1  A    between atoms: N1_2  and  C2_4
REMARK    2  A    between atoms: C4_10  and  N4_11
REMARK    3  A    between atoms: N5_14  and  C7_15
REMARK    4  A    between atoms: C7_15  and  C8_16
REMARK    5  A    between atoms: C7_15  and  C16_24
REMARK    6  A    between atoms: C8_16  and  C9_17
REMARK    7  A    between atoms: C9_17  and  C10_18
REMARK    8  A    between atoms: C10_18  and  C11_19
ROOT
HETATM    1  N4  UNL     1     -17.259  -6.670  11.851  1.00  0.00    -0.362 N
HETATM    2  C5  UNL     1     -16.053  -6.972  11.130  1.00  0.00     0.154 C
HETATM    3  C6  UNL     1     -15.588  -8.362  11.614  1.00  0.00     0.292 C
HETATM    4  N5  UNL     1     -16.435  -9.384  11.076  1.00  0.00     0.096 N
HETATM    5  C21 UNL     1     -17.756  -8.833  11.009  1.00  0.00     0.292 C
HETATM    6  C22 UNL     1     -18.012  -7.878  12.203  1.00  0.00     0.154 C
ENDROOT
BRANCH   4   7
HETATM    7  C7  UNL     1     -15.949 -10.034   9.929  1.00  0.00     0.228 C
BRANCH   7   8
HETATM    8  C8  UNL     1     -15.559 -11.461   9.928  1.00  0.00     0.036 C
BRANCH   8   9
HETATM    9  C9  UNL     1     -16.688 -12.451   9.958  1.00  0.00     0.002 C
BRANCH   9  10
HETATM   10  C10 UNL     1     -16.194 -13.831  10.357  1.00  0.00     0.005 C
BRANCH  10  11
HETATM   11  C11 UNL     1     -17.223 -14.837   9.985  1.00  0.00    -0.014 C
HETATM   12  C12 UNL     1     -16.613 -16.205   9.653  1.00  0.00     0.004 C
HETATM   13  C13 UNL     1     -17.893 -16.959   9.265  1.00  0.00     0.000 C
HETATM   14  C14 UNL     1     -18.629 -15.950   8.427  1.00  0.00     0.000 C
HETATM   15  C15 UNL     1     -17.972 -14.581   8.717  1.00  0.00     0.004 C
ENDBRANCH  10  11
ENDBRANCH   9  10
ENDBRANCH   8   9
ENDBRANCH   7   8
BRANCH   7  16
HETATM   16  C16 UNL     1     -16.348  -9.456   8.594  1.00  0.00     0.037 C
HETATM   17  C17 UNL     1     -17.458 -10.269   7.927  1.00  0.00     0.017 C
HETATM   18  C18 UNL     1     -17.784  -9.682   6.578  1.00  0.00     0.103 C
HETATM   19  C19 UNL     1     -16.673  -9.142   5.814  1.00  0.00     0.217 C
HETATM   20  O1  UNL     1     -16.826  -8.928   4.579  1.00  0.00    -0.274 OA
HETATM   21  N6  UNL     1     -15.426  -8.855   6.434  1.00  0.00    -0.361 N
HETATM   22  C20 UNL     1     -15.146  -9.595   7.631  1.00  0.00     0.129 C
ATOM     23  H6  UNL     1     -14.774  -8.168   6.052  1.00  0.00     0.162 HD
ENDBRANCH   7  16
ENDBRANCH   4   7
BRANCH   1  24
HETATM   24  C4  UNL     1     -17.770  -5.417  12.225  1.00  0.00     0.130 A
HETATM   25  N3  UNL     1     -17.203  -4.700  13.245  1.00  0.00    -0.337 N
HETATM   26  C3  UNL     1     -17.661  -3.490  13.622  1.00  0.00     0.183 A
ATOM     27  H3  UNL     1     -16.404  -5.097  13.737  1.00  0.00     0.168 HD
HETATM   28  N2  UNL     1     -18.703  -2.890  13.033  1.00  0.00    -0.337 N
HETATM   29  C2  UNL     1     -19.314  -3.547  12.014  1.00  0.00     0.127 A
ATOM     30  H2  UNL     1     -19.026  -1.973  13.339  1.00  0.00     0.168 HD
HETATM   31  C23 UNL     1     -18.852  -4.788  11.623  1.00  0.00     0.121 A
HETATM   32 CL1  UNL     1     -19.680  -5.579  10.307  1.00  0.00    -0.076 Cl
BRANCH  29  33
HETATM   33  N1  UNL     1     -20.315  -2.994  11.439  1.00  0.00    -0.379 N
HETATM   34  C1  UNL     1     -20.762  -1.670  11.824  1.00  0.00     0.147 C
ATOM     35  H1  UNL     1     -20.806  -3.494  10.697  1.00  0.00     0.160 HD
ENDBRANCH  29  33
ENDBRANCH   1  24
TORSDOF 8
ENDMDL