MODEL 4
REMARK VINA RESULT: -7.045897156      3.988      6.308
REMARK  9 active torsions:
REMARK  status: ('A' for Active; 'I' for Inactive)
REMARK       I    between atoms: C1_2  and  N1_3
REMARK    1  A    between atoms: C1_2  and  O4_27
REMARK    2  A    between atoms: N1_3  and  C2_5
REMARK    3  A    between atoms: C10_13  and  C11_14
REMARK    4  A    between atoms: C11_14  and  O2_15
REMARK    5  A    between atoms: C11_14  and  C12_17
REMARK    6  A    between atoms: O4_27  and  C17_28
REMARK    7  A    between atoms: C17_28  and  C18_29
REMARK    8  A    between atoms: C18_29  and  C19_30
REMARK    9  A    between atoms: C19_30  and  C20_31
ROOT
HETATM    1  C2  UNL     1     -16.793 -11.774  10.133  1.00  0.00     0.091 C
HETATM    2  C3  UNL     1     -15.701 -10.967  10.806  1.00  0.00     0.031 C
HETATM    3  C4  UNL     1     -15.326  -9.752  10.031  1.00  0.00     0.003 C
HETATM    4  C5  UNL     1     -14.774 -10.047   8.687  1.00  0.00     0.010 C
HETATM    5  C6  UNL     1     -15.895  -9.740   7.771  1.00  0.00    -0.013 C
HETATM    6  C7  UNL     1     -17.060 -10.676   7.866  1.00  0.00     0.011 C
HETATM    7  C8  UNL     1     -17.584 -10.897   9.234  1.00  0.00     0.010 C
HETATM    8  C9  UNL     1     -17.787  -9.574   9.955  1.00  0.00     0.023 C
HETATM    9  C10 UNL     1     -16.515  -8.783   9.814  1.00  0.00     0.015 C
HETATM   10  C16 UNL     1     -16.359  -8.394   8.374  1.00  0.00     0.021 C
ENDROOT
BRANCH   9  11
HETATM   11  C11 UNL     1     -16.370  -7.651  10.724  1.00  0.00     0.080 C
BRANCH  11  12
HETATM   12  O2  UNL     1     -15.170  -7.285  11.084  1.00  0.00    -0.362 OA
ATOM     13  H2  UNL     1     -14.855  -7.537  11.945  1.00  0.00     0.217 HD
ENDBRANCH  11  12
BRANCH  11  14
HETATM   14  C12 UNL     1     -17.426  -6.855  11.300  1.00  0.00     0.080 A
HETATM   15  C13 UNL     1     -18.431  -6.311  10.484  1.00  0.00     0.119 A
HETATM   16  N2  UNL     1     -19.403  -5.566  11.009  1.00  0.00    -0.368 N
HETATM   17  C14 UNL     1     -19.495  -5.285  12.319  1.00  0.00     0.162 A
ATOM     18  H2  UNL     1     -20.115  -5.190  10.383  1.00  0.00     0.164 HD
HETATM   19  C15 UNL     1     -18.524  -5.805  13.137  1.00  0.00     0.261 A
HETATM   20  O3  UNL     1     -18.576  -5.561  14.377  1.00  0.00    -0.267 OA
HETATM   21  N3  UNL     1     -17.526  -6.568  12.603  1.00  0.00    -0.319 N
ATOM     22  H3  UNL     1     -16.816  -6.941  13.233  1.00  0.00     0.169 HD
ENDBRANCH  11  14
ENDBRANCH   9  11
BRANCH   1  23
HETATM   23  N1  UNL     1     -16.310 -12.989   9.522  1.00  0.00    -0.332 N
HETATM   24  C1  UNL     1     -16.684 -14.270  10.020  1.00  0.00     0.360 C
HETATM   25  O1  UNL     1     -17.448 -14.408  11.012  1.00  0.00    -0.239 OA
ATOM     26  H1  UNL     1     -15.688 -12.929   8.715  1.00  0.00     0.165 HD
BRANCH  24  27
HETATM   27  O4  UNL     1     -16.218 -15.435   9.431  1.00  0.00    -0.304 OA
BRANCH  27  28
HETATM   28  C17 UNL     1     -16.362 -16.682  10.119  1.00  0.00     0.180 C
BRANCH  28  29
HETATM   29  C18 UNL     1     -17.229 -17.632   9.375  1.00  0.00     0.028 C
BRANCH  29  30
HETATM   30  C19 UNL     1     -18.561 -17.190   8.951  1.00  0.00     0.013 C
BRANCH  30  31
HETATM   31  C20 UNL     1     -19.638 -18.212   8.907  1.00  0.00     0.085 C
HETATM   32 BR1  UNL     1     -19.227 -19.812   7.942  1.00  0.00    -0.097 Br
ENDBRANCH  30  31
ENDBRANCH  29  30
ENDBRANCH  28  29
ENDBRANCH  27  28
ENDBRANCH  24  27
ENDBRANCH   1  23
TORSDOF 9
ENDMDL