MODEL 5
REMARK VINA RESULT: -7.699660637      1.474      1.928
REMARK  10 active torsions:
REMARK  status: ('A' for Active; 'I' for Inactive)
REMARK    1  A    between atoms: C2_2  and  C3_3
REMARK    2  A    between atoms: C3_3  and  N1_4
REMARK       I    between atoms: C4_6  and  N3_8
REMARK    3  A    between atoms: C5_10  and  O1_11
REMARK    4  A    between atoms: C5_10  and  C19_30
REMARK    5  A    between atoms: O1_11  and  C6_12
REMARK    6  A    between atoms: C6_12  and  C7_13
REMARK    7  A    between atoms: C7_13  and  O2_14
REMARK    8  A    between atoms: C7_13  and  C8_16
REMARK    9  A    between atoms: C8_16  and  N4_17
REMARK   10  A    between atoms: N5_20  and  C11_21
ROOT
HETATM    1  C7  UNL     1     -17.108  -8.235  11.261  1.00  0.00     0.160 C
ENDROOT
BRANCH   1   2
HETATM    2  C6  UNL     1     -17.525  -6.780  11.258  1.00  0.00     0.210 C
BRANCH   2   3
HETATM    3  O1  UNL     1     -17.480  -6.347  12.606  1.00  0.00    -0.336 OA
BRANCH   3   4
HETATM    4  C5  UNL     1     -18.322  -5.269  13.031  1.00  0.00     0.127 C
HETATM    5  N3  UNL     1     -18.247  -4.256  12.320  1.00  0.00    -0.314 N
HETATM    6  C4  UNL     1     -18.804  -2.997  12.270  1.00  0.00     0.189 C
ATOM      7  H3  UNL     1     -17.584  -4.394  11.556  1.00  0.00     0.170 HD
HETATM    8  N1  UNL     1     -19.995  -2.723  11.859  1.00  0.00    -0.364 N
HETATM    9  N2  UNL     1     -18.005  -1.898  12.688  1.00  0.00    -0.063 NA
ATOM     10  H1  UNL     1     -20.617  -3.468  11.545  1.00  0.00     0.162 HD
BRANCH   8  11
HETATM   11  C3  UNL     1     -20.438  -1.353  11.849  1.00  0.00     0.122 C
BRANCH  11  12
HETATM   12  C2  UNL     1     -21.951  -1.247  11.849  1.00  0.00     0.015 C
HETATM   13  C1  UNL     1     -22.564  -2.597  11.474  1.00  0.00     0.006 C
ENDBRANCH  11  12
ENDBRANCH   8  11
BRANCH   4  14
HETATM   14  C19 UNL     1     -19.117  -5.569  14.231  1.00  0.00     0.014 C
HETATM   15  C20 UNL     1     -18.709  -6.929  14.834  1.00  0.00     0.023 C
HETATM   16  C21 UNL     1     -20.596  -5.764  13.882  1.00  0.00     0.023 C
HETATM   17  C22 UNL     1     -18.980  -4.576  15.351  1.00  0.00     0.023 C
ENDBRANCH   4  14
ENDBRANCH   3   4
ENDBRANCH   2   3
ENDBRANCH   1   2
BRANCH   1  18
HETATM   18  O2  UNL     1     -16.482  -8.478  12.481  1.00  0.00    -0.392 OA
ATOM     19  H2  UNL     1     -15.996  -7.694  12.707  1.00  0.00     0.210 HD
ENDBRANCH   1  18
BRANCH   1  20
HETATM   20  C8  UNL     1     -16.204  -8.502  10.100  1.00  0.00     0.150 C
BRANCH  20  21
HETATM   21  N4  UNL     1     -16.202  -9.826   9.593  1.00  0.00    -0.407 N
HETATM   22  C9  UNL     1     -15.130 -10.675   9.974  1.00  0.00     0.136 C
HETATM   23  C10 UNL     1     -15.605 -11.968  10.624  1.00  0.00     0.142 C
HETATM   24  N5  UNL     1     -16.555 -12.625   9.729  1.00  0.00    -0.378 N
HETATM   25  C17 UNL     1     -17.286 -11.799   8.800  1.00  0.00     0.142 C
HETATM   26  C18 UNL     1     -17.479 -10.454   9.524  1.00  0.00     0.136 C
BRANCH  24  27
HETATM   27  C11 UNL     1     -16.763 -14.004   9.770  1.00  0.00     0.031 A
HETATM   28  C12 UNL     1     -17.603 -14.577   8.831  1.00  0.00     0.029 A
HETATM   29  C13 UNL     1     -17.815 -15.933   8.877  1.00  0.00     0.004 A
HETATM   30  C14 UNL     1     -17.228 -16.742   9.814  1.00  0.00     0.024 A
HETATM   31  C15 UNL     1     -16.396 -16.160  10.742  1.00  0.00     0.036 A
HETATM   32 CL1  UNL     1     -15.605 -17.112  11.972  1.00  0.00    -0.084 Cl
HETATM   33  C16 UNL     1     -16.160 -14.795  10.724  1.00  0.00     0.053 A
ENDBRANCH  24  27
ENDBRANCH  20  21
ENDBRANCH   1  20
TORSDOF 10
ENDMDL