MODEL 5
REMARK VINA RESULT: -7.050133805      2.668      9.433
REMARK  17 active torsions:
REMARK  status: ('A' for Active; 'I' for Inactive)
REMARK    1  A    between atoms: O1_2  and  C2_3
REMARK    2  A    between atoms: C2_3  and  C3_4
REMARK    3  A    between atoms: C2_3  and  C14_19
REMARK    4  A    between atoms: C3_4  and  C4_5
REMARK    5  A    between atoms: C4_5  and  O2_6
REMARK    6  A    between atoms: C5_8  and  O3_9
REMARK    7  A    between atoms: C14_19  and  C16_21
REMARK    8  A    between atoms: C16_21  and  N1_22
REMARK    9  A    between atoms: N1_22  and  C17_24
REMARK   10  A    between atoms: C20_27  and  O4_28
REMARK   11  A    between atoms: O4_28  and  C21_29
REMARK   12  A    between atoms: C22_33  and  C23_34
REMARK   13  A    between atoms: C23_34  and  N3_35
REMARK   14  A    between atoms: C24_37  and  C26_39
REMARK   15  A    between atoms: C26_39  and  C27_40
REMARK   16  A    between atoms: C27_40  and  O7_41
REMARK   17  A    between atoms: C29_45  and  C30_46
ROOT
HETATM    1  C17 UNL     1      25.529  11.861  20.355  1.00  0.00     0.109 C
HETATM    2  C18 UNL     1      25.348  11.308  21.718  1.00  0.00     0.039 C
HETATM    3  C19 UNL     1      26.062  10.046  22.048  1.00  0.00     0.075 C
HETATM    4  C20 UNL     1      25.169   9.007  22.678  1.00  0.00     0.278 C
HETATM    5  O6  UNL     1      25.918   7.823  22.465  1.00  0.00    -0.347 OA
HETATM    6  C22 UNL     1      26.194   7.909  21.093  1.00  0.00     0.192 C
HETATM    7  C28 UNL     1      26.707   9.335  20.924  1.00  0.00     0.165 C
HETATM    8  O8  UNL     1      26.337   9.780  19.672  1.00  0.00    -0.371 OA
HETATM    9  C29 UNL     1      26.573  11.146  19.528  1.00  0.00     0.167 C
ENDROOT
BRANCH   1  10
HETATM   10  N1  UNL     1      25.745  13.290  20.360  1.00  0.00    -0.414 N
ATOM     11  H1  UNL     1      26.374  13.746  19.699  1.00  0.00     0.153 HD
BRANCH  10  12
HETATM   12  C16 UNL     1      25.026  14.018  21.342  1.00  0.00     0.121 C
BRANCH  12  13
HETATM   13  C14 UNL     1      24.471  15.325  20.861  1.00  0.00     0.028 C
HETATM   14  C15 UNL     1      25.153  16.431  21.657  1.00  0.00     0.014 C
BRANCH  13  15
HETATM   15  C2  UNL     1      22.975  15.464  21.068  1.00  0.00     0.129 C
BRANCH  15  16
HETATM   16  O1  UNL     1      22.743  16.849  21.137  1.00  0.00    -0.390 OA
HETATM   17  C1  UNL     1      22.106  17.271  19.987  1.00  0.00     0.202 C
ENDBRANCH  15  16
BRANCH  15  18
HETATM   18  C3  UNL     1      22.512  14.744  22.279  1.00  0.00     0.073 C
BRANCH  18  19
HETATM   19  C4  UNL     1      21.083  14.339  22.308  1.00  0.00     0.090 C
HETATM   20  C5  UNL     1      20.760  13.176  21.413  1.00  0.00     0.153 C
HETATM   21  C6  UNL     1      19.397  12.749  21.934  1.00  0.00     0.044 C
HETATM   22  C7  UNL     1      19.440  13.061  23.411  1.00  0.00    -0.035 C
HETATM   23  C8  UNL     1      19.245  11.834  24.270  1.00  0.00     0.016 C
HETATM   24  C9  UNL     1      18.339  14.030  23.744  1.00  0.00     0.010 C
HETATM   25  C13 UNL     1      20.749  13.742  23.683  1.00  0.00     0.034 C
HETATM   26  C10 UNL     1      18.978  15.138  24.529  1.00  0.00     0.005 C
HETATM   27  C11 UNL     1      20.447  14.889  24.612  1.00  0.00    -0.011 C
HETATM   28  C12 UNL     1      20.814  14.505  26.021  1.00  0.00     0.010 C
BRANCH  19  29
HETATM   29  O2  UNL     1      20.177  15.346  22.111  1.00  0.00    -0.387 OA
ATOM     30  H2  UNL     1      19.264  15.102  22.206  1.00  0.00     0.210 HD
ENDBRANCH  19  29
BRANCH  20  31
HETATM   31  O3  UNL     1      21.624  12.094  21.609  1.00  0.00    -0.393 OA
ATOM     32  H3  UNL     1      21.158  11.277  21.749  1.00  0.00     0.210 HD
ENDBRANCH  20  31
ENDBRANCH  18  19
ENDBRANCH  15  18
ENDBRANCH  13  15
ENDBRANCH  12  13
ENDBRANCH  10  12
ENDBRANCH   1  10
BRANCH   9  33
HETATM   33  C30 UNL     1      26.350  11.500  18.109  1.00  0.00     0.009 C
HETATM   34  C31 UNL     1      27.104  12.308  17.386  1.00  0.00    -0.089 C
HETATM   35  C32 UNL     1      28.322  13.001  17.897  1.00  0.00     0.042 C
HETATM   36  C33 UNL     1      26.672  12.530  15.954  1.00  0.00     0.042 C
ENDBRANCH   9  33
BRANCH   4  37
HETATM   37  O4  UNL     1      24.010   8.855  21.886  1.00  0.00    -0.274 OA
BRANCH  37  38
HETATM   38  C21 UNL     1      22.743   8.662  22.402  1.00  0.00     0.375 C
HETATM   39  N2  UNL     1      22.142   7.388  22.367  1.00  0.00    -0.032 NA
HETATM   40  O5  UNL     1      22.175   9.680  22.896  1.00  0.00    -0.242 OA
ENDBRANCH  37  38
ENDBRANCH   4  37
BRANCH   6  41
HETATM   41  C23 UNL     1      27.228   6.903  20.711  1.00  0.00     0.095 C
BRANCH  41  42
HETATM   42  N3  UNL     1      27.164   5.761  21.528  1.00  0.00    -0.374 N
HETATM   43  C24 UNL     1      28.012   4.867  21.755  1.00  0.00    -0.016 C
HETATM   44  C25 UNL     1      27.623   3.758  22.699  1.00  0.00     0.063 C
ATOM     45  H3  UNL     1      26.277   5.640  22.018  1.00  0.00     0.164 HD
BRANCH  43  46
HETATM   46  C26 UNL     1      29.382   4.771  21.189  1.00  0.00     0.078 C
BRANCH  46  47
HETATM   47  C27 UNL     1      30.232   3.780  21.960  1.00  0.00     0.169 C
BRANCH  47  48
HETATM   48  O7  UNL     1      31.571   4.105  21.763  1.00  0.00    -0.401 OA
ATOM     49  H7  UNL     1      31.935   3.496  21.131  1.00  0.00     0.209 HD
ENDBRANCH  47  48
ENDBRANCH  46  47
ENDBRANCH  43  46
ENDBRANCH  41  42
ENDBRANCH   6  41
TORSDOF 17
ENDMDL