MODEL 4
REMARK VINA RESULT: -8.032724784      1.966      2.923
REMARK  19 active torsions:
REMARK  status: ('A' for Active; 'I' for Inactive)
REMARK    1  A    between atoms: C2_2  and  C4_4
REMARK    2  A    between atoms: C4_4  and  O1_5
REMARK    3  A    between atoms: C4_4  and  C5_7
REMARK    4  A    between atoms: C6_8  and  C7_9
REMARK    5  A    between atoms: C8_10  and  C9_11
REMARK    6  A    between atoms: C10_12  and  C11_13
REMARK    7  A    between atoms: C12_14  and  C13_15
REMARK    8  A    between atoms: C12_14  and  C14_20
REMARK    9  A    between atoms: C13_15  and  O2_16
REMARK   10  A    between atoms: C13_15  and  O3_18
REMARK   11  A    between atoms: C14_20  and  O4_21
REMARK   12  A    between atoms: C14_20  and  C15_23
REMARK   13  A    between atoms: C15_23  and  O5_25
REMARK   14  A    between atoms: O5_25  and  C17_26
REMARK   15  A    between atoms: C25_35  and  O7_36
REMARK   16  A    between atoms: O7_36  and  C26_37
REMARK   17  A    between atoms: C29_41  and  O9_42
REMARK   18  A    between atoms: C30_44  and  O10_45
REMARK   19  A    between atoms: C32_47  and  O11_48
ROOT
HETATM    1  C17 UNL     1      24.960  12.330  22.242  1.00  0.00     0.154 C
HETATM    2  C18 UNL     1      25.178  12.812  20.851  1.00  0.00     0.200 C
HETATM    3  O6  UNL     1      25.333  14.151  20.664  1.00  0.00    -0.383 OA
HETATM    4  C19 UNL     1      24.365  15.045  20.848  1.00  0.00     0.128 C
HETATM    5  C20 UNL     1      23.141  14.773  20.049  1.00  0.00     0.032 C
HETATM    6  C21 UNL     1      22.050  15.801  20.166  1.00  0.00     0.002 C
HETATM    7  C22 UNL     1      22.444  16.924  21.078  1.00  0.00     0.001 C
HETATM    8  C23 UNL     1      23.112  16.549  22.339  1.00  0.00     0.010 C
HETATM    9  C24 UNL     1      24.007  15.346  22.292  1.00  0.00     0.044 C
HETATM   10  C25 UNL     1      23.567  14.153  23.008  1.00  0.00     0.133 C
HETATM   11  C33 UNL     1      24.925  13.376  23.326  1.00  0.00     0.067 C
ENDROOT
BRANCH   1  12
HETATM   12  O5  UNL     1      25.545  11.104  22.558  1.00  0.00    -0.346 OA
BRANCH  12  13
HETATM   13  C15 UNL     1      24.738   9.968  22.692  1.00  0.00     0.070 C
HETATM   14  C16 UNL     1      23.670  10.040  23.417  1.00  0.00     0.049 C
BRANCH  13  15
HETATM   15  C14 UNL     1      25.036   8.666  22.036  1.00  0.00     0.207 C
BRANCH  15  16
HETATM   16  C12 UNL     1      24.212   7.528  22.369  1.00  0.00     0.009 C
HETATM   17  C11 UNL     1      24.538   6.352  22.819  1.00  0.00     0.011 C
BRANCH  17  18
HETATM   18  C10 UNL     1      25.899   5.887  22.910  1.00  0.00     0.009 C
HETATM   19  C9  UNL     1      26.506   5.578  24.018  1.00  0.00     0.065 C
BRANCH  19  20
HETATM   20  C8  UNL     1      25.884   5.639  25.343  1.00  0.00    -0.074 C
HETATM   21  C7  UNL     1      25.434   5.671  26.375  1.00  0.00    -0.074 C
BRANCH  21  22
HETATM   22  C6  UNL     1      24.849   5.715  27.705  1.00  0.00     0.063 C
HETATM   23  C5  UNL     1      25.765   6.087  28.606  1.00  0.00     0.018 C
BRANCH  23  24
HETATM   24  C4  UNL     1      25.705   6.287  30.002  1.00  0.00     0.169 C
BRANCH  24  25
HETATM   25  C2  UNL     1      26.204   7.636  30.416  1.00  0.00    -0.061 C
HETATM   26  C1  UNL     1      27.378   8.069  30.066  1.00  0.00     0.017 C
HETATM   27  C3  UNL     1      25.365   8.536  31.299  1.00  0.00     0.045 C
ENDBRANCH  24  25
BRANCH  24  28
HETATM   28  O1  UNL     1      26.520   5.329  30.705  1.00  0.00    -0.387 OA
ATOM     29  H1  UNL     1      26.466   4.522  30.206  1.00  0.00     0.210 HD
ENDBRANCH  24  28
ENDBRANCH  23  24
ENDBRANCH  21  22
ENDBRANCH  19  20
ENDBRANCH  17  18
BRANCH  16  30
HETATM   30  C13 UNL     1      22.711   7.803  22.334  1.00  0.00     0.287 C
BRANCH  30  31
HETATM   31  O2  UNL     1      21.988   6.812  23.017  1.00  0.00    -0.367 OA
ATOM     32  H2  UNL     1      21.104   7.097  23.213  1.00  0.00     0.213 HD
ENDBRANCH  30  31
BRANCH  30  33
HETATM   33  O3  UNL     1      22.278   7.857  21.017  1.00  0.00    -0.367 OA
ATOM     34  H3  UNL     1      21.341   7.703  20.983  1.00  0.00     0.213 HD
ENDBRANCH  30  33
ENDBRANCH  16  30
ENDBRANCH  15  16
BRANCH  15  35
HETATM   35  O4  UNL     1      25.134   8.993  20.685  1.00  0.00    -0.384 OA
ATOM     36  H4  UNL     1      25.936   8.741  20.242  1.00  0.00     0.211 HD
ENDBRANCH  15  35
ENDBRANCH  13  15
ENDBRANCH  12  13
ENDBRANCH   1  12
BRANCH  10  37
HETATM   37  O7  UNL     1      22.888  14.365  24.135  1.00  0.00    -0.353 OA
BRANCH  37  38
HETATM   38  C26 UNL     1      21.599  14.843  24.002  1.00  0.00     0.291 C
HETATM   39  O8  UNL     1      20.988  14.088  23.062  1.00  0.00    -0.351 OA
HETATM   40  C27 UNL     1      21.137  12.721  23.416  1.00  0.00     0.152 C
HETATM   41  C28 UNL     1      20.810  11.914  22.177  1.00  0.00     0.042 C
HETATM   42  C29 UNL     1      20.341  12.367  24.623  1.00  0.00     0.178 C
HETATM   43  C30 UNL     1      20.413  13.383  25.697  1.00  0.00     0.185 C
HETATM   44  C32 UNL     1      20.748  14.757  25.255  1.00  0.00     0.204 C
BRANCH  42  45
HETATM   45  O9  UNL     1      20.895  11.162  25.157  1.00  0.00    -0.390 OA
ATOM     46  H9  UNL     1      21.109  11.329  26.068  1.00  0.00     0.210 HD
ENDBRANCH  42  45
BRANCH  43  47
HETATM   47  O10 UNL     1      19.217  13.451  26.444  1.00  0.00    -0.385 OA
HETATM   48  C31 UNL     1      18.161  13.835  25.665  1.00  0.00     0.202 C
ENDBRANCH  43  47
BRANCH  44  49
HETATM   49  O11 UNL     1      21.273  15.527  26.306  1.00  0.00    -0.388 OA
ATOM     50  H11 UNL     1      22.212  15.420  26.394  1.00  0.00     0.210 HD
ENDBRANCH  44  49
ENDBRANCH  37  38
ENDBRANCH  10  37
TORSDOF 19
ENDMDL