MODEL 4
REMARK VINA RESULT: -7.716465083      1.644      2.328
REMARK  15 active torsions:
REMARK  status: ('A' for Active; 'I' for Inactive)
REMARK    1  A    between atoms: C4_4  and  O1_5
REMARK    2  A    between atoms: O1_5  and  C5_6
REMARK    3  A    between atoms: C5_6  and  C6_8
REMARK    4  A    between atoms: C11_13  and  C12_14
REMARK    5  A    between atoms: C20_27  and  O8_28
REMARK    6  A    between atoms: C21_30  and  O9_31
REMARK    7  A    between atoms: C22_33  and  C23_34
REMARK    8  A    between atoms: C23_34  and  C24_35
REMARK    9  A    between atoms: C24_35  and  N1_36
REMARK       I    between atoms: N1_36  and  C25_38
REMARK   10  A    between atoms: C25_38  and  C26_40
REMARK   11  A    between atoms: C26_40  and  C27_41
REMARK   12  A    between atoms: C27_41  and  C28_42
REMARK   13  A    between atoms: C28_42  and  C29_43
REMARK   14  A    between atoms: C29_43  and  C30_44
REMARK   15  A    between atoms: C30_44  and  C31_45
ROOT
HETATM    1  C1  UNL     1      25.931   5.583  16.660  1.00  0.00     0.040 C
HETATM    2  C2  UNL     1      25.788   6.544  17.859  1.00  0.00     0.130 C
HETATM    3  C3  UNL     1      26.663   6.137  19.026  1.00  0.00     0.065 C
HETATM    4  C4  UNL     1      26.039   5.881  20.329  1.00  0.00     0.146 C
HETATM    5  C13 UNL     1      25.751   6.949  21.348  1.00  0.00     0.028 C
HETATM    6  C14 UNL     1      26.834   7.943  21.527  1.00  0.00     0.098 C
HETATM    7  C15 UNL     1      26.600   9.351  21.081  1.00  0.00     0.146 C
HETATM    8  O5  UNL     1      26.510  10.314  21.802  1.00  0.00    -0.294 OA
HETATM    9  C16 UNL     1      26.477   9.535  19.655  1.00  0.00     0.024 C
HETATM   10  C17 UNL     1      26.436  10.797  18.920  1.00  0.00     0.041 C
HETATM   11  C18 UNL     1      26.092  10.291  17.490  1.00  0.00     0.115 C
HETATM   12  C19 UNL     1      26.638   8.919  17.230  1.00  0.00     0.259 C
HETATM   13  O6  UNL     1      27.879   9.007  16.857  1.00  0.00    -0.265 OA
HETATM   14  O7  UNL     1      25.944   7.791  17.364  1.00  0.00    -0.316 OA
HETATM   15  C20 UNL     1      24.333   7.516  21.183  1.00  0.00     0.159 C
HETATM   16  C21 UNL     1      23.775   6.423  22.093  1.00  0.00     0.152 C
HETATM   17  C22 UNL     1      25.197   6.266  22.587  1.00  0.00     0.032 C
ENDROOT
BRANCH   4  18
HETATM   18  O1  UNL     1      26.932   4.963  20.958  1.00  0.00    -0.315 OA
BRANCH  18  19
HETATM   19  C5  UNL     1      26.532   3.788  21.566  1.00  0.00     0.264 C
HETATM   20  O2  UNL     1      25.561   3.192  21.035  1.00  0.00    -0.265 OA
BRANCH  19  21
HETATM   21  C6  UNL     1      27.255   3.326  22.768  1.00  0.00     0.100 C
HETATM   22  C7  UNL     1      28.739   3.404  22.649  1.00  0.00     0.015 C
HETATM   23  C8  UNL     1      29.351   2.365  21.782  1.00  0.00     0.001 C
HETATM   24  C9  UNL     1      28.487   1.173  21.516  1.00  0.00     0.001 C
HETATM   25  C10 UNL     1      27.546   0.835  22.633  1.00  0.00     0.016 C
HETATM   26  C11 UNL     1      26.841   1.979  23.242  1.00  0.00     0.100 C
BRANCH  26  27
HETATM   27  C12 UNL     1      26.990   1.945  24.735  1.00  0.00     0.177 C
HETATM   28  O3  UNL     1      26.689   2.941  25.448  1.00  0.00    -0.648 OA
HETATM   29  O4  UNL     1      27.464   0.819  25.394  1.00  0.00    -0.648 OA
ENDBRANCH  26  27
ENDBRANCH  19  21
ENDBRANCH  18  19
ENDBRANCH   4  18
BRANCH  15  30
HETATM   30  O8  UNL     1      24.033   8.716  21.746  1.00  0.00    -0.392 OA
ATOM     31  H8  UNL     1      23.126   8.998  21.773  1.00  0.00     0.210 HD
ENDBRANCH  15  30
BRANCH  17  32
HETATM   32  C23 UNL     1      25.530   6.650  23.939  1.00  0.00     0.028 C
BRANCH  32  33
HETATM   33  C24 UNL     1      25.019   6.020  25.163  1.00  0.00     0.123 C
BRANCH  33  34
HETATM   34  N1  UNL     1      26.074   5.871  26.176  1.00  0.00    -0.361 N
HETATM   35  C25 UNL     1      25.840   5.890  27.560  1.00  0.00     0.217 C
HETATM   36  O10 UNL     1      24.655   6.045  27.969  1.00  0.00    -0.274 OA
ATOM     37  H1  UNL     1      27.034   5.746  25.854  1.00  0.00     0.162 HD
BRANCH  35  38
HETATM   38  C26 UNL     1      26.898   5.740  28.573  1.00  0.00     0.103 C
BRANCH  38  39
HETATM   39  C27 UNL     1      26.383   5.718  29.970  1.00  0.00     0.009 C
BRANCH  39  40
HETATM   40  C28 UNL     1      27.115   6.842  30.724  1.00  0.00     0.001 C
BRANCH  40  41
HETATM   41  C29 UNL     1      26.543   8.184  30.351  1.00  0.00     0.010 C
BRANCH  41  42
HETATM   42  C30 UNL     1      25.098   8.244  30.707  1.00  0.00     0.113 C
BRANCH  42  43
HETATM   43  C31 UNL     1      24.853   9.304  31.683  1.00  0.00     0.172 C
HETATM   44  O11 UNL     1      24.756   9.120  32.930  1.00  0.00    -0.648 OA
HETATM   45  O12 UNL     1      24.710  10.632  31.274  1.00  0.00    -0.648 OA
ENDBRANCH  42  43
ENDBRANCH  41  42
ENDBRANCH  40  41
ENDBRANCH  39  40
ENDBRANCH  38  39
ENDBRANCH  35  38
ENDBRANCH  33  34
ENDBRANCH  32  33
ENDBRANCH  17  32
BRANCH  16  46
HETATM   46  O9  UNL     1      22.824   6.798  22.993  1.00  0.00    -0.393 OA
ATOM     47  H9  UNL     1      23.073   6.786  23.909  1.00  0.00     0.210 HD
ENDBRANCH  16  46
TORSDOF 15
ENDMDL