MODEL 1
REMARK VINA RESULT: -8.688138986      0.000      0.000
REMARK  18 active torsions:
REMARK  status: ('A' for Active; 'I' for Inactive)
REMARK    1  A    between atoms: C2_2  and  C3_3
REMARK    2  A    between atoms: C2_2  and  C8_12
REMARK    3  A    between atoms: C3_3  and  C4_4
REMARK    4  A    between atoms: C4_4  and  C5_5
REMARK    5  A    between atoms: C5_5  and  O1_7
REMARK    6  A    between atoms: C5_5  and  C7_9
REMARK    7  A    between atoms: C7_9  and  O2_10
REMARK    8  A    between atoms: C8_12  and  C9_14
REMARK    9  A    between atoms: C9_14  and  C10_15
REMARK   10  A    between atoms: C10_15  and  C11_16
REMARK   11  A    between atoms: C11_16  and  C13_18
REMARK   12  A    between atoms: C13_18  and  C15_20
REMARK   13  A    between atoms: C21_26  and  O4_27
REMARK   14  A    between atoms: O4_27  and  C22_28
REMARK   15  A    between atoms: C26_34  and  O7_35
REMARK   16  A    between atoms: C28_38  and  O8_39
REMARK   17  A    between atoms: C29_41  and  O9_42
REMARK   18  A    between atoms: C30_44  and  O10_45
ROOT
HETATM    1  C15 UNL     1      24.373   7.757  21.387  1.00  0.00    -0.002 C
HETATM    2  C16 UNL     1      25.909   8.030  21.557  1.00  0.00     0.006 C
HETATM    3  C17 UNL     1      26.025   9.533  21.674  1.00  0.00     0.006 C
HETATM    4  C18 UNL     1      24.606   9.974  21.770  1.00  0.00     0.000 C
HETATM    5  C19 UNL     1      24.335  11.306  22.296  1.00  0.00     0.015 C
HETATM    6  C20 UNL     1      25.434  11.760  23.235  1.00  0.00     0.013 C
HETATM    7  C21 UNL     1      22.984  11.541  22.879  1.00  0.00     0.129 C
HETATM    8  C31 UNL     1      22.326  10.326  23.424  1.00  0.00     0.033 C
HETATM    9  C32 UNL     1      22.558   9.073  22.622  1.00  0.00     0.012 C
HETATM   10  C33 UNL     1      23.976   8.767  22.474  1.00  0.00    -0.036 C
HETATM   11  C34 UNL     1      24.704   8.385  23.714  1.00  0.00     0.016 C
ENDROOT
BRANCH   7  12
HETATM   12  O4  UNL     1      22.097  12.224  22.114  1.00  0.00    -0.353 OA
BRANCH  12  13
HETATM   13  C22 UNL     1      20.926  12.653  22.620  1.00  0.00     0.294 C
HETATM   14  O5  UNL     1      21.236  13.614  23.617  1.00  0.00    -0.328 OA
HETATM   15  C23 UNL     1      20.197  13.935  24.411  1.00  0.00     0.272 C
HETATM   16  O6  UNL     1      20.172  13.312  25.661  1.00  0.00    -0.353 OA
HETATM   17  C27 UNL     1      18.818  13.698  23.930  1.00  0.00     0.104 C
HETATM   18  C24 UNL     1      19.076  13.973  26.261  1.00  0.00     0.150 C
HETATM   19  C25 UNL     1      19.458  15.362  26.698  1.00  0.00     0.042 C
HETATM   20  C26 UNL     1      18.021  14.119  25.180  1.00  0.00     0.158 C
HETATM   21  C28 UNL     1      18.465  14.553  22.763  1.00  0.00     0.161 C
HETATM   22  C29 UNL     1      19.653  14.684  21.871  1.00  0.00     0.181 C
HETATM   23  C30 UNL     1      20.136  13.302  21.507  1.00  0.00     0.204 C
BRANCH  20  24
HETATM   24  O7  UNL     1      16.935  13.307  25.395  1.00  0.00    -0.392 OA
ATOM     25  H7  UNL     1      16.286  13.380  24.705  1.00  0.00     0.210 HD
ENDBRANCH  20  24
BRANCH  21  26
HETATM   26  O8  UNL     1      17.904  15.776  23.114  1.00  0.00    -0.392 OA
ATOM     27  H8  UNL     1      17.395  16.177  22.419  1.00  0.00     0.210 HD
ENDBRANCH  21  26
BRANCH  22  28
HETATM   28  O9  UNL     1      20.639  15.530  22.300  1.00  0.00    -0.390 OA
ATOM     29  H9  UNL     1      21.441  15.120  22.600  1.00  0.00     0.210 HD
ENDBRANCH  22  28
BRANCH  23  30
HETATM   30  O10 UNL     1      20.942  13.492  20.359  1.00  0.00    -0.388 OA
ATOM     31  H10 UNL     1      21.751  13.938  20.582  1.00  0.00     0.210 HD
ENDBRANCH  23  30
ENDBRANCH  12  13
ENDBRANCH   7  12
BRANCH   1  32
HETATM   32  C13 UNL     1      24.080   6.338  21.667  1.00  0.00    -0.010 C
HETATM   33  C14 UNL     1      23.315   5.750  20.501  1.00  0.00     0.011 C
BRANCH  32  34
HETATM   34  C11 UNL     1      25.345   5.508  21.804  1.00  0.00    -0.014 C
HETATM   35  C12 UNL     1      25.442   4.499  20.651  1.00  0.00     0.010 C
BRANCH  34  36
HETATM   36  C10 UNL     1      25.598   4.794  23.043  1.00  0.00     0.012 C
BRANCH  36  37
HETATM   37  C9  UNL     1      26.522   5.239  24.084  1.00  0.00     0.084 C
BRANCH  37  38
HETATM   38  C8  UNL     1      26.247   4.515  25.390  1.00  0.00     0.154 C
HETATM   39  O3  UNL     1      26.516   3.292  25.451  1.00  0.00    -0.293 OA
BRANCH  38  40
HETATM   40  C2  UNL     1      25.695   5.194  26.540  1.00  0.00    -0.022 C
HETATM   41  C1  UNL     1      24.378   5.322  26.649  1.00  0.00     0.022 C
BRANCH  40  42
HETATM   42  C3  UNL     1      26.505   5.680  27.649  1.00  0.00     0.044 C
BRANCH  42  43
HETATM   43  C4  UNL     1      25.894   5.666  28.976  1.00  0.00     0.044 C
BRANCH  43  44
HETATM   44  C5  UNL     1      26.238   6.632  30.033  1.00  0.00     0.075 C
HETATM   45  C6  UNL     1      27.562   7.314  29.917  1.00  0.00     0.048 C
BRANCH  44  46
HETATM   46  O1  UNL     1      26.415   5.761  31.212  1.00  0.00    -0.388 OA
ATOM     47  H1  UNL     1      26.683   6.378  31.883  1.00  0.00     0.210 HD
ENDBRANCH  44  46
BRANCH  44  48
HETATM   48  C7  UNL     1      25.144   7.554  30.499  1.00  0.00     0.201 C
BRANCH  48  49
HETATM   49  O2  UNL     1      24.199   7.717  29.454  1.00  0.00    -0.398 OA
ATOM     50  H2  UNL     1      23.349   7.421  29.757  1.00  0.00     0.209 HD
ENDBRANCH  48  49
ENDBRANCH  44  48
ENDBRANCH  43  44
ENDBRANCH  42  43
ENDBRANCH  40  42
ENDBRANCH  38  40
ENDBRANCH  37  38
ENDBRANCH  36  37
ENDBRANCH  34  36
ENDBRANCH  32  34
ENDBRANCH   1  32
TORSDOF 18
ENDMDL