MODEL 2
REMARK VINA RESULT: -8.081245715      1.274      2.470
REMARK  18 active torsions:
REMARK  status: ('A' for Active; 'I' for Inactive)
REMARK    1  A    between atoms: C2_2  and  C4_4
REMARK    2  A    between atoms: C4_4  and  C5_5
REMARK    3  A    between atoms: C5_5  and  C6_6
REMARK    4  A    between atoms: C6_6  and  C7_7
REMARK    5  A    between atoms: C7_7  and  C9_9
REMARK    6  A    between atoms: C9_9  and  C11_11
REMARK    7  A    between atoms: C11_11  and  O1_12
REMARK    8  A    between atoms: O1_12  and  C12_13
REMARK    9  A    between atoms: C13_15  and  C14_16
REMARK   10  A    between atoms: C14_16  and  C15_17
REMARK   11  A    between atoms: C15_17  and  O3_18
REMARK   12  A    between atoms: C21_25  and  O4_26
REMARK   13  A    between atoms: O4_26  and  C22_27
REMARK   14  A    between atoms: C27_33  and  O6_35
REMARK   15  A    between atoms: C29_37  and  O7_38
REMARK   16  A    between atoms: C31_41  and  O8_42
REMARK   17  A    between atoms: C32_44  and  O9_45
REMARK   18  A    between atoms: C33_47  and  O10_48
ROOT
HETATM    1  C12 UNL     1      24.739   6.363  23.340  1.00  0.00     0.413 C
HETATM    2  O2  UNL     1      23.394   6.364  23.113  1.00  0.00    -0.334 OA
HETATM    3  C13 UNL     1      23.052   7.017  21.963  1.00  0.00     0.129 C
HETATM    4  C16 UNL     1      22.828   8.489  22.088  1.00  0.00     0.042 C
HETATM    5  C17 UNL     1      23.472   9.130  23.258  1.00  0.00     0.046 C
HETATM    6  C18 UNL     1      24.883   8.705  23.527  1.00  0.00     0.133 C
HETATM    7  C19 UNL     1      25.603   9.141  22.301  1.00  0.00     0.035 C
HETATM    8  C20 UNL     1      25.085  10.584  22.184  1.00  0.00     0.035 C
HETATM    9  C21 UNL     1      23.725  10.594  22.849  1.00  0.00     0.131 C
HETATM   10  O11 UNL     1      25.092   7.502  24.035  1.00  0.00    -0.333 OA
ENDROOT
BRANCH   9  11
HETATM   11  O4  UNL     1      22.790  10.990  21.898  1.00  0.00    -0.353 OA
BRANCH  11  12
HETATM   12  C22 UNL     1      22.259  12.252  22.164  1.00  0.00     0.291 C
HETATM   13  O5  UNL     1      22.677  12.583  23.451  1.00  0.00    -0.353 OA
HETATM   14  C23 UNL     1      22.294  13.890  23.805  1.00  0.00     0.134 C
HETATM   15  C24 UNL     1      22.823  14.806  22.766  1.00  0.00     0.040 C
HETATM   16  C25 UNL     1      20.784  13.990  24.020  1.00  0.00     0.043 C
HETATM   17  C26 UNL     1      20.244  15.227  23.432  1.00  0.00     0.057 C
HETATM   18  C31 UNL     1      20.601  13.926  25.543  1.00  0.00     0.134 C
HETATM   19  C32 UNL     1      20.201  12.705  23.489  1.00  0.00     0.165 C
HETATM   20  C27 UNL     1      19.068  15.862  24.040  1.00  0.00     0.081 C
HETATM   21  C28 UNL     1      17.753  15.554  23.316  1.00  0.00     0.049 C
HETATM   22  C29 UNL     1      18.836  15.590  25.492  1.00  0.00     0.154 C
HETATM   23  C30 UNL     1      19.208  14.233  25.965  1.00  0.00     0.067 C
HETATM   24  C33 UNL     1      20.757  12.277  22.159  1.00  0.00     0.203 C
BRANCH  20  25
HETATM   25  O6  UNL     1      19.197  17.274  23.947  1.00  0.00    -0.388 OA
ATOM     26  H6  UNL     1      18.476  17.685  24.409  1.00  0.00     0.210 HD
ENDBRANCH  20  25
BRANCH  22  27
HETATM   27  O7  UNL     1      17.484  15.838  25.769  1.00  0.00    -0.392 OA
ATOM     28  H7  UNL     1      17.300  15.522  26.646  1.00  0.00     0.210 HD
ENDBRANCH  22  27
BRANCH  18  29
HETATM   29  O8  UNL     1      21.466  14.799  26.181  1.00  0.00    -0.395 OA
ATOM     30  H8  UNL     1      22.200  14.331  26.562  1.00  0.00     0.210 HD
ENDBRANCH  18  29
BRANCH  19  31
HETATM   31  O9  UNL     1      18.841  12.648  23.447  1.00  0.00    -0.392 OA
ATOM     32  H9  UNL     1      18.427  12.186  24.167  1.00  0.00     0.210 HD
ENDBRANCH  19  31
BRANCH  24  33
HETATM   33  O10 UNL     1      20.212  12.951  21.083  1.00  0.00    -0.388 OA
ATOM     34  H10 UNL     1      19.623  13.656  21.327  1.00  0.00     0.210 HD
ENDBRANCH  24  33
ENDBRANCH  11  12
ENDBRANCH   9  11
BRANCH   3  35
HETATM   35  C14 UNL     1      21.779   6.330  21.440  1.00  0.00     0.058 C
BRANCH  35  36
HETATM   36  C15 UNL     1      22.149   5.531  20.214  1.00  0.00     0.166 C
BRANCH  36  37
HETATM   37  O3  UNL     1      23.506   5.208  20.316  1.00  0.00    -0.401 OA
ATOM     38  H3  UNL     1      23.932   5.508  19.521  1.00  0.00     0.209 HD
ENDBRANCH  36  37
ENDBRANCH  35  36
ENDBRANCH   3  35
BRANCH   1  39
HETATM   39  O1  UNL     1      25.559   6.075  22.288  1.00  0.00    -0.339 OA
BRANCH  39  40
HETATM   40  C11 UNL     1      26.649   5.225  22.611  1.00  0.00     0.178 C
BRANCH  40  41
HETATM   41  C9  UNL     1      26.146   4.078  23.394  1.00  0.00     0.009 C
HETATM   42  C10 UNL     1      26.564   2.814  22.545  1.00  0.00     0.012 C
BRANCH  41  43
HETATM   43  C7  UNL     1      26.705   3.788  24.731  1.00  0.00    -0.013 C
HETATM   44  C8  UNL     1      26.965   2.231  24.675  1.00  0.00     0.010 C
BRANCH  43  45
HETATM   45  C6  UNL     1      25.971   4.049  25.965  1.00  0.00     0.005 C
BRANCH  45  46
HETATM   46  C5  UNL     1      26.219   5.347  26.632  1.00  0.00     0.005 C
BRANCH  46  47
HETATM   47  C4  UNL     1      25.286   5.631  27.788  1.00  0.00     0.033 C
BRANCH  47  48
HETATM   48  C2  UNL     1      26.113   6.025  28.965  1.00  0.00    -0.093 C
HETATM   49  C1  UNL     1      27.406   5.737  28.946  1.00  0.00     0.014 C
HETATM   50  C3  UNL     1      25.508   6.726  30.137  1.00  0.00     0.042 C
ENDBRANCH  47  48
ENDBRANCH  46  47
ENDBRANCH  45  46
ENDBRANCH  43  45
ENDBRANCH  41  43
ENDBRANCH  40  41
ENDBRANCH  39  40
ENDBRANCH   1  39
TORSDOF 18
ENDMDL