MODEL 4
REMARK VINA RESULT: -6.064837647      1.616      2.615
REMARK  17 active torsions:
REMARK  status: ('A' for Active; 'I' for Inactive)
REMARK    1  A    between atoms: C2_2  and  C3_3
REMARK    2  A    between atoms: C3_3  and  S1_4
REMARK    3  A    between atoms: S1_4  and  C4_5
REMARK    4  A    between atoms: C4_5  and  C5_6
REMARK    5  A    between atoms: C5_6  and  C6_7
REMARK       I    between atoms: C6_7  and  N1_9
REMARK    6  A    between atoms: N1_9  and  C7_11
REMARK    7  A    between atoms: C12_17  and  O3_18
REMARK    8  A    between atoms: C12_17  and  C13_20
REMARK    9  A    between atoms: C13_20  and  O4_21
REMARK   10  A    between atoms: C13_20  and  C14_23
REMARK   11  A    between atoms: C14_23  and  C16_25
REMARK   12  A    between atoms: C16_25  and  C17_27
REMARK   13  A    between atoms: C20_30  and  O6_32
REMARK   14  A    between atoms: O6_32  and  C22_33
REMARK   15  A    between atoms: C26_38  and  N2_39
REMARK   16  A    between atoms: C28_43  and  O8_44
REMARK   17  A    between atoms: C29_46  and  O9_47
ROOT
HETATM    1  C7  UNL     1      25.471   9.221  22.195  1.00  0.00     0.122 C
HETATM    2  C8  UNL     1      24.412   8.181  22.150  1.00  0.00     0.037 C
HETATM    3  C9  UNL     1      23.299   8.753  23.066  1.00  0.00     0.015 C
HETATM    4  C10 UNL     1      24.917   6.878  22.672  1.00  0.00     0.127 C
HETATM    5  C11 UNL     1      23.749   6.379  23.577  1.00  0.00     0.040 C
HETATM    6  O2  UNL     1      25.115   5.979  21.712  1.00  0.00    -0.344 OA
HETATM    7  C12 UNL     1      26.367   5.741  21.153  1.00  0.00     0.231 C
HETATM    8  C20 UNL     1      26.679   6.649  19.995  1.00  0.00     0.167 C
HETATM    9  C21 UNL     1      25.354   6.386  19.123  1.00  0.00     0.060 C
HETATM   10  C29 UNL     1      26.577   8.115  20.190  1.00  0.00     0.087 C
HETATM   11  C30 UNL     1      26.712   8.929  21.365  1.00  0.00    -0.029 C
HETATM   12  C31 UNL     1      27.948   8.962  22.197  1.00  0.00     0.048 C
ENDROOT
BRANCH   8  13
HETATM   13  O6  UNL     1      27.543   6.192  19.172  1.00  0.00    -0.335 OA
BRANCH  13  14
HETATM   14  C22 UNL     1      28.369   5.757  18.384  1.00  0.00     0.292 C
HETATM   15  O7  UNL     1      28.247   4.359  17.982  1.00  0.00    -0.354 OA
HETATM   16  C23 UNL     1      28.397   4.210  16.626  1.00  0.00     0.122 C
HETATM   17  C24 UNL     1      27.234   4.811  15.840  1.00  0.00     0.040 C
HETATM   18  C25 UNL     1      29.630   5.021  16.195  1.00  0.00     0.067 C
HETATM   19  C26 UNL     1      30.509   5.148  17.389  1.00  0.00     0.221 C
HETATM   20  C28 UNL     1      29.876   5.847  18.575  1.00  0.00     0.204 C
BRANCH  19  21
HETATM   21  N2  UNL     1      31.814   5.695  17.084  1.00  0.00    -0.072 N
HETATM   22  C27 UNL     1      32.817   4.648  17.084  1.00  0.00     0.267 C
ATOM     23  H22 UNL     1      31.811   6.217  16.208  1.00  0.00     0.277 HD
ATOM     24  H21 UNL     1      32.062   6.457  17.715  1.00  0.00     0.277 HD
ENDBRANCH  19  21
BRANCH  20  25
HETATM   25  O8  UNL     1      30.363   5.175  19.673  1.00  0.00    -0.389 OA
ATOM     26  H8  UNL     1      31.309   5.164  19.748  1.00  0.00     0.210 HD
ENDBRANCH  20  25
ENDBRANCH  13  14
ENDBRANCH   8  13
BRANCH   7  27
HETATM   27  O3  UNL     1      26.099   4.473  20.489  1.00  0.00    -0.360 OA
ATOM     28  H3  UNL     1      26.356   4.701  19.603  1.00  0.00     0.213 HD
ENDBRANCH   7  27
BRANCH   7  29
HETATM   29  C13 UNL     1      27.411   5.255  22.067  1.00  0.00     0.216 C
BRANCH  29  30
HETATM   30  O4  UNL     1      28.711   5.680  21.751  1.00  0.00    -0.385 OA
ATOM     31  H4  UNL     1      28.839   6.620  21.788  1.00  0.00     0.210 HD
ENDBRANCH  29  30
BRANCH  29  32
HETATM   32  C14 UNL     1      27.636   3.767  22.217  1.00  0.00    -0.004 C
HETATM   33  C15 UNL     1      28.997   3.244  22.091  1.00  0.00     0.050 C
BRANCH  32  34
HETATM   34  C16 UNL     1      26.762   3.064  23.174  1.00  0.00     0.157 C
HETATM   35  O5  UNL     1      25.762   2.537  22.780  1.00  0.00    -0.293 OA
BRANCH  34  36
HETATM   36  C17 UNL     1      27.040   2.958  24.626  1.00  0.00     0.052 C
HETATM   37  C18 UNL     1      26.223   3.981  25.423  1.00  0.00     0.018 C
HETATM   38  C19 UNL     1      26.930   1.570  25.183  1.00  0.00     0.018 C
ENDBRANCH  34  36
ENDBRANCH  32  34
ENDBRANCH  29  32
ENDBRANCH   7  29
BRANCH  10  39
HETATM   39  O9  UNL     1      25.488   8.710  19.495  1.00  0.00    -0.361 OA
ATOM     40  H9  UNL     1      24.981   9.315  20.024  1.00  0.00     0.217 HD
ENDBRANCH  10  39
BRANCH   1  41
HETATM   41  N1  UNL     1      24.845  10.466  21.837  1.00  0.00    -0.352 N
HETATM   42  C6  UNL     1      24.959  11.737  22.393  1.00  0.00     0.218 C
HETATM   43  O1  UNL     1      25.716  11.907  23.389  1.00  0.00    -0.274 OA
ATOM     44  H1  UNL     1      24.210  10.407  21.041  1.00  0.00     0.163 HD
BRANCH  42  45
HETATM   45  C5  UNL     1      24.236  12.925  21.891  1.00  0.00     0.113 C
BRANCH  45  46
HETATM   46  C4  UNL     1      23.106  13.257  22.807  1.00  0.00     0.083 C
BRANCH  46  47
HETATM   47  S1  UNL     1      21.642  12.239  22.476  1.00  0.00    -0.165 SA
BRANCH  47  48
HETATM   48  C3  UNL     1      20.593  12.311  23.984  1.00  0.00     0.100 C
BRANCH  48  49
HETATM   49  C2  UNL     1      20.438  10.931  24.518  1.00  0.00    -0.027 C
HETATM   50  C1  UNL     1      19.437  10.552  25.285  1.00  0.00     0.007 C
ENDBRANCH  48  49
ENDBRANCH  47  48
ENDBRANCH  46  47
ENDBRANCH  45  46
ENDBRANCH  42  45
ENDBRANCH   1  41
TORSDOF 17
ENDMDL