MODEL 4
REMARK VINA RESULT: -6.978161243      1.816      2.420
REMARK  22 active torsions:
REMARK  status: ('A' for Active; 'I' for Inactive)
REMARK    1  A    between atoms: C2_2  and  C3_3
REMARK    2  A    between atoms: C9_10  and  O2_11
REMARK    3  A    between atoms: C9_10  and  C10_13
REMARK    4  A    between atoms: C10_13  and  O3_14
REMARK    5  A    between atoms: C10_13  and  C11_16
REMARK    6  A    between atoms: C11_16  and  C13_18
REMARK    7  A    between atoms: C13_18  and  C15_20
REMARK    8  A    between atoms: C15_20  and  C16_21
REMARK    9  A    between atoms: C15_20  and  C31_43
REMARK   10  A    between atoms: C16_21  and  C17_22
REMARK   11  A    between atoms: C17_22  and  C18_23
REMARK   12  A    between atoms: C18_23  and  C20_25
REMARK   13  A    between atoms: C20_25  and  C21_26
REMARK   14  A    between atoms: C21_26  and  C22_27
REMARK   15  A    between atoms: C22_27  and  C23_28
REMARK   16  A    between atoms: C23_28  and  C25_31
REMARK   17  A    between atoms: C27_33  and  O4_34
REMARK   18  A    between atoms: C28_36  and  O5_37
REMARK   19  A    between atoms: C31_43  and  C32_44
REMARK   20  A    between atoms: C32_44  and  O8_45
REMARK   21  A    between atoms: C32_44  and  C33_47
REMARK   22  A    between atoms: C33_47  and  O9_50
ROOT
HETATM    1  C23 UNL     1      24.340  14.838  22.376  1.00  0.00     0.144 C
HETATM    2  C24 UNL     1      24.643  14.530  20.975  1.00  0.00     0.070 C
HETATM    3  N1  UNL     1      24.867  14.295  19.867  1.00  0.00    -0.197 NA
ENDROOT
BRANCH   1   4
HETATM    4  C22 UNL     1      24.725  13.749  23.281  1.00  0.00    -0.005 C
BRANCH   4   5
HETATM    5  C21 UNL     1      24.386  12.479  23.170  1.00  0.00    -0.002 C
BRANCH   5   6
HETATM    6  C20 UNL     1      25.253  11.443  22.707  1.00  0.00     0.006 C
BRANCH   6   7
HETATM    7  C18 UNL     1      24.836  10.228  22.437  1.00  0.00    -0.062 C
HETATM    8  C19 UNL     1      23.529   9.660  22.815  1.00  0.00     0.048 C
BRANCH   7   9
HETATM    9  C17 UNL     1      25.745   9.301  21.677  1.00  0.00     0.007 C
BRANCH   9  10
HETATM   10  C16 UNL     1      26.454   8.443  22.334  1.00  0.00     0.008 C
BRANCH  10  11
HETATM   11  C15 UNL     1      26.186   7.036  22.641  1.00  0.00    -0.055 C
BRANCH  11  12
HETATM   12  C13 UNL     1      26.406   5.902  21.746  1.00  0.00     0.021 C
HETATM   13  C14 UNL     1      27.846   5.499  21.686  1.00  0.00     0.015 C
BRANCH  12  14
HETATM   14  C11 UNL     1      25.763   5.980  20.407  1.00  0.00     0.024 C
HETATM   15  C12 UNL     1      26.667   6.355  19.327  1.00  0.00     0.013 C
BRANCH  14  16
HETATM   16  C10 UNL     1      25.003   4.658  20.160  1.00  0.00     0.185 C
BRANCH  16  17
HETATM   17  C9  UNL     1      23.590   4.813  19.738  1.00  0.00     0.196 C
HETATM   18  C3  UNL     1      22.992   6.142  19.559  1.00  0.00     0.073 C
HETATM   19  C4  UNL     1      21.839   5.942  18.556  1.00  0.00    -0.018 C
HETATM   20  C5  UNL     1      21.294   4.773  18.461  1.00  0.00     0.007 C
HETATM   21  C6  UNL     1      21.693   3.583  19.249  1.00  0.00     0.075 C
HETATM   22  C7  UNL     1      20.487   3.241  20.137  1.00  0.00     0.050 C
HETATM   23  C8  UNL     1      21.855   2.422  18.285  1.00  0.00     0.050 C
HETATM   24  O1  UNL     1      22.763   3.792  20.045  1.00  0.00    -0.338 OA
BRANCH  18  25
HETATM   25  C2  UNL     1      22.354   6.898  20.659  1.00  0.00     0.009 C
HETATM   26  C1  UNL     1      22.046   6.238  21.934  1.00  0.00     0.006 C
ENDBRANCH  18  25
BRANCH  17  27
HETATM   27  O2  UNL     1      23.726   4.470  18.220  1.00  0.00    -0.363 OA
ATOM     28  H2  UNL     1      23.771   3.527  18.325  1.00  0.00     0.213 HD
ENDBRANCH  17  27
ENDBRANCH  16  17
BRANCH  16  29
HETATM   29  O3  UNL     1      24.923   4.213  21.557  1.00  0.00    -0.390 OA
ATOM     30  H3  UNL     1      23.992   4.170  21.740  1.00  0.00     0.210 HD
ENDBRANCH  16  29
ENDBRANCH  14  16
ENDBRANCH  12  14
ENDBRANCH  11  12
BRANCH  11  31
HETATM   31  C31 UNL     1      25.757   6.837  23.906  1.00  0.00     0.015 C
BRANCH  31  32
HETATM   32  C32 UNL     1      25.170   5.670  24.512  1.00  0.00     0.175 C
BRANCH  32  33
HETATM   33  O8  UNL     1      23.788   5.991  24.732  1.00  0.00    -0.389 OA
ATOM     34  H8  UNL     1      23.682   6.062  25.674  1.00  0.00     0.210 HD
ENDBRANCH  32  33
BRANCH  32  35
HETATM   35  C33 UNL     1      25.715   5.381  25.907  1.00  0.00     0.080 C
HETATM   36  C34 UNL     1      24.562   5.364  26.888  1.00  0.00     0.048 C
HETATM   37  C35 UNL     1      26.364   4.007  25.959  1.00  0.00     0.048 C
BRANCH  35  38
HETATM   38  O9  UNL     1      26.635   6.339  26.300  1.00  0.00    -0.388 OA
ATOM     39  H9  UNL     1      26.463   7.176  25.885  1.00  0.00     0.210 HD
ENDBRANCH  35  38
ENDBRANCH  32  35
ENDBRANCH  31  32
ENDBRANCH  11  31
ENDBRANCH  10  11
ENDBRANCH   9  10
ENDBRANCH   7   9
ENDBRANCH   6   7
ENDBRANCH   5   6
ENDBRANCH   4   5
ENDBRANCH   1   4
BRANCH   1  40
HETATM   40  C25 UNL     1      22.860  15.120  22.536  1.00  0.00     0.148 C
HETATM   41  C26 UNL     1      22.446  16.360  21.771  1.00  0.00     0.068 C
HETATM   42  C27 UNL     1      21.041  16.253  21.234  1.00  0.00     0.152 C
HETATM   43  C28 UNL     1      19.992  16.603  22.275  1.00  0.00     0.180 C
HETATM   44  C29 UNL     1      20.653  16.582  23.604  1.00  0.00     0.211 A
HETATM   45  O6  UNL     1      20.258  15.824  24.660  1.00  0.00    -0.346 OA
HETATM   46  C30 UNL     1      21.081  15.125  23.847  1.00  0.00     0.292 A
HETATM   47  O7  UNL     1      22.458  15.155  23.870  1.00  0.00    -0.352 OA
BRANCH  42  48
HETATM   48  O4  UNL     1      20.918  17.166  20.187  1.00  0.00    -0.393 OA
ATOM     49  H4  UNL     1      20.008  17.439  20.148  1.00  0.00     0.210 HD
ENDBRANCH  42  48
BRANCH  43  50
HETATM   50  O5  UNL     1      19.050  15.550  22.240  1.00  0.00    -0.390 OA
ATOM     51  H5  UNL     1      19.216  15.082  21.430  1.00  0.00     0.210 HD
ENDBRANCH  43  50
ENDBRANCH   1  40
TORSDOF 22
ENDMDL