MODEL 2
REMARK VINA RESULT: -7.681354493      6.660     12.363
REMARK  17 active torsions:
REMARK  status: ('A' for Active; 'I' for Inactive)
REMARK    1  A    between atoms: C2_2  and  C4_4
REMARK    2  A    between atoms: C4_4  and  C5_5
REMARK    3  A    between atoms: C5_5  and  C6_6
REMARK    4  A    between atoms: C6_6  and  C7_7
REMARK    5  A    between atoms: C7_7  and  C9_9
REMARK    6  A    between atoms: C9_9  and  C10_10
REMARK    7  A    between atoms: C10_10  and  C11_11
REMARK    8  A    between atoms: C12_12  and  C14_14
REMARK    9  A    between atoms: C15_15  and  C16_16
REMARK   10  A    between atoms: C22_23  and  O2_24
REMARK   11  A    between atoms: C24_28  and  O4_29
REMARK   12  A    between atoms: C25_31  and  O5_32
REMARK   13  A    between atoms: S1_35  and  C26_36
REMARK   14  A    between atoms: C26_36  and  C27_37
REMARK   15  A    between atoms: C27_37  and  O7_38
REMARK   16  A    between atoms: C29_41  and  O8_42
REMARK   17  A    between atoms: C30_44  and  O9_45
ROOT
HETATM    1  C16 UNL     1      24.451   7.697  22.683  1.00  0.00     0.092 C
HETATM    2  C17 UNL     1      23.120   7.380  22.142  1.00  0.00     0.136 C
HETATM    3  O1  UNL     1      22.057   7.786  22.529  1.00  0.00    -0.297 OA
HETATM    4  C18 UNL     1      23.324   6.423  20.982  1.00  0.00     0.089 C
HETATM    5  C19 UNL     1      24.428   5.584  21.614  1.00  0.00     0.038 C
HETATM    6  C20 UNL     1      25.034   4.603  20.710  1.00  0.00    -0.052 C
HETATM    7  C21 UNL     1      24.367   4.394  19.591  1.00  0.00     0.017 C
HETATM    8  C22 UNL     1      26.258   3.755  20.739  1.00  0.00     0.187 C
HETATM    9  C23 UNL     1      26.774   3.471  22.128  1.00  0.00     0.235 C
HETATM   10  O3  UNL     1      25.810   3.783  23.051  1.00  0.00    -0.336 OA
HETATM   11  C24 UNL     1      26.064   4.893  23.808  1.00  0.00     0.323 C
HETATM   12  C25 UNL     1      26.396   6.139  23.079  1.00  0.00     0.233 C
HETATM   13  O6  UNL     1      27.642   6.089  22.440  1.00  0.00    -0.284 OA
HETATM   14  S1  UNL     1      28.180   4.518  22.475  1.00  0.00    -0.047 SA
HETATM   15  C31 UNL     1      25.376   6.624  22.093  1.00  0.00     0.040 C
HETATM   16  C32 UNL     1      26.078   7.245  20.920  1.00  0.00     0.023 C
ENDROOT
BRANCH   1  17
HETATM   17  C15 UNL     1      24.894   9.033  22.229  1.00  0.00    -0.013 C
HETATM   18  C14 UNL     1      24.550  10.112  22.869  1.00  0.00     0.003 C
BRANCH  18  19
HETATM   19  C12 UNL     1      24.971  11.460  22.450  1.00  0.00    -0.066 C
HETATM   20  C11 UNL     1      24.623  12.493  23.189  1.00  0.00    -0.020 C
HETATM   21  C13 UNL     1      25.764  11.723  21.228  1.00  0.00     0.048 C
BRANCH  20  22
HETATM   22  C10 UNL     1      24.988  13.878  22.846  1.00  0.00     0.028 C
BRANCH  22  23
HETATM   23  C9  UNL     1      23.753  14.747  22.691  1.00  0.00     0.008 C
BRANCH  23  24
HETATM   24  C7  UNL     1      22.966  14.453  21.452  1.00  0.00    -0.018 C
HETATM   25  C8  UNL     1      23.621  14.990  20.197  1.00  0.00     0.010 C
BRANCH  24  26
HETATM   26  C6  UNL     1      21.523  14.816  21.566  1.00  0.00     0.004 C
BRANCH  26  27
HETATM   27  C5  UNL     1      20.586  13.687  21.315  1.00  0.00     0.005 C
BRANCH  27  28
HETATM   28  C4  UNL     1      21.113  12.361  21.765  1.00  0.00     0.033 C
BRANCH  28  29
HETATM   29  C2  UNL     1      20.552  11.996  23.099  1.00  0.00    -0.093 C
HETATM   30  C1  UNL     1      21.203  11.258  23.973  1.00  0.00     0.014 C
HETATM   31  C3  UNL     1      19.195  12.506  23.436  1.00  0.00     0.042 C
ENDBRANCH  28  29
ENDBRANCH  27  28
ENDBRANCH  26  27
ENDBRANCH  24  26
ENDBRANCH  23  24
ENDBRANCH  22  23
ENDBRANCH  20  22
ENDBRANCH  18  19
ENDBRANCH   1  17
BRANCH  12  32
HETATM   32  O5  UNL     1      26.531   7.161  24.050  1.00  0.00    -0.360 OA
ATOM     33  H5  UNL     1      27.382   7.046  24.456  1.00  0.00     0.213 HD
ENDBRANCH  12  32
BRANCH  11  34
HETATM   34  O4  UNL     1      24.995   5.130  24.662  1.00  0.00    -0.366 OA
ATOM     35  H4  UNL     1      24.780   6.056  24.656  1.00  0.00     0.212 HD
ENDBRANCH  11  34
BRANCH   8  36
HETATM   36  O2  UNL     1      25.889   2.527  20.135  1.00  0.00    -0.388 OA
ATOM     37  H2  UNL     1      26.232   2.562  19.250  1.00  0.00     0.210 HD
ENDBRANCH   8  36
BRANCH  14  38
HETATM   38  C26 UNL     1      29.433   4.193  21.259  1.00  0.00     0.163 C
BRANCH  38  39
HETATM   39  C27 UNL     1      30.437   3.192  21.741  1.00  0.00     0.177 C
HETATM   40  C28 UNL     1      30.790   2.170  20.697  1.00  0.00     0.106 C
HETATM   41  C29 UNL     1      31.851   2.891  19.901  1.00  0.00     0.178 C
HETATM   42  C30 UNL     1      32.188   4.067  20.764  1.00  0.00     0.289 C
HETATM   43  O10 UNL     1      31.633   3.791  21.996  1.00  0.00    -0.322 OA
BRANCH  39  44
HETATM   44  O7  UNL     1      29.901   2.542  22.857  1.00  0.00    -0.364 OA
ATOM     45  H7  UNL     1      29.888   1.609  22.677  1.00  0.00     0.213 HD
ENDBRANCH  39  44
BRANCH  41  46
HETATM   46  O8  UNL     1      31.342   3.284  18.658  1.00  0.00    -0.390 OA
ATOM     47  H8  UNL     1      32.051   3.466  18.054  1.00  0.00     0.210 HD
ENDBRANCH  41  46
BRANCH  42  48
HETATM   48  O9  UNL     1      33.574   4.186  20.961  1.00  0.00    -0.368 OA
ATOM     49  H9  UNL     1      33.878   3.623  21.664  1.00  0.00     0.212 HD
ENDBRANCH  42  48
ENDBRANCH  38  39
ENDBRANCH  14  38
TORSDOF 17
ENDMDL