MODEL 4
REMARK VINA RESULT: -7.441519980      1.234      1.578
REMARK  9 active torsions:
REMARK  status: ('A' for Active; 'I' for Inactive)
REMARK    1  A    between atoms: C1_4  and  N2_5
REMARK    2  A    between atoms: C1_4  and  C2_10
REMARK    3  A    between atoms: N2_5  and  N3_7
REMARK    4  A    between atoms: C2_10  and  O1_11
REMARK    5  A    between atoms: C2_10  and  C7_22
REMARK    6  A    between atoms: O1_11  and  C3_12
REMARK    7  A    between atoms: C3_12  and  C4_13
REMARK    8  A    between atoms: C4_13  and  C5_14
REMARK    9  A    between atoms: N4_15  and  N5_17
ROOT
HETATM    1  C2  UNL     1      32.725 -10.001  26.862  1.00  0.00     0.224 C
ENDROOT
BRANCH   1   2
HETATM    2  C1  UNL     1      33.895  -9.555  26.003  1.00  0.00     0.123 C
HETATM    3  N1  UNL     1      34.086  -8.313  25.736  1.00  0.00    -0.385 N
ATOM      4  H12 UNL     1      34.872  -8.013  25.159  1.00  0.00     0.157 HD
ATOM      5  H11 UNL     1      33.441  -7.630  26.134  1.00  0.00     0.157 HD
BRANCH   2   6
HETATM    6  N2  UNL     1      34.792 -10.505  25.450  1.00  0.00    -0.293 N
ATOM      7  H2  UNL     1      35.513 -10.193  24.800  1.00  0.00     0.187 HD
BRANCH   6   8
HETATM    8  N3  UNL     1      34.707 -11.843  25.774  1.00  0.00    -0.344 N
ATOM      9  H32 UNL     1      34.295 -12.099  26.672  1.00  0.00     0.176 HD
ATOM     10  H31 UNL     1      35.045 -12.565  25.138  1.00  0.00     0.176 HD
ENDBRANCH   6   8
ENDBRANCH   2   6
ENDBRANCH   1   2
BRANCH   1  11
HETATM   11  O1  UNL     1      31.572  -9.945  26.113  1.00  0.00    -0.373 OA
BRANCH  11  12
HETATM   12  C3  UNL     1      30.912 -11.127  25.944  1.00  0.00     0.174 C
BRANCH  12  13
HETATM   13  C4  UNL     1      30.725 -11.546  24.526  1.00  0.00     0.072 C
BRANCH  13  14
HETATM   14  C5  UNL     1      31.700 -10.947  23.580  1.00  0.00     0.082 C
HETATM   15  N4  UNL     1      32.556 -11.723  23.016  1.00  0.00    -0.314 N
ATOM     16  H4  UNL     1      33.241 -11.343  22.363  1.00  0.00     0.185 HD
BRANCH  15  17
HETATM   17  N5  UNL     1      32.540 -13.078  23.304  1.00  0.00    -0.277 N
HETATM   18  C6  UNL     1      33.131 -13.896  22.511  1.00  0.00     0.215 C
HETATM   19  N6  UNL     1      33.786 -13.402  21.359  1.00  0.00    -0.065 NA
HETATM   20  N7  UNL     1      33.108 -15.266  22.813  1.00  0.00    -0.065 NA
ATOM     21  H5  UNL     1      32.064 -13.423  24.137  1.00  0.00     0.189 HD
ENDBRANCH  15  17
ENDBRANCH  13  14
ENDBRANCH  12  13
ENDBRANCH  11  12
ENDBRANCH   1  11
BRANCH   1  22
HETATM   22  C7  UNL     1      32.619  -9.090  28.020  1.00  0.00    -0.000 A
HETATM   23  C8  UNL     1      31.608  -8.129  28.068  1.00  0.00     0.013 A
HETATM   24  C9  UNL     1      31.452  -7.297  29.123  1.00  0.00     0.024 A
HETATM   25  C10 UNL     1      32.297  -7.361  30.214  1.00  0.00     0.035 A
HETATM   26 CL1  UNL     1      32.047  -6.259  31.551  1.00  0.00    -0.084 Cl
HETATM   27  C11 UNL     1      33.311  -8.295  30.212  1.00  0.00     0.048 A
HETATM   28  C12 UNL     1      33.450  -9.145  29.107  1.00  0.00     0.044 A
HETATM   29 CL2  UNL     1      34.785 -10.305  29.166  1.00  0.00    -0.084 Cl
ENDBRANCH   1  22
TORSDOF 9
ENDMDL