MODEL 5
REMARK VINA RESULT: -6.354281233      1.155      1.356
REMARK  9 active torsions:
REMARK  status: ('A' for Active; 'I' for Inactive)
REMARK    1  A    between atoms: C2_2  and  C3_4
REMARK    2  A    between atoms: C3_4  and  N1_5
REMARK    3  A    between atoms: N1_5  and  O1_6
REMARK    4  A    between atoms: C5_9  and  C6_10
REMARK    5  A    between atoms: C6_10  and  C7_11
REMARK    6  A    between atoms: C7_11  and  N2_12
REMARK    7  A    between atoms: C7_11  and  C8_16
REMARK    8  A    between atoms: C10_20  and  N3_21
REMARK       I    between atoms: N3_21  and  C11_23
REMARK    9  A    between atoms: C11_23  and  C12_25
ROOT
HETATM    1  C3  UNL     1      32.385 -11.852  25.371  1.00  0.00     0.094 C
HETATM    2  C4  UNL     1      33.047 -11.822  24.012  1.00  0.00     0.037 C
HETATM    3  C5  UNL     1      34.516 -11.607  24.404  1.00  0.00    -0.008 C
HETATM    4  C9  UNL     1      34.321 -10.449  25.394  1.00  0.00     0.032 C
HETATM    5  C10 UNL     1      33.317 -11.141  26.320  1.00  0.00     0.113 C
ENDROOT
BRANCH   3   6
HETATM    6  C6  UNL     1      35.351 -11.213  23.248  1.00  0.00     0.048 C
BRANCH   6   7
HETATM    7  C7  UNL     1      35.856 -12.388  22.476  1.00  0.00     0.283 C
BRANCH   7   8
HETATM    8  N2  UNL     1      36.925 -11.879  21.586  1.00  0.00    -0.065 N
ATOM      9  H23 UNL     1      36.571 -11.338  20.797  1.00  0.00     0.275 HD
ATOM     10  H22 UNL     1      37.483 -11.137  22.009  1.00  0.00     0.275 HD
ATOM     11  H21 UNL     1      37.478 -12.689  21.304  1.00  0.00     0.275 HD
ENDBRANCH   7   8
BRANCH   7  12
HETATM   12  C8  UNL     1      34.874 -13.083  21.644  1.00  0.00     0.204 C
HETATM   13  O2  UNL     1      34.281 -12.581  20.660  1.00  0.00    -0.646 OA
HETATM   14  O3  UNL     1      34.550 -14.414  21.939  1.00  0.00    -0.646 OA
ENDBRANCH   7  12
ENDBRANCH   6   7
ENDBRANCH   3   6
BRANCH   1  15
HETATM   15  C2  UNL     1      31.022 -11.231  25.314  1.00  0.00     0.107 C
HETATM   16  C1  UNL     1      29.969 -12.177  25.832  1.00  0.00     0.029 C
HETATM   17 CL1  UNL     1      30.595 -10.970  23.583  1.00  0.00    -0.123 Cl
ENDBRANCH   1  15
BRANCH   1  18
HETATM   18  N1  UNL     1      32.289 -13.213  25.908  1.00  0.00    -0.090 NA
BRANCH  18  19
HETATM   19  O1  UNL     1      32.347 -14.167  24.988  1.00  0.00    -0.295 OA
ATOM     20  H1  UNL     1      33.211 -14.300  24.617  1.00  0.00     0.238 HD
ENDBRANCH  18  19
ENDBRANCH   1  18
BRANCH   5  21
HETATM   21  N3  UNL     1      32.756 -10.208  27.207  1.00  0.00    -0.353 N
HETATM   22  C11 UNL     1      33.387  -9.957  28.455  1.00  0.00     0.231 C
HETATM   23  O4  UNL     1      34.451 -10.571  28.769  1.00  0.00    -0.272 OA
ATOM     24  H3  UNL     1      31.900  -9.714  26.956  1.00  0.00     0.163 HD
BRANCH  22  25
HETATM   25  C12 UNL     1      32.831  -8.975  29.436  1.00  0.00     0.217 C
HETATM   26 CL2  UNL     1      31.597  -7.977  28.689  1.00  0.00    -0.121 Cl
ENDBRANCH  22  25
ENDBRANCH   5  21
TORSDOF 9
ENDMDL