MODEL 5
REMARK VINA RESULT: -5.349476254      2.302      3.442
REMARK  12 active torsions:
REMARK  status: ('A' for Active; 'I' for Inactive)
REMARK    1  A    between atoms: N1_1  and  C1_5
REMARK    2  A    between atoms: C1_5  and  C2_6
REMARK    3  A    between atoms: C2_6  and  C3_7
REMARK    4  A    between atoms: C2_6  and  N2_10
REMARK    5  A    between atoms: C3_7  and  C4_8
REMARK    6  A    between atoms: N2_10  and  C5_12
REMARK    7  A    between atoms: C5_12  and  N3_14
REMARK    8  A    between atoms: N3_14  and  N4_16
REMARK    9  A    between atoms: N4_16  and  C6_18
REMARK   10  A    between atoms: C6_18  and  N5_20
REMARK   11  A    between atoms: N5_20  and  C7_22
REMARK   12  A    between atoms: C7_22  and  C8_23
ROOT
HETATM    1  C5  UNL     1      31.625 -10.610  25.102  1.00  0.00     0.186 C
HETATM    2  S2  UNL     1      30.471 -11.741  25.103  1.00  0.00    -0.040 SA
ENDROOT
BRANCH   1   3
HETATM    3  N2  UNL     1      32.472 -10.434  23.997  1.00  0.00    -0.360 N
ATOM      4  H2  UNL     1      32.189  -9.716  23.329  1.00  0.00     0.162 HD
BRANCH   3   5
HETATM    5  C2  UNL     1      33.688 -11.135  23.685  1.00  0.00     0.110 C
BRANCH   5   6
HETATM    6  C1  UNL     1      33.422 -12.341  22.866  1.00  0.00     0.254 C
BRANCH   6   7
HETATM    7  N1  UNL     1      33.986 -12.347  21.544  1.00  0.00    -0.077 N
ATOM      8  H13 UNL     1      33.560 -13.090  20.990  1.00  0.00     0.274 HD
ATOM      9  H12 UNL     1      33.667 -11.527  21.029  1.00  0.00     0.274 HD
ATOM     10  H11 UNL     1      35.002 -12.416  21.489  1.00  0.00     0.274 HD
ENDBRANCH   6   7
ENDBRANCH   5   6
BRANCH   5  11
HETATM   11  C3  UNL     1      34.522 -11.304  24.907  1.00  0.00     0.038 C
BRANCH  11  12
HETATM   12  C4  UNL     1      35.785 -10.520  24.971  1.00  0.00     0.088 C
HETATM   13  S1  UNL     1      35.569  -8.996  25.968  1.00  0.00    -0.098 SA
ENDBRANCH  11  12
ENDBRANCH   5  11
ENDBRANCH   3   5
ENDBRANCH   1   3
BRANCH   1  14
HETATM   14  N3  UNL     1      31.762  -9.805  26.256  1.00  0.00    -0.274 N
ATOM     15  H3  UNL     1      31.862  -8.798  26.125  1.00  0.00     0.189 HD
BRANCH  14  16
HETATM   16  N4  UNL     1      31.770 -10.295  27.565  1.00  0.00    -0.274 N
ATOM     17  H4  UNL     1      31.411 -11.234  27.739  1.00  0.00     0.189 HD
BRANCH  16  18
HETATM   18  C6  UNL     1      32.252  -9.546  28.644  1.00  0.00     0.186 C
HETATM   19  S3  UNL     1      33.807  -9.876  29.133  1.00  0.00    -0.040 SA
BRANCH  18  20
HETATM   20  N5  UNL     1      31.556  -8.548  29.352  1.00  0.00    -0.365 N
ATOM     21  H5  UNL     1      30.550  -8.680  29.458  1.00  0.00     0.161 HD
BRANCH  20  22
HETATM   22  C7  UNL     1      32.114  -7.365  29.941  1.00  0.00     0.137 C
BRANCH  22  23
HETATM   23  C8  UNL     1      31.272  -6.130  29.806  1.00  0.00     0.134 C
HETATM   24 CL1  UNL     1      29.781  -6.573  28.914  1.00  0.00    -0.129 Cl
ENDBRANCH  22  23
ENDBRANCH  20  22
ENDBRANCH  18  20
ENDBRANCH  16  18
ENDBRANCH  14  16
ENDBRANCH   1  14
TORSDOF 12
ENDMDL