MODEL 5
REMARK VINA RESULT: -7.701358931      1.803      2.170
REMARK  9 active torsions:
REMARK  status: ('A' for Active; 'I' for Inactive)
REMARK    1  A    between atoms: C1_4  and  C2_5
REMARK    2  A    between atoms: C1_4  and  C6_23
REMARK       I    between atoms: C2_5  and  N2_7
REMARK    3  A    between atoms: N2_7  and  N3_9
REMARK    4  A    between atoms: N3_9  and  C3_10
REMARK    5  A    between atoms: C3_10  and  C4_11
REMARK    6  A    between atoms: C4_11  and  C5_13
REMARK    7  A    between atoms: C5_13  and  N5_18
REMARK    8  A    between atoms: N4_14  and  O2_16
REMARK    9  A    between atoms: N5_18  and  N6_20
ROOT
HETATM    1  C2  UNL     1      34.026  -9.646  27.169  1.00  0.00     0.283 C
HETATM    2  O1  UNL     1      34.256  -8.673  26.434  1.00  0.00    -0.265 OA
HETATM    3  N2  UNL     1      33.942 -10.914  26.481  1.00  0.00    -0.269 N
ATOM      4  H2  UNL     1      33.758 -11.785  26.980  1.00  0.00     0.185 HD
ENDROOT
BRANCH   3   5
HETATM    5  N3  UNL     1      34.129 -10.885  25.087  1.00  0.00    -0.137 NA
BRANCH   5   6
HETATM    6  C3  UNL     1      33.396 -12.008  24.542  1.00  0.00     0.163 C
BRANCH   6   7
HETATM    7  C4  UNL     1      32.083 -11.626  23.938  1.00  0.00     0.169 C
HETATM    8 CL1  UNL     1      31.820  -9.883  24.047  1.00  0.00    -0.115 Cl
BRANCH   7   9
HETATM    9  C5  UNL     1      31.005 -12.379  24.629  1.00  0.00     0.135 C
HETATM   10  N4  UNL     1      30.319 -11.772  25.506  1.00  0.00    -0.254 N
ATOM     11  H4  UNL     1      30.561 -10.795  25.674  1.00  0.00     0.195 HD
BRANCH  10  12
HETATM   12  O2  UNL     1      29.302 -12.274  26.243  1.00  0.00    -0.288 OA
ATOM     13  H2  UNL     1      29.028 -11.998  27.110  1.00  0.00     0.244 HD
ENDBRANCH  10  12
BRANCH   9  14
HETATM   14  N5  UNL     1      30.779 -13.741  24.293  1.00  0.00    -0.293 N
ATOM     15  H5  UNL     1      29.924 -13.961  23.780  1.00  0.00     0.187 HD
BRANCH  14  16
HETATM   16  N6  UNL     1      31.620 -14.788  24.602  1.00  0.00    -0.344 N
ATOM     17  H62 UNL     1      32.441 -14.557  25.162  1.00  0.00     0.176 HD
ATOM     18  H61 UNL     1      31.483 -15.758  24.316  1.00  0.00     0.176 HD
ENDBRANCH  14  16
ENDBRANCH   9  14
ENDBRANCH   7   9
ENDBRANCH   6   7
ENDBRANCH   5   6
ENDBRANCH   3   5
BRANCH   1  19
HETATM   19  C1  UNL     1      33.853  -9.549  28.584  1.00  0.00     0.106 C
HETATM   20  N1  UNL     1      34.380 -10.447  29.393  1.00  0.00    -0.394 N
ATOM     21  H12 UNL     1      34.901 -11.184  28.918  1.00  0.00     0.156 HD
ATOM     22  H11 UNL     1      34.257 -10.378  30.403  1.00  0.00     0.156 HD
BRANCH  19  23
HETATM   23  C6  UNL     1      33.113  -8.503  29.258  1.00  0.00    -0.003 A
HETATM   24  C7  UNL     1      33.622  -7.919  30.419  1.00  0.00     0.014 A
HETATM   25  C8  UNL     1      32.944  -6.930  31.073  1.00  0.00     0.003 A
HETATM   26  C9  UNL     1      31.744  -6.479  30.611  1.00  0.00     0.024 A
HETATM   27  C10 UNL     1      31.204  -7.021  29.477  1.00  0.00     0.035 A
HETATM   28 CL2  UNL     1      29.659  -6.459  28.858  1.00  0.00    -0.084 Cl
HETATM   29  C11 UNL     1      31.905  -8.034  28.812  1.00  0.00     0.037 A
ENDBRANCH  19  23
ENDBRANCH   1  19
TORSDOF 9
ENDMDL