MODEL 2
REMARK VINA RESULT: -6.240755552      2.244      4.244
REMARK  8 active torsions:
REMARK  status: ('A' for Active; 'I' for Inactive)
REMARK    1  A    between atoms: N1_3  and  C3_5
REMARK    2  A    between atoms: C3_5  and  C4_9
REMARK    3  A    between atoms: C6_11  and  N3_12
REMARK    4  A    between atoms: C6_11  and  C7_16
REMARK    5  A    between atoms: C7_16  and  C8_18
REMARK    6  A    between atoms: C10_22  and  C12_25
REMARK    7  A    between atoms: C12_25  and  C13_26
REMARK    8  A    between atoms: C13_26  and  C14_27
ROOT
HETATM    1  C1  UNL     1      37.729 -12.751  21.485  1.00  0.00     0.037 C
HETATM    2  C2  UNL     1      37.081 -12.093  22.259  1.00  0.00     0.000 C
HETATM    3  N1  UNL     1      36.331 -11.326  23.191  1.00  0.00    -0.305 N
ATOM      4  H1  UNL     1      35.939 -10.434  22.891  1.00  0.00     0.177 HD
ENDROOT
BRANCH   3   5
HETATM    5  C3  UNL     1      36.108 -11.754  24.524  1.00  0.00     0.088 C
HETATM    6  N2  UNL     1      36.967 -12.584  25.005  1.00  0.00    -0.388 N
ATOM      7  H22 UNL     1      37.760 -12.909  24.452  1.00  0.00     0.157 HD
ATOM      8  H21 UNL     1      36.807 -12.892  25.964  1.00  0.00     0.157 HD
BRANCH   5   9
HETATM    9  C4  UNL     1      34.993 -11.296  25.301  1.00  0.00     0.078 C
HETATM   10  C5  UNL     1      35.198  -9.879  25.778  1.00  0.00     0.056 C
HETATM   11  C6  UNL     1      33.804  -9.418  26.186  1.00  0.00     0.166 C
HETATM   12  C9  UNL     1      32.950 -10.071  25.161  1.00  0.00     0.067 C
HETATM   13  C10 UNL     1      33.619 -11.323  24.657  1.00  0.00     0.062 C
HETATM   14  C11 UNL     1      32.899 -12.457  25.234  1.00  0.00     0.070 C
HETATM   15  N4  UNL     1      32.348 -13.369  25.746  1.00  0.00    -0.196 NA
BRANCH  11  16
HETATM   16  N3  UNL     1      33.803  -7.968  26.058  1.00  0.00    -0.067 N
ATOM     17  H33 UNL     1      34.679  -7.534  26.348  1.00  0.00     0.275 HD
ATOM     18  H32 UNL     1      33.818  -7.646  25.090  1.00  0.00     0.275 HD
ATOM     19  H31 UNL     1      32.992  -7.637  26.583  1.00  0.00     0.275 HD
ENDBRANCH  11  16
BRANCH  11  20
HETATM   20  C7  UNL     1      33.614  -9.856  27.596  1.00  0.00     0.306 C
HETATM   21  F1  UNL     1      34.843  -9.653  28.238  1.00  0.00    -0.235 F
BRANCH  20  22
HETATM   22  C8  UNL     1      32.572  -9.163  28.352  1.00  0.00     0.211 C
HETATM   23  O1  UNL     1      32.721  -9.062  29.614  1.00  0.00    -0.646 OA
HETATM   24  O2  UNL     1      31.420  -8.600  27.819  1.00  0.00    -0.646 OA
ENDBRANCH  20  22
ENDBRANCH  11  20
BRANCH  13  25
HETATM   25  C12 UNL     1      33.639 -11.326  23.204  1.00  0.00     0.032 C
BRANCH  25  26
HETATM   26  C13 UNL     1      33.065 -12.514  22.532  1.00  0.00     0.074 C
BRANCH  26  27
HETATM   27  C14 UNL     1      33.893 -13.355  21.682  1.00  0.00     0.086 C
HETATM   28  N5  UNL     1      34.339 -14.534  21.999  1.00  0.00    -0.391 N
ATOM     29  H52 UNL     1      34.102 -14.868  22.933  1.00  0.00     0.157 HD
ATOM     30  H51 UNL     1      34.919 -15.124  21.402  1.00  0.00     0.157 HD
HETATM   31  N6  UNL     1      34.226 -12.885  20.366  1.00  0.00    -0.088 NA
ENDBRANCH  26  27
ENDBRANCH  25  26
ENDBRANCH  13  25
ENDBRANCH   5   9
ENDBRANCH   3   5
TORSDOF 8
ENDMDL