MODEL 3
REMARK VINA RESULT: -7.109728244      3.931      5.222
REMARK  8 active torsions:
REMARK  status: ('A' for Active; 'I' for Inactive)
REMARK       I    between atoms: C1_4  and  N2_5
REMARK       I    between atoms: C1_4  and  N5_18
REMARK    1  A    between atoms: N2_5  and  N3_7
REMARK    2  A    between atoms: N3_7  and  C2_9
REMARK    3  A    between atoms: C5_12  and  N4_13
REMARK    4  A    between atoms: N5_18  and  C8_20
REMARK    5  A    between atoms: C8_20  and  C9_21
REMARK    6  A    between atoms: C8_20  and  C10_25
REMARK    7  A    between atoms: C9_21  and  O3_22
REMARK    8  A    between atoms: C10_25  and  C11_27
ROOT
HETATM    1  N1  UNL     1      33.815 -10.196  24.553  1.00  0.00    -0.234 N
ATOM      2  H11 UNL     1      33.784 -10.123  23.536  1.00  0.00     0.174 HD
ATOM      3  H12 UNL     1      34.095  -9.378  25.093  1.00  0.00     0.174 HD
HETATM    4  C1  UNL     1      33.477 -11.326  25.125  1.00  0.00     0.686 C
HETATM    5  N2  UNL     1      33.521 -11.428  26.542  1.00  0.00    -0.132 N
ATOM      6  H2  UNL     1      32.937 -12.104  27.035  1.00  0.00     0.205 HD
HETATM    7  N5  UNL     1      33.088 -12.460  24.377  1.00  0.00    -0.214 N
ATOM      8  H5  UNL     1      33.631 -12.762  23.568  1.00  0.00     0.178 HD
ENDROOT
BRANCH   5   9
HETATM    9  N3  UNL     1      34.372 -10.591  27.236  1.00  0.00    -0.287 N
ATOM     10  H3  UNL     1      35.380 -10.662  27.092  1.00  0.00     0.187 HD
BRANCH   9  11
HETATM   11  C2  UNL     1      33.855  -9.633  28.148  1.00  0.00     0.048 A
HETATM   12  C3  UNL     1      34.476  -9.384  29.357  1.00  0.00     0.033 A
HETATM   13  C4  UNL     1      33.999  -8.463  30.259  1.00  0.00     0.038 A
HETATM   14  C5  UNL     1      32.859  -7.738  29.983  1.00  0.00     0.103 A
HETATM   15  C6  UNL     1      32.219  -7.967  28.783  1.00  0.00     0.038 A
HETATM   16  C7  UNL     1      32.715  -8.904  27.879  1.00  0.00     0.033 A
BRANCH  14  17
HETATM   17  N4  UNL     1      32.354  -6.781  30.908  1.00  0.00    -0.116 N
HETATM   18  O1  UNL     1      31.139  -6.470  30.856  1.00  0.00    -0.532 OA
HETATM   19  O2  UNL     1      33.202  -6.232  31.820  1.00  0.00    -0.532 OA
ENDBRANCH  14  17
ENDBRANCH   9  11
ENDBRANCH   5   9
BRANCH   7  20
HETATM   20  C8  UNL     1      31.886 -13.195  24.789  1.00  0.00     0.186 C
BRANCH  20  21
HETATM   21  C9  UNL     1      31.925 -14.474  23.917  1.00  0.00     0.329 C
HETATM   22  F1  UNL     1      31.743 -15.523  24.821  1.00  0.00    -0.218 F
BRANCH  21  23
HETATM   23  O3  UNL     1      30.965 -14.547  22.970  1.00  0.00    -0.365 OA
ATOM     24  H3  UNL     1      30.665 -15.425  22.772  1.00  0.00     0.213 HD
ENDBRANCH  21  23
ENDBRANCH  20  21
BRANCH  20  25
HETATM   25  C10 UNL     1      30.670 -12.388  24.403  1.00  0.00     0.199 C
HETATM   26 CL1  UNL     1      31.229 -10.982  23.431  1.00  0.00    -0.113 Cl
BRANCH  25  27
HETATM   27  C11 UNL     1      30.087 -11.743  25.633  1.00  0.00     0.251 C
HETATM   28  N6  UNL     1      29.057 -12.405  26.357  1.00  0.00    -0.061 NA
HETATM   29  O4  UNL     1      30.530 -10.630  25.979  1.00  0.00    -0.275 OA
ENDBRANCH  25  27
ENDBRANCH  20  25
ENDBRANCH   7  20
TORSDOF 8
ENDMDL