MODEL 5
REMARK VINA RESULT: -7.173652916      3.094      4.143
REMARK  7 active torsions:
REMARK  status: ('A' for Active; 'I' for Inactive)
REMARK    1  A    between atoms: N1_2  and  C2_4
REMARK    2  A    between atoms: C2_4  and  C3_5
REMARK    3  A    between atoms: C2_4  and  C4_7
REMARK    4  A    between atoms: C4_7  and  N2_8
REMARK    5  A    between atoms: C4_7  and  C12_23
REMARK       I    between atoms: N2_8  and  C5_10
REMARK       I    between atoms: C5_10  and  N4_14
REMARK    6  A    between atoms: N4_14  and  C6_16
REMARK    7  A    between atoms: C14_28  and  O1_29
ROOT
HETATM    1  C4  UNL     1      36.180 -14.287  21.332  1.00  0.00     0.179 C
ENDROOT
BRANCH   1   2
HETATM    2  C2  UNL     1      37.577 -14.607  21.790  1.00  0.00     0.117 C
BRANCH   2   3
HETATM    3  N1  UNL     1      37.630 -15.759  22.631  1.00  0.00    -0.418 N
HETATM    4  C1  UNL     1      38.512 -15.715  23.759  1.00  0.00     0.140 C
ATOM      5  H1  UNL     1      37.062 -16.584  22.436  1.00  0.00     0.153 HD
ENDBRANCH   2   3
BRANCH   2   6
HETATM    6  C3  UNL     1      38.614 -14.507  20.747  1.00  0.00     0.141 C
HETATM    7 CL1  UNL     1      39.483 -12.972  20.841  1.00  0.00    -0.128 Cl
ENDBRANCH   2   6
ENDBRANCH   1   2
BRANCH   1   8
HETATM    8  N2  UNL     1      35.547 -13.495  22.361  1.00  0.00    -0.215 N
HETATM    9  C5  UNL     1      36.086 -12.226  22.719  1.00  0.00     0.672 C
HETATM   10  N3  UNL     1      36.454 -11.387  21.815  1.00  0.00    -0.235 N
HETATM   11  N4  UNL     1      36.229 -11.861  24.072  1.00  0.00    -0.192 N
ATOM     12  H32 UNL     1      36.350 -11.651  20.835  1.00  0.00     0.174 HD
ATOM     13  H31 UNL     1      36.839 -10.478  22.071  1.00  0.00     0.174 HD
ATOM     14  H4  UNL     1      36.919 -12.356  24.637  1.00  0.00     0.184 HD
ATOM     15  H2  UNL     1      34.713 -13.846  22.831  1.00  0.00     0.178 HD
BRANCH  11  16
HETATM   16  C6  UNL     1      35.460 -10.836  24.689  1.00  0.00     0.049 A
HETATM   17  C7  UNL     1      36.078  -9.827  25.412  1.00  0.00     0.033 A
HETATM   18  C8  UNL     1      35.358  -8.825  26.018  1.00  0.00     0.044 A
HETATM   19  C9  UNL     1      33.980  -8.864  25.875  1.00  0.00     0.116 A
HETATM   20  F1  UNL     1      33.212  -7.899  26.452  1.00  0.00    -0.206 F
HETATM   21  C10 UNL     1      33.346  -9.852  25.165  1.00  0.00     0.044 A
HETATM   22  C11 UNL     1      34.090 -10.860  24.558  1.00  0.00     0.033 A
ENDBRANCH  11  16
ENDBRANCH   1   8
BRANCH   1  23
HETATM   23  C12 UNL     1      35.324 -15.419  20.959  1.00  0.00     0.348 C
HETATM   24  N5  UNL     1      35.873 -16.253  19.896  1.00  0.00    -0.042 N
HETATM   25  C13 UNL     1      34.968 -17.364  19.904  1.00  0.00     0.295 C
ATOM     26  H52 UNL     1      35.984 -15.790  18.994  1.00  0.00     0.280 HD
ATOM     27  H51 UNL     1      36.859 -16.495  19.998  1.00  0.00     0.280 HD
HETATM   28  C14 UNL     1      34.332 -17.318  21.282  1.00  0.00     0.285 C
HETATM   29  O2  UNL     1      34.909 -16.249  21.961  1.00  0.00    -0.325 OA
BRANCH  28  30
HETATM   30  O1  UNL     1      32.964 -17.152  21.108  1.00  0.00    -0.369 OA
ATOM     31  H1  UNL     1      32.742 -16.275  21.397  1.00  0.00     0.212 HD
ENDBRANCH  28  30
ENDBRANCH   1  23
TORSDOF 7
ENDMDL