MODEL 2
REMARK VINA RESULT: -6.766473412      1.189      1.227
REMARK  9 active torsions:
REMARK  status: ('A' for Active; 'I' for Inactive)
REMARK    1  A    between atoms: C1_4  and  C2_5
REMARK    2  A    between atoms: C1_4  and  N2_8
REMARK    3  A    between atoms: C2_5  and  C3_6
REMARK    4  A    between atoms: N2_8  and  N3_10
REMARK    5  A    between atoms: C6_13  and  N4_14
REMARK    6  A    between atoms: C7_18  and  N5_19
REMARK       I    between atoms: N5_19  and  C8_21
REMARK       I    between atoms: C8_21  and  N6_23
REMARK    7  A    between atoms: N6_23  and  C9_25
REMARK    8  A    between atoms: C9_25  and  C10_26
REMARK    9  A    between atoms: C11_28  and  O2_29
ROOT
HETATM    1  N3  UNL     1      32.972 -12.094  24.059  1.00  0.00    -0.199 NA
HETATM    2  C4  UNL     1      32.507 -13.353  24.599  1.00  0.00     0.119 C
HETATM    3  C5  UNL     1      31.004 -13.316  24.708  1.00  0.00     0.051 C
HETATM    4  C6  UNL     1      30.498 -12.063  25.358  1.00  0.00     0.211 C
HETATM    5  C7  UNL     1      31.679 -11.343  25.981  1.00  0.00     0.161 C
HETATM    6  C11 UNL     1      32.585 -10.957  24.830  1.00  0.00     0.236 C
ENDROOT
BRANCH   1   7
HETATM    7  N2  UNL     1      34.316 -12.118  23.794  1.00  0.00    -0.306 N
ATOM      8  H2  UNL     1      34.985 -12.162  24.563  1.00  0.00     0.182 HD
BRANCH   7   9
HETATM    9  C1  UNL     1      34.779 -12.081  22.457  1.00  0.00     0.086 C
HETATM   10  N1  UNL     1      33.975 -12.384  21.498  1.00  0.00    -0.388 N
ATOM     11  H12 UNL     1      34.309 -12.358  20.535  1.00  0.00     0.157 HD
ATOM     12  H11 UNL     1      33.004 -12.654  21.661  1.00  0.00     0.157 HD
BRANCH   9  13
HETATM   13  C2  UNL     1      36.190 -11.690  22.222  1.00  0.00     0.092 C
BRANCH  13  14
HETATM   14  C3  UNL     1      36.564 -11.952  20.789  1.00  0.00     0.122 C
HETATM   15 CL1  UNL     1      36.412 -10.459  19.832  1.00  0.00    -0.130 Cl
ENDBRANCH  13  14
ENDBRANCH   9  13
ENDBRANCH   7   9
ENDBRANCH   1   7
BRANCH   6  16
HETATM   16  O2  UNL     1      31.810 -10.130  23.989  1.00  0.00    -0.377 OA
ATOM     17  H2  UNL     1      31.399 -10.694  23.344  1.00  0.00     0.211 HD
ENDBRANCH   6  16
BRANCH   5  18
HETATM   18  N5  UNL     1      31.282 -10.191  26.736  1.00  0.00    -0.333 N
HETATM   19  C8  UNL     1      32.050  -9.635  27.795  1.00  0.00     0.316 C
HETATM   20  O1  UNL     1      33.138 -10.205  28.067  1.00  0.00    -0.247 OA
HETATM   21  N6  UNL     1      31.656  -8.507  28.531  1.00  0.00    -0.342 N
ATOM     22  H6  UNL     1      30.767  -8.076  28.276  1.00  0.00     0.164 HD
ATOM     23  H5  UNL     1      30.396  -9.744  26.499  1.00  0.00     0.164 HD
BRANCH  21  24
HETATM   24  C9  UNL     1      32.382  -7.908  29.599  1.00  0.00     0.139 C
BRANCH  24  25
HETATM   25  C10 UNL     1      31.649  -6.788  30.284  1.00  0.00     0.134 C
HETATM   26 CL2  UNL     1      30.172  -6.457  29.347  1.00  0.00    -0.129 Cl
ENDBRANCH  24  25
ENDBRANCH  21  24
ENDBRANCH   5  18
BRANCH   4  27
HETATM   27  N4  UNL     1      29.476 -12.368  26.332  1.00  0.00    -0.073 N
ATOM     28  H43 UNL     1      29.166 -11.532  26.828  1.00  0.00     0.274 HD
ATOM     29  H42 UNL     1      28.593 -12.619  25.887  1.00  0.00     0.274 HD
ATOM     30  H41 UNL     1      29.794 -13.093  26.975  1.00  0.00     0.274 HD
ENDBRANCH   4  27
TORSDOF 9
ENDMDL