MODEL 2
REMARK VINA RESULT: -8.295415582      2.576      3.037
REMARK  8 active torsions:
REMARK  status: ('A' for Active; 'I' for Inactive)
REMARK    1  A    between atoms: C2_2  and  N1_3
REMARK    2  A    between atoms: C2_2  and  C5_13
REMARK       I    between atoms: N1_3  and  C3_5
REMARK       I    between atoms: C3_5  and  N3_9
REMARK    3  A    between atoms: C5_13  and  N5_14
REMARK    4  A    between atoms: C5_13  and  C11_24
REMARK       I    between atoms: N5_14  and  C6_16
REMARK    5  A    between atoms: C6_16  and  C7_18
REMARK    6  A    between atoms: C11_24  and  C12_26
REMARK    7  A    between atoms: C12_26  and  O2_27
REMARK    8  A    between atoms: C12_26  and  O3_29
ROOT
HETATM    1  N1  UNL     1      34.035 -11.716  22.993  1.00  0.00    -0.218 N
ATOM      2  H1  UNL     1      34.790 -11.129  23.349  1.00  0.00     0.178 HD
HETATM    3  C3  UNL     1      34.293 -12.755  22.056  1.00  0.00     0.698 C
HETATM    4  N2  UNL     1      34.870 -12.462  20.940  1.00  0.00    -0.131 N
ATOM      5  H2  UNL     1      35.047 -13.221  20.281  1.00  0.00     0.199 HD
HETATM    6 CL1  UNL     1      35.361 -10.873  20.491  1.00  0.00     0.026 Cl
HETATM    7  N3  UNL     1      33.949 -14.107  22.283  1.00  0.00    -0.125 N
ATOM      8  H3  UNL     1      33.952 -14.443  23.247  1.00  0.00     0.197 HD
HETATM    9  C4  UNL     1      33.605 -15.014  21.278  1.00  0.00     0.196 C
HETATM   10  N4  UNL     1      33.340 -15.772  20.445  1.00  0.00    -0.171 NA
ENDROOT
BRANCH   1  11
HETATM   11  C2  UNL     1      32.675 -11.521  23.422  1.00  0.00     0.121 C
HETATM   12  C1  UNL     1      32.480 -10.077  23.848  1.00  0.00     0.035 C
BRANCH  11  13
HETATM   13  C5  UNL     1      32.328 -12.369  24.628  1.00  0.00     0.146 C
BRANCH  13  14
HETATM   14  N5  UNL     1      32.366 -11.468  25.775  1.00  0.00    -0.346 N
HETATM   15  C6  UNL     1      33.551 -11.210  26.501  1.00  0.00     0.268 C
HETATM   16  O1  UNL     1      34.608 -11.779  26.144  1.00  0.00    -0.266 OA
ATOM     17  H5  UNL     1      31.504 -11.006  26.065  1.00  0.00     0.163 HD
BRANCH  15  18
HETATM   18  C7  UNL     1      33.517 -10.298  27.636  1.00  0.00     0.100 A
HETATM   19  C8  UNL     1      34.627  -9.710  28.190  1.00  0.00     0.036 A
HETATM   20  C9  UNL     1      34.164  -8.920  29.243  1.00  0.00     0.019 A
HETATM   21  C10 UNL     1      32.800  -9.042  29.308  1.00  0.00     0.088 A
HETATM   22  N6  UNL     1      32.448  -9.886  28.318  1.00  0.00    -0.361 N
ATOM     23  H6  UNL     1      31.490 -10.172  28.116  1.00  0.00     0.165 HD
ENDBRANCH  15  18
ENDBRANCH  13  14
BRANCH  13  24
HETATM   24  C11 UNL     1      30.915 -12.904  24.549  1.00  0.00     0.249 C
HETATM   25  F1  UNL     1      30.226 -12.676  25.722  1.00  0.00    -0.242 F
BRANCH  24  26
HETATM   26  C12 UNL     1      30.981 -14.395  24.333  1.00  0.00     0.289 C
BRANCH  26  27
HETATM   27  O2  UNL     1      30.940 -14.727  22.980  1.00  0.00    -0.368 OA
ATOM     28  H2  UNL     1      31.195 -15.630  22.828  1.00  0.00     0.212 HD
ENDBRANCH  26  27
BRANCH  26  29
HETATM   29  O3  UNL     1      32.183 -14.883  24.841  1.00  0.00    -0.368 OA
ATOM     30  H3  UNL     1      32.063 -15.132  25.750  1.00  0.00     0.212 HD
ENDBRANCH  26  29
ENDBRANCH  24  26
ENDBRANCH  13  24
ENDBRANCH  11  13
ENDBRANCH   1  11
TORSDOF 8
ENDMDL