MODEL 2
REMARK VINA RESULT: -8.372105938      2.776      5.103
REMARK  7 active torsions:
REMARK  status: ('A' for Active; 'I' for Inactive)
REMARK    1  A    between atoms: C2_2  and  C3_3
REMARK    2  A    between atoms: C2_2  and  C25_37
REMARK    3  A    between atoms: C7_7  and  N1_8
REMARK    4  A    between atoms: N3_13  and  C9_14
REMARK    5  A    between atoms: C16_23  and  C17_24
REMARK    6  A    between atoms: C20_29  and  C21_30
REMARK    7  A    between atoms: C21_30  and  C22_31
ROOT
HETATM    1  N1  UNL     1       6.333  13.604  28.370  1.00  0.00    -0.341 N
ATOM      2  H1  UNL     1       6.828  13.040  29.059  1.00  0.00     0.167 HD
HETATM    3  C8  UNL     1       5.680  14.613  28.801  1.00  0.00     0.136 A
HETATM    4  N2  UNL     1       4.944  15.522  28.139  1.00  0.00    -0.280 N
ATOM      5  H2  UNL     1       4.798  15.531  27.130  1.00  0.00     0.189 HD
HETATM    6  N3  UNL     1       4.436  16.404  28.982  1.00  0.00    -0.269 N
HETATM    7  C15 UNL     1       4.817  16.115  30.246  1.00  0.00     0.140 A
HETATM    8  N4  UNL     1       4.581  16.685  31.443  1.00  0.00    -0.330 N
ATOM      9  H4  UNL     1       4.001  17.520  31.524  1.00  0.00     0.168 HD
HETATM   10  C16 UNL     1       5.135  16.115  32.529  1.00  0.00     0.086 A
HETATM   11  N5  UNL     1       5.903  15.015  32.448  1.00  0.00    -0.348 N
ATOM     12  H5  UNL     1       6.305  14.614  33.295  1.00  0.00     0.167 HD
HETATM   13  C20 UNL     1       6.143  14.441  31.257  1.00  0.00     0.036 A
HETATM   14  C23 UNL     1       5.609  14.973  30.130  1.00  0.00     0.078 A
ENDROOT
BRANCH   1  15
HETATM   15  C7  UNL     1       6.429  13.205  27.023  1.00  0.00     0.034 A
HETATM   16  C6  UNL     1       6.865  14.082  26.055  1.00  0.00     0.029 A
HETATM   17  C5  UNL     1       6.950  13.670  24.746  1.00  0.00     0.003 A
HETATM   18  C4  UNL     1       6.597  12.366  24.390  1.00  0.00     0.012 A
HETATM   19  C3  UNL     1       6.158  11.463  25.328  1.00  0.00    -0.027 A
HETATM   20  C24 UNL     1       6.088  11.920  26.634  1.00  0.00     0.041 A
BRANCH  19  21
HETATM   21  C2  UNL     1       5.790  10.109  24.972  1.00  0.00    -0.034 C
HETATM   22  C1  UNL     1       6.557   9.087  25.257  1.00  0.00     0.022 C
BRANCH  21  23
HETATM   23  C25 UNL     1       4.516   9.805  24.260  1.00  0.00     0.057 C
HETATM   24  C26 UNL     1       3.369  10.678  24.806  1.00  0.00     0.037 C
HETATM   25  C27 UNL     1       4.056   8.384  24.507  1.00  0.00     0.037 C
HETATM   26 CL1  UNL     1       4.590  10.213  22.527  1.00  0.00    -0.115 Cl
ENDBRANCH  21  23
ENDBRANCH  19  21
ENDBRANCH   1  15
BRANCH   6  27
HETATM   27  C9  UNL     1       3.587  17.533  28.614  1.00  0.00     0.110 C
HETATM   28  C10 UNL     1       3.111  17.316  27.215  1.00  0.00     0.027 C
HETATM   29  C11 UNL     1       3.328  18.562  26.368  1.00  0.00     0.002 C
HETATM   30  C12 UNL     1       2.769  19.733  27.171  1.00  0.00     0.000 C
HETATM   31  C13 UNL     1       3.711  20.016  28.315  1.00  0.00     0.002 C
HETATM   32  C14 UNL     1       4.444  18.774  28.762  1.00  0.00     0.027 C
ENDBRANCH   6  27
BRANCH  13  33
HETATM   33  C21 UNL     1       6.988  13.236  31.180  1.00  0.00     0.175 C
BRANCH  33  34
HETATM   34  C22 UNL     1       6.221  11.994  31.629  1.00  0.00     0.393 C
HETATM   35  F1  UNL     1       7.083  11.034  32.122  1.00  0.00    -0.171 F
HETATM   36  F2  UNL     1       5.594  11.419  30.527  1.00  0.00    -0.171 F
HETATM   37  F3  UNL     1       5.322  12.280  32.628  1.00  0.00    -0.171 F
ENDBRANCH  33  34
ENDBRANCH  13  33
BRANCH  10  38
HETATM   38  C17 UNL     1       4.867  16.756  33.867  1.00  0.00     0.045 C
HETATM   39  C18 UNL     1       3.397  16.968  34.082  1.00  0.00     0.017 C
HETATM   40  C19 UNL     1       5.415  15.889  34.983  1.00  0.00     0.017 C
ENDBRANCH  10  38
TORSDOF 7
ENDMDL