MODEL 4
REMARK VINA RESULT: -8.611892292      2.737      6.840
REMARK  7 active torsions:
REMARK  status: ('A' for Active; 'I' for Inactive)
REMARK    1  A    between atoms: C6_6  and  C7_7
REMARK    2  A    between atoms: C7_7  and  O1_8
REMARK    3  A    between atoms: C7_7  and  C8_10
REMARK    4  A    between atoms: C7_7  and  C16_19
REMARK    5  A    between atoms: C8_10  and  C9_11
REMARK    6  A    between atoms: C17_23  and  C18_24
REMARK    7  A    between atoms: C28_35  and  C29_36
ROOT
HETATM    1  C7  UNL     1       5.217  15.438  28.366  1.00  0.00     0.128 C
ENDROOT
BRANCH   1   2
HETATM    2  C6  UNL     1       5.781  15.484  27.047  1.00  0.00    -0.004 A
HETATM    3  C5  UNL     1       6.430  14.296  26.555  1.00  0.00     0.011 A
HETATM    4  C4  UNL     1       7.055  14.199  25.345  1.00  0.00     0.001 A
HETATM    5  C3  UNL     1       7.093  15.283  24.514  1.00  0.00     0.007 A
HETATM    6  C2  UNL     1       6.484  16.460  24.935  1.00  0.00    -0.046 A
HETATM    7  C1  UNL     1       6.488  17.632  24.024  1.00  0.00     0.049 C
HETATM    8  C28 UNL     1       5.834  16.562  26.192  1.00  0.00     0.063 A
BRANCH   8   9
HETATM    9  C29 UNL     1       5.211  17.822  26.496  1.00  0.00     0.418 C
HETATM   10  F2  UNL     1       3.896  18.013  26.076  1.00  0.00    -0.166 F
HETATM   11  F3  UNL     1       5.509  18.564  27.575  1.00  0.00    -0.166 F
HETATM   12  F4  UNL     1       5.841  18.759  25.549  1.00  0.00    -0.166 F
ENDBRANCH   8   9
ENDBRANCH   1   2
BRANCH   1  13
HETATM   13  O1  UNL     1       4.883  14.027  28.595  1.00  0.00    -0.381 OA
ATOM     14  H1  UNL     1       4.398  13.756  27.824  1.00  0.00     0.211 HD
ENDBRANCH   1  13
BRANCH   1  15
HETATM   15  C8  UNL     1       3.877  16.037  28.637  1.00  0.00     0.052 C
BRANCH  15  16
HETATM   16  C9  UNL     1       3.534  16.614  29.947  1.00  0.00    -0.011 C
HETATM   17  C10 UNL     1       2.425  16.090  30.763  1.00  0.00     0.008 C
HETATM   18  C11 UNL     1       2.780  16.425  32.237  1.00  0.00     0.043 C
HETATM   19  C12 UNL     1       2.908  17.898  32.333  1.00  0.00     0.100 C
HETATM   20  C13 UNL     1       4.244  18.353  32.933  1.00  0.00     0.051 C
HETATM   21  F1  UNL     1       1.944  18.325  33.255  1.00  0.00    -0.243 F
HETATM   22  C14 UNL     1       2.593  18.652  31.073  1.00  0.00     0.043 C
HETATM   23  C15 UNL     1       3.261  18.132  29.835  1.00  0.00     0.008 C
ENDBRANCH  15  16
ENDBRANCH   1  15
BRANCH   1  24
HETATM   24  C16 UNL     1       6.090  15.587  29.578  1.00  0.00     0.281 A
HETATM   25  N1  UNL     1       7.085  16.543  29.681  1.00  0.00    -0.103 NA
HETATM   26  N2  UNL     1       7.661  16.398  30.872  1.00  0.00    -0.284 N
HETATM   27  C17 UNL     1       7.060  15.377  31.532  1.00  0.00     0.140 A
ATOM     28  H2  UNL     1       8.430  16.963  31.231  1.00  0.00     0.184 HD
HETATM   29  O2  UNL     1       6.145  14.946  30.708  1.00  0.00    -0.310 OA
BRANCH  27  30
HETATM   30  C18 UNL     1       7.379  14.871  32.889  1.00  0.00     0.027 C
HETATM   31  C19 UNL     1       7.498  13.363  32.874  1.00  0.00     0.022 C
HETATM   32  C20 UNL     1       8.023  12.829  34.162  1.00  0.00    -0.013 C
HETATM   33  C21 UNL     1       9.396  13.419  34.407  1.00  0.00     0.009 C
HETATM   34  C25 UNL     1       7.063  13.189  35.271  1.00  0.00     0.009 C
HETATM   35  C22 UNL     1       9.239  14.906  34.557  1.00  0.00    -0.013 C
HETATM   36  C23 UNL     1       8.266  15.245  35.664  1.00  0.00     0.009 C
HETATM   37  C27 UNL     1       8.732  15.515  33.311  1.00  0.00     0.022 C
HETATM   38  C24 UNL     1       6.922  14.699  35.280  1.00  0.00    -0.013 C
HETATM   39  C26 UNL     1       6.399  15.241  33.962  1.00  0.00     0.022 C
ENDBRANCH  27  30
ENDBRANCH   1  24
TORSDOF 7
ENDMDL