MODEL 3
REMARK VINA RESULT: -7.395383963      2.965      4.932
REMARK  7 active torsions:
REMARK  status: ('A' for Active; 'I' for Inactive)
REMARK    1  A    between atoms: C2_2  and  C4_5
REMARK    2  A    between atoms: C7_8  and  C8_9
REMARK    3  A    between atoms: C10_12  and  C11_13
REMARK       I    between atoms: N1_14  and  C12_15
REMARK       I    between atoms: C12_15  and  N2_17
REMARK    4  A    between atoms: N2_17  and  C13_19
REMARK    5  A    between atoms: C13_19  and  C14_20
REMARK    6  A    between atoms: C14_20  and  C15_21
REMARK    7  A    between atoms: C15_21  and  C16_22
ROOT
HETATM    1  C11 UNL     1       5.434  17.627  30.926  1.00  0.00     0.174 C
HETATM    2  N1  UNL     1       4.563  16.692  31.672  1.00  0.00    -0.233 N
HETATM    3  C12 UNL     1       4.763  15.915  32.806  1.00  0.00     0.327 C
HETATM    4  O1  UNL     1       3.819  15.188  33.199  1.00  0.00    -0.247 OA
HETATM    5  N2  UNL     1       5.997  15.910  33.546  1.00  0.00    -0.343 N
ATOM      6  H2  UNL     1       6.761  16.501  33.222  1.00  0.00     0.164 HD
HETATM    7  C17 UNL     1       3.338  16.827  30.909  1.00  0.00     0.372 C
HETATM    8  O2  UNL     1       2.425  15.976  30.786  1.00  0.00    -0.238 OA
HETATM    9  O3  UNL     1       3.338  18.113  30.307  1.00  0.00    -0.290 OA
HETATM   10  C18 UNL     1       4.425  18.785  30.937  1.00  0.00     0.091 C
HETATM   11  C19 UNL     1       4.885  20.031  30.322  1.00  0.00     0.049 C
HETATM   12  C20 UNL     1       4.004  18.952  32.389  1.00  0.00     0.049 C
ENDROOT
BRANCH   1  13
HETATM   13  C10 UNL     1       5.519  16.992  29.565  1.00  0.00     0.010 A
HETATM   14  S1  UNL     1       5.304  17.728  28.037  1.00  0.00    -0.103 SA
HETATM   15  C9  UNL     1       5.596  16.383  27.032  1.00  0.00     0.062 A
HETATM   16  C8  UNL     1       5.858  15.382  27.925  1.00  0.00    -0.018 A
HETATM   17  C21 UNL     1       5.816  15.700  29.234  1.00  0.00     0.029 A
BRANCH  16  18
HETATM   18  C7  UNL     1       6.194  14.012  27.443  1.00  0.00    -0.025 A
HETATM   19  C6  UNL     1       6.591  13.774  26.152  1.00  0.00     0.013 A
HETATM   20  C5  UNL     1       6.934  12.522  25.689  1.00  0.00     0.010 A
HETATM   21  C4  UNL     1       6.880  11.449  26.550  1.00  0.00    -0.035 A
HETATM   22  C23 UNL     1       6.479  11.650  27.879  1.00  0.00     0.010 A
HETATM   23  C22 UNL     1       6.145  12.922  28.297  1.00  0.00     0.013 A
BRANCH  21  24
HETATM   24  C2  UNL     1       7.254  10.114  26.071  1.00  0.00     0.057 C
HETATM   25  C1  UNL     1       6.077   9.427  25.440  1.00  0.00     0.037 C
HETATM   26  C3  UNL     1       8.298  10.293  24.963  1.00  0.00     0.037 C
HETATM   27 CL1  UNL     1       7.965   9.114  27.352  1.00  0.00    -0.115 Cl
ENDBRANCH  21  24
ENDBRANCH  16  18
ENDBRANCH   1  13
BRANCH   5  28
HETATM   28  C13 UNL     1       6.201  15.105  34.731  1.00  0.00     0.125 C
BRANCH  28  29
HETATM   29  C14 UNL     1       7.036  13.899  34.557  1.00  0.00     0.028 C
BRANCH  29  30
HETATM   30  C15 UNL     1       6.389  12.751  33.872  1.00  0.00     0.119 C
BRANCH  30  31
HETATM   31  C16 UNL     1       6.738  12.568  32.439  1.00  0.00     0.388 C
HETATM   32  F1  UNL     1       7.714  13.451  32.004  1.00  0.00    -0.171 F
HETATM   33  F2  UNL     1       5.572  12.950  31.703  1.00  0.00    -0.171 F
HETATM   34  F3  UNL     1       6.993  11.266  32.136  1.00  0.00    -0.171 F
ENDBRANCH  30  31
ENDBRANCH  29  30
ENDBRANCH  28  29
ENDBRANCH   5  28
TORSDOF 7
ENDMDL