MODEL 2
REMARK VINA RESULT: -8.277499755      2.470      3.833
REMARK  7 active torsions:
REMARK  status: ('A' for Active; 'I' for Inactive)
REMARK    1  A    between atoms: C2_2  and  O1_3
REMARK    2  A    between atoms: O1_3  and  C3_4
REMARK    3  A    between atoms: C3_4  and  C4_6
REMARK    4  A    between atoms: C9_13  and  C10_14
REMARK       I    between atoms: C10_14  and  N2_16
REMARK    5  A    between atoms: N2_16  and  C11_18
REMARK    6  A    between atoms: C14_21  and  C15_22
REMARK    7  A    between atoms: C18_29  and  C19_30
ROOT
HETATM    1  C4  UNL     1       5.783  17.982  30.858  1.00  0.00     0.045 C
HETATM    2  C5  UNL     1       5.637  18.874  29.907  1.00  0.00     0.018 C
HETATM    3  C6  UNL     1       6.341  20.199  30.072  1.00  0.00     0.069 C
HETATM    4  N1  UNL     1       4.961  18.653  28.669  1.00  0.00    -0.366 N
ATOM      5  H1  UNL     1       4.879  19.399  27.978  1.00  0.00     0.165 HD
HETATM    6  C7  UNL     1       4.455  17.487  28.445  1.00  0.00    -0.004 C
HETATM    7  C8  UNL     1       3.747  17.291  27.126  1.00  0.00     0.064 C
HETATM    8  C9  UNL     1       4.557  16.364  29.379  1.00  0.00     0.132 C
HETATM    9  C18 UNL     1       5.023  16.700  30.747  1.00  0.00     0.049 C
ENDROOT
BRANCH   8  10
HETATM   10  C10 UNL     1       5.468  15.330  28.754  1.00  0.00     0.232 C
HETATM   11  O3  UNL     1       6.547  15.762  28.275  1.00  0.00    -0.272 OA
HETATM   12  N2  UNL     1       5.133  13.966  28.703  1.00  0.00    -0.325 N
ATOM     13  H2  UNL     1       4.235  13.722  29.121  1.00  0.00     0.169 HD
BRANCH  12  14
HETATM   14  C11 UNL     1       5.848  12.900  28.164  1.00  0.00     0.056 A
HETATM   15  C12 UNL     1       5.858  12.623  26.819  1.00  0.00     0.032 A
HETATM   16  C13 UNL     1       6.593  11.551  26.333  1.00  0.00     0.018 A
HETATM   17  C14 UNL     1       7.321  10.746  27.172  1.00  0.00     0.049 A
HETATM   18  C16 UNL     1       7.333  10.991  28.522  1.00  0.00     0.042 A
HETATM   19  C17 UNL     1       6.594  12.067  28.982  1.00  0.00     0.061 A
HETATM   20 CL1  UNL     1       6.600  12.406  30.706  1.00  0.00    -0.082 Cl
BRANCH  17  21
HETATM   21  C15 UNL     1       8.104   9.610  26.637  1.00  0.00     0.417 C
HETATM   22  F1  UNL     1       7.336   8.472  26.593  1.00  0.00    -0.166 F
HETATM   23  F2  UNL     1       8.529   9.936  25.359  1.00  0.00    -0.166 F
HETATM   24  F3  UNL     1       9.215   9.421  27.471  1.00  0.00    -0.166 F
ENDBRANCH  17  21
ENDBRANCH  12  14
ENDBRANCH   8  10
BRANCH   9  25
HETATM   25  C19 UNL     1       3.923  16.592  31.787  1.00  0.00    -0.005 C
HETATM   26  C20 UNL     1       2.547  16.436  31.275  1.00  0.00     0.005 C
HETATM   27  C21 UNL     1       1.511  17.272  31.958  1.00  0.00     0.000 C
HETATM   28  C22 UNL     1       1.008  16.787  33.276  1.00  0.00     0.000 C
HETATM   29  C23 UNL     1       1.056  15.339  33.548  1.00  0.00     0.000 C
HETATM   30  C24 UNL     1       2.296  14.804  34.157  1.00  0.00     0.000 C
HETATM   31  C25 UNL     1       3.499  15.690  34.102  1.00  0.00     0.000 C
HETATM   32  C26 UNL     1       4.253  15.529  32.784  1.00  0.00     0.005 C
ENDBRANCH   9  25
BRANCH   1  33
HETATM   33  C3  UNL     1       6.613  18.200  32.071  1.00  0.00     0.291 C
HETATM   34  O2  UNL     1       6.204  18.706  33.125  1.00  0.00    -0.260 OA
BRANCH  33  35
HETATM   35  O1  UNL     1       7.950  17.838  32.083  1.00  0.00    -0.318 OA
BRANCH  35  36
HETATM   36  C2  UNL     1       8.575  16.862  32.829  1.00  0.00     0.174 C
HETATM   37  C1  UNL     1       8.012  15.487  32.813  1.00  0.00     0.034 C
ENDBRANCH  35  36
ENDBRANCH  33  35
ENDBRANCH   1  33
TORSDOF 7
ENDMDL