MODEL 3
REMARK VINA RESULT: -6.518127220      3.278      4.198
REMARK  6 active torsions:
REMARK  status: ('A' for Active; 'I' for Inactive)
REMARK    1  A    between atoms: C3_3  and  C4_4
REMARK    2  A    between atoms: C4_4  and  C5_5
REMARK    3  A    between atoms: C5_5  and  C6_6
REMARK    4  A    between atoms: N1_16  and  C11_17
REMARK    5  A    between atoms: C11_17  and  C12_18
REMARK    6  A    between atoms: C14_20  and  C15_21
ROOT
HETATM    1  C1  UNL     1       6.867  11.639  28.362  1.00  0.00     0.069 C
HETATM    2  C2  UNL     1       6.650  12.918  27.613  1.00  0.00     0.016 A
HETATM    3  C3  UNL     1       5.990  14.019  28.183  1.00  0.00    -0.021 A
HETATM    4  C7  UNL     1       5.996  15.004  27.195  1.00  0.00     0.030 A
HETATM    5  C8  UNL     1       5.541  16.298  27.131  1.00  0.00     0.089 A
HETATM    6 CL1  UNL     1       4.707  17.299  28.301  1.00  0.00    -0.075 Cl
HETATM    7  S1  UNL     1       5.988  16.800  25.573  1.00  0.00    -0.062 SA
HETATM    8  C9  UNL     1       6.746  15.363  25.028  1.00  0.00     0.103 A
HETATM    9 CL2  UNL     1       7.503  15.128  23.458  1.00  0.00    -0.074 Cl
HETATM   10  C10 UNL     1       6.617  14.524  26.106  1.00  0.00     0.077 A
HETATM   11  N1  UNL     1       7.020  13.233  26.367  1.00  0.00    -0.343 N
ENDROOT
BRANCH  11  12
HETATM   12  C11 UNL     1       7.731  12.307  25.521  1.00  0.00     0.175 C
BRANCH  12  13
HETATM   13  C12 UNL     1       6.916  11.048  25.310  1.00  0.00     0.003 A
HETATM   14  C13 UNL     1       5.726  10.960  24.630  1.00  0.00     0.028 A
HETATM   15  C14 UNL     1       5.153   9.742  24.540  1.00  0.00     0.006 A
HETATM   16  C18 UNL     1       5.810   8.704  25.138  1.00  0.00     0.061 A
HETATM   17 BR1  UNL     1       5.307   6.842  25.223  1.00  0.00    -0.042 Br
HETATM   18  S2  UNL     1       7.188   9.441  25.798  1.00  0.00    -0.085 SA
BRANCH  15  19
HETATM   19  C15 UNL     1       3.837   9.467  23.822  1.00  0.00     0.125 C
HETATM   20  C16 UNL     1       3.247  10.768  23.327  1.00  0.00     0.057 C
HETATM   21  C17 UNL     1       2.869   8.740  24.714  1.00  0.00     0.057 C
HETATM   22  F1  UNL     1       4.059   8.675  22.715  1.00  0.00    -0.238 F
ENDBRANCH  15  19
ENDBRANCH  12  13
ENDBRANCH  11  12
BRANCH   3  23
HETATM   23  C4  UNL     1       5.462  14.087  29.556  1.00  0.00     0.052 C
BRANCH  23  24
HETATM   24  C5  UNL     1       6.399  14.542  30.608  1.00  0.00     0.118 C
BRANCH  24  25
HETATM   25  C6  UNL     1       6.836  13.632  31.629  1.00  0.00     0.172 C
HETATM   26  O1  UNL     1       7.765  13.846  32.414  1.00  0.00    -0.648 OA
HETATM   27  O2  UNL     1       6.169  12.411  31.758  1.00  0.00    -0.648 OA
ENDBRANCH  24  25
ENDBRANCH  23  24
ENDBRANCH   3  23
TORSDOF 6
ENDMDL