MODEL 2
REMARK VINA RESULT: -7.405681531      1.761      2.328
REMARK  7 active torsions:
REMARK  status: ('A' for Active; 'I' for Inactive)
REMARK    1  A    between atoms: C3_3  and  O1_4
REMARK    2  A    between atoms: N1_8  and  N2_9
REMARK    3  A    between atoms: C16_21  and  C17_22
REMARK    4  A    between atoms: C17_22  and  C18_24
REMARK    5  A    between atoms: C18_24  and  C19_25
REMARK    6  A    between atoms: C19_25  and  C20_26
REMARK    7  A    between atoms: C20_26  and  C21_27
ROOT
HETATM    1  N2  UNL     1       4.994  14.588  28.360  1.00  0.00    -0.301 N
ATOM      2  H2  UNL     1       3.977  14.544  28.282  1.00  0.00     0.187 HD
HETATM    3  C6  UNL     1       5.493  15.033  29.466  1.00  0.00     0.004 C
HETATM    4  C7  UNL     1       6.935  15.103  29.605  1.00  0.00     0.055 C
HETATM    5  C8  UNL     1       7.478  15.081  31.001  1.00  0.00     0.016 C
HETATM    6  C9  UNL     1       6.479  15.346  32.078  1.00  0.00    -0.032 C
HETATM    7  C10 UNL     1       5.879  13.978  32.448  1.00  0.00     0.016 C
HETATM    8  C11 UNL     1       5.294  16.159  31.588  1.00  0.00    -0.000 C
HETATM    9  C12 UNL     1       5.674  17.535  31.175  1.00  0.00     0.006 C
HETATM   10  C13 UNL     1       6.850  18.103  31.963  1.00  0.00     0.011 C
HETATM   11  C14 UNL     1       6.953  17.504  33.333  1.00  0.00    -0.026 C
HETATM   12  C15 UNL     1       5.815  18.003  34.205  1.00  0.00     0.016 C
HETATM   13  C16 UNL     1       8.199  17.956  34.020  1.00  0.00     0.064 C
HETATM   14  C22 UNL     1       9.232  17.015  33.405  1.00  0.00     0.013 C
HETATM   15  C23 UNL     1       8.496  15.706  33.522  1.00  0.00     0.011 C
HETATM   16  C24 UNL     1       7.038  15.996  33.301  1.00  0.00    -0.028 C
HETATM   17  C25 UNL     1       6.319  15.479  34.531  1.00  0.00     0.016 C
HETATM   18  C26 UNL     1       4.532  15.436  30.500  1.00  0.00     0.059 C
ENDROOT
BRANCH   1  19
HETATM   19  N1  UNL     1       5.746  14.164  27.269  1.00  0.00    -0.246 N
HETATM   20  C4  UNL     1       6.149  12.910  27.062  1.00  0.00     0.065 A
HETATM   21  C3  UNL     1       6.878  12.817  25.893  1.00  0.00     0.099 A
HETATM   22  C5  UNL     1       5.875  11.756  27.936  1.00  0.00     0.073 C
HETATM   23  C2  UNL     1       6.917  14.082  25.368  1.00  0.00     0.014 A
HETATM   24  C1  UNL     1       7.606  14.447  24.100  1.00  0.00     0.054 C
HETATM   25  C27 UNL     1       6.211  14.888  26.240  1.00  0.00     0.134 A
HETATM   26 CL1  UNL     1       5.984  16.598  25.995  1.00  0.00    -0.062 Cl
BRANCH  21  27
HETATM   27  O1  UNL     1       7.464  11.691  25.336  1.00  0.00    -0.358 OA
ATOM     28  H1  UNL     1       6.999  10.944  24.977  1.00  0.00     0.217 HD
ENDBRANCH  21  27
ENDBRANCH   1  19
BRANCH  13  29
HETATM   29  C17 UNL     1       8.605  19.333  33.999  1.00  0.00     0.131 C
HETATM   30  O2  UNL     1       8.153  20.044  34.931  1.00  0.00    -0.298 OA
BRANCH  29  31
HETATM   31  C18 UNL     1       9.472  20.056  33.057  1.00  0.00     0.079 C
BRANCH  31  32
HETATM   32  C19 UNL     1      10.897  20.145  33.532  1.00  0.00     0.016 C
BRANCH  32  33
HETATM   33  C20 UNL     1      11.958  20.055  32.517  1.00  0.00     0.118 C
BRANCH  33  34
HETATM   34  C21 UNL     1      12.406  18.664  32.233  1.00  0.00     0.387 C
HETATM   35  F1  UNL     1      13.645  18.714  31.618  1.00  0.00    -0.171 F
HETATM   36  F2  UNL     1      11.546  18.078  31.265  1.00  0.00    -0.171 F
HETATM   37  F3  UNL     1      12.452  17.885  33.333  1.00  0.00    -0.171 F
ENDBRANCH  33  34
ENDBRANCH  32  33
ENDBRANCH  31  32
ENDBRANCH  29  31
ENDBRANCH  13  29
TORSDOF 7
ENDMDL