MODEL 5
REMARK VINA RESULT: -7.355869009      2.316      3.704
REMARK  7 active torsions:
REMARK  status: ('A' for Active; 'I' for Inactive)
REMARK    1  A    between atoms: C3_3  and  N1_4
REMARK    2  A    between atoms: C7_10  and  C8_11
REMARK    3  A    between atoms: C8_11  and  O1_12
REMARK    4  A    between atoms: C8_11  and  C9_14
REMARK    5  A    between atoms: C8_11  and  C16_21
REMARK    6  A    between atoms: C9_14  and  C10_15
REMARK    7  A    between atoms: C10_15  and  C11_16
ROOT
HETATM    1  N1  UNL     1       5.327  14.463  30.812  1.00  0.00    -0.346 N
HETATM    2  C4  UNL     1       4.257  15.415  30.873  1.00  0.00     0.132 C
HETATM    3  C5  UNL     1       4.247  16.327  32.038  1.00  0.00     0.079 C
HETATM    4  C6  UNL     1       4.626  15.595  33.268  1.00  0.00     0.037 A
HETATM    5  N2  UNL     1       4.309  15.803  34.587  1.00  0.00    -0.345 N
ATOM      6  H2  UNL     1       3.692  16.536  34.937  1.00  0.00     0.167 HD
HETATM    7  C7  UNL     1       4.929  14.902  35.335  1.00  0.00     0.126 A
HETATM    8  N3  UNL     1       5.633  14.117  34.519  1.00  0.00    -0.343 N
ATOM      9  H3  UNL     1       6.210  13.330  34.814  1.00  0.00     0.167 HD
HETATM   10  C17 UNL     1       5.464  14.524  33.236  1.00  0.00     0.061 A
HETATM   11  C18 UNL     1       6.044  14.031  31.967  1.00  0.00     0.071 C
HETATM   12  C19 UNL     1       6.088  12.510  32.045  1.00  0.00     0.045 C
HETATM   13  C20 UNL     1       7.506  14.500  31.982  1.00  0.00     0.045 C
ENDROOT
BRANCH   7  14
HETATM   14  C8  UNL     1       4.961  14.852  36.871  1.00  0.00     0.214 C
BRANCH  14  15
HETATM   15  O1  UNL     1       5.283  13.582  37.322  1.00  0.00    -0.374 OA
ATOM     16  H1  UNL     1       5.537  13.598  38.237  1.00  0.00     0.211 HD
ENDBRANCH  14  15
BRANCH  14  17
HETATM   17  C9  UNL     1       3.671  15.295  37.468  1.00  0.00     0.056 C
BRANCH  17  18
HETATM   18  C10 UNL     1       2.592  14.287  37.394  1.00  0.00     0.008 C
BRANCH  18  19
HETATM   19  C11 UNL     1       1.250  14.716  36.875  1.00  0.00    -0.014 C
HETATM   20  C12 UNL     1       0.871  13.643  35.832  1.00  0.00     0.004 C
HETATM   21  C13 UNL     1       1.033  14.370  34.492  1.00  0.00     0.000 C
HETATM   22  C14 UNL     1       0.376  15.717  34.873  1.00  0.00     0.000 C
HETATM   23  C15 UNL     1       1.197  16.016  36.153  1.00  0.00     0.004 C
ENDBRANCH  18  19
ENDBRANCH  17  18
ENDBRANCH  14  17
BRANCH  14  24
HETATM   24  C16 UNL     1       6.119  15.785  37.256  1.00  0.00     0.425 C
HETATM   25  F1  UNL     1       6.708  16.376  36.228  1.00  0.00    -0.167 F
HETATM   26  F2  UNL     1       5.567  16.729  38.134  1.00  0.00    -0.167 F
HETATM   27  F3  UNL     1       7.019  15.064  38.059  1.00  0.00    -0.167 F
ENDBRANCH  14  24
ENDBRANCH   7  14
BRANCH   1  28
HETATM   28  C3  UNL     1       5.656  13.961  29.503  1.00  0.00     0.154 A
HETATM   29  C2  UNL     1       6.162  14.690  28.460  1.00  0.00     0.002 A
HETATM   30  C1  UNL     1       6.473  16.136  28.383  1.00  0.00     0.054 C
HETATM   31  C26 UNL     1       6.345  13.815  27.380  1.00  0.00     0.010 A
HETATM   32  C21 UNL     1       5.935  12.593  27.834  1.00  0.00     0.088 A
HETATM   33  C25 UNL     1       6.825  14.026  26.100  1.00  0.00     0.038 A
HETATM   34  O2  UNL     1       5.537  12.720  29.083  1.00  0.00    -0.293 OA
HETATM   35  C22 UNL     1       6.007  11.531  26.959  1.00  0.00     0.040 A
HETATM   36  C23 UNL     1       6.483  11.702  25.670  1.00  0.00     0.026 A
HETATM   37  C24 UNL     1       6.895  12.944  25.226  1.00  0.00     0.035 A
HETATM   38 CL1  UNL     1       7.493  13.115  23.593  1.00  0.00    -0.084 Cl
ENDBRANCH   1  28
TORSDOF 7
ENDMDL