MODEL 1
REMARK VINA RESULT: -7.308935361      0.000      0.000
REMARK  7 active torsions:
REMARK  status: ('A' for Active; 'I' for Inactive)
REMARK    1  A    between atoms: C2_2  and  N1_3
REMARK       I    between atoms: N1_3  and  C3_5
REMARK    2  A    between atoms: C3_5  and  O2_7
REMARK    3  A    between atoms: O2_7  and  C4_8
REMARK    4  A    between atoms: C4_8  and  C5_9
REMARK    5  A    between atoms: N2_25  and  O3_27
REMARK    6  A    between atoms: O3_27  and  C21_28
REMARK    7  A    between atoms: C21_28  and  C22_29
ROOT
HETATM    1  C5  UNL     1       4.312  18.232  27.152  1.00  0.00     0.002 C
HETATM    2  C6  UNL     1       2.978  18.077  26.409  1.00  0.00     0.022 C
HETATM    3  C7  UNL     1       4.811  19.602  26.901  1.00  0.00     0.016 C
HETATM    4  C8  UNL     1       5.387  20.323  28.050  1.00  0.00     0.002 C
HETATM    5  C9  UNL     1       5.728  19.492  29.241  1.00  0.00     0.017 C
HETATM    6  C10 UNL     1       4.544  18.675  29.723  1.00  0.00     0.017 C
HETATM    7  C11 UNL     1       3.407  19.512  30.202  1.00  0.00     0.023 C
HETATM    8  C12 UNL     1       4.088  17.873  28.548  1.00  0.00    -0.062 C
HETATM    9  C13 UNL     1       3.431  16.751  28.816  1.00  0.00    -0.022 C
HETATM   10  C14 UNL     1       3.144  16.283  30.186  1.00  0.00     0.036 C
HETATM   11  C15 UNL     1       3.995  16.871  31.256  1.00  0.00     0.038 C
HETATM   12  C16 UNL     1       4.494  15.810  32.252  1.00  0.00    -0.033 C
HETATM   13  C17 UNL     1       5.254  14.716  31.489  1.00  0.00     0.016 C
HETATM   14  C18 UNL     1       3.284  15.227  32.881  1.00  0.00     0.016 C
HETATM   15  C19 UNL     1       3.205  15.332  34.365  1.00  0.00     0.055 C
HETATM   16  C20 UNL     1       4.524  15.008  34.932  1.00  0.00     0.010 C
HETATM   17  N2  UNL     1       4.695  14.068  35.778  1.00  0.00    -0.275 N
ATOM     18  H2  UNL     1       3.884  13.522  36.070  1.00  0.00     0.193 HD
HETATM   19  C23 UNL     1       5.667  15.818  34.484  1.00  0.00     0.060 C
HETATM   20  C24 UNL     1       5.458  16.479  33.153  1.00  0.00    -0.000 C
HETATM   21  C25 UNL     1       5.176  17.981  33.303  1.00  0.00     0.009 C
HETATM   22  C26 UNL     1       5.543  18.611  31.968  1.00  0.00     0.045 C
HETATM   23  C27 UNL     1       5.099  17.762  30.809  1.00  0.00     0.119 C
HETATM   24  F4  UNL     1       6.180  17.125  30.268  1.00  0.00    -0.241 F
ENDROOT
BRANCH   1  25
HETATM   25  C4  UNL     1       5.235  17.182  26.545  1.00  0.00     0.194 C
BRANCH  25  26
HETATM   26  O2  UNL     1       6.001  17.738  25.486  1.00  0.00    -0.303 OA
BRANCH  26  27
HETATM   27  C3  UNL     1       6.529  17.006  24.463  1.00  0.00     0.360 C
HETATM   28  N1  UNL     1       6.990  15.689  24.680  1.00  0.00    -0.337 N
ATOM     29  H1  UNL     1       6.935  15.268  25.608  1.00  0.00     0.164 HD
HETATM   30  O1  UNL     1       6.606  17.505  23.318  1.00  0.00    -0.239 OA
BRANCH  28  31
HETATM   31  C2  UNL     1       7.542  14.945  23.570  1.00  0.00     0.120 C
HETATM   32  C1  UNL     1       7.094  13.517  23.547  1.00  0.00     0.026 C
ENDBRANCH  28  31
ENDBRANCH  26  27
ENDBRANCH  25  26
ENDBRANCH   1  25
BRANCH  17  33
HETATM   33  O3  UNL     1       5.916  13.757  36.312  1.00  0.00    -0.272 OA
BRANCH  33  34
HETATM   34  C21 UNL     1       6.533  12.569  35.905  1.00  0.00     0.318 C
BRANCH  34  35
HETATM   35  C22 UNL     1       7.421  12.778  34.687  1.00  0.00     0.410 C
HETATM   36  F1  UNL     1       8.349  11.765  34.579  1.00  0.00    -0.169 F
HETATM   37  F2  UNL     1       6.607  12.705  33.580  1.00  0.00    -0.169 F
HETATM   38  F3  UNL     1       8.109  13.963  34.772  1.00  0.00    -0.169 F
ENDBRANCH  34  35
ENDBRANCH  33  34
ENDBRANCH  17  33
TORSDOF 7
ENDMDL