MODEL 1
REMARK VINA RESULT: -9.697585593      0.000      0.000
REMARK  7 active torsions:
REMARK  status: ('A' for Active; 'I' for Inactive)
REMARK    1  A    between atoms: C2_2  and  C3_4
REMARK    2  A    between atoms: C7_8  and  C8_9
REMARK    3  A    between atoms: C9_10  and  O1_11
REMARK    4  A    between atoms: C13_18  and  O4_19
REMARK    5  A    between atoms: O4_19  and  C14_20
REMARK    6  A    between atoms: C14_20  and  C15_21
REMARK    7  A    between atoms: C18_24  and  C19_25
ROOT
HETATM    1  C8  UNL     1       6.304  13.119  26.687  1.00  0.00     0.055 A
HETATM    2  C9  UNL     1       6.676  14.366  26.205  1.00  0.00     0.194 A
HETATM    3  O2  UNL     1       6.713  15.386  27.031  1.00  0.00    -0.291 OA
HETATM    4  C10 UNL     1       6.414  15.281  28.296  1.00  0.00     0.069 A
HETATM    5  C11 UNL     1       6.042  14.049  28.835  1.00  0.00     0.052 A
HETATM    6  C12 UNL     1       5.980  12.957  28.046  1.00  0.00     0.194 A
HETATM    7  O3  UNL     1       5.648  11.870  28.561  1.00  0.00    -0.287 OA
HETATM    8  C13 UNL     1       5.802  14.112  30.292  1.00  0.00     0.168 C
HETATM    9  C22 UNL     1       4.663  15.080  30.458  1.00  0.00     0.046 C
HETATM   10  C23 UNL     1       5.251  16.464  30.176  1.00  0.00    -0.039 C
HETATM   11  C24 UNL     1       4.220  17.404  29.617  1.00  0.00     0.015 C
HETATM   12  C25 UNL     1       5.704  17.064  31.520  1.00  0.00     0.015 C
HETATM   13  C26 UNL     1       6.428  16.409  29.263  1.00  0.00     0.074 C
ENDROOT
BRANCH   8  14
HETATM   14  O4  UNL     1       5.740  12.940  30.977  1.00  0.00    -0.352 OA
BRANCH  14  15
HETATM   15  C14 UNL     1       6.982  12.775  31.584  1.00  0.00     0.147 C
BRANCH  15  16
HETATM   16  C15 UNL     1       7.178  13.238  32.941  1.00  0.00    -0.014 A
HETATM   17  C16 UNL     1       6.488  12.555  33.954  1.00  0.00     0.014 A
HETATM   18  C17 UNL     1       6.527  12.913  35.273  1.00  0.00     0.017 A
HETATM   19  C18 UNL     1       7.266  13.981  35.661  1.00  0.00     0.048 A
HETATM   20  C20 UNL     1       7.962  14.682  34.711  1.00  0.00     0.017 A
HETATM   21  C21 UNL     1       7.919  14.315  33.367  1.00  0.00     0.014 A
BRANCH  19  22
HETATM   22  C19 UNL     1       7.241  14.337  37.117  1.00  0.00     0.417 C
HETATM   23  F1  UNL     1       6.888  13.182  37.831  1.00  0.00    -0.166 F
HETATM   24  F2  UNL     1       8.497  14.722  37.556  1.00  0.00    -0.166 F
HETATM   25  F3  UNL     1       6.312  15.291  37.425  1.00  0.00    -0.166 F
ENDBRANCH  19  22
ENDBRANCH  15  16
ENDBRANCH  14  15
ENDBRANCH   8  14
BRANCH   1  26
HETATM   26  C7  UNL     1       6.285  11.982  25.780  1.00  0.00     0.032 C
HETATM   27  C5  UNL     1       7.395  10.972  25.898  1.00  0.00    -0.010 C
HETATM   28  C4  UNL     1       6.671   9.598  25.841  1.00  0.00     0.011 C
HETATM   29  C6  UNL     1       8.366  10.973  24.756  1.00  0.00     0.010 C
HETATM   30  C3  UNL     1       5.512   9.941  24.930  1.00  0.00     0.005 C
HETATM   31  C27 UNL     1       4.996  11.245  25.598  1.00  0.00     0.016 C
BRANCH  30  32
HETATM   32  C2  UNL     1       4.459   8.902  24.829  1.00  0.00     0.082 C
HETATM   33  C1  UNL     1       3.655   8.926  23.552  1.00  0.00     0.027 C
HETATM   34 CL1  UNL     1       5.176   7.321  25.154  1.00  0.00    -0.125 Cl
ENDBRANCH  30  32
ENDBRANCH   1  26
BRANCH   2  35
HETATM   35  O1  UNL     1       7.003  14.520  24.868  1.00  0.00    -0.340 OA
ATOM     36  H1  UNL     1       7.662  15.153  24.612  1.00  0.00     0.220 HD
ENDBRANCH   2  35
TORSDOF 7
ENDMDL