MODEL 5
REMARK VINA RESULT: -8.925595169      4.445      7.558
REMARK  6 active torsions:
REMARK  status: ('A' for Active; 'I' for Inactive)
REMARK    1  A    between atoms: C1_2  and  C2_3
REMARK    2  A    between atoms: C1_2  and  C13_19
REMARK    3  A    between atoms: C5_7  and  C6_8
REMARK    4  A    between atoms: C8_10  and  C9_11
REMARK    5  A    between atoms: C14_20  and  N1_21
REMARK       I    between atoms: N1_21  and  C15_23
REMARK    6  A    between atoms: C15_23  and  C16_25
ROOT
HETATM    1  C13 UNL     1       6.109  14.381  27.875  1.00  0.00     0.058 A
HETATM    2  C14 UNL     1       5.789  13.478  28.865  1.00  0.00     0.092 A
HETATM    3  S1  UNL     1       5.769  11.951  28.036  1.00  0.00    -0.075 SA
HETATM    4  C21 UNL     1       6.159  12.495  26.501  1.00  0.00    -0.008 A
HETATM    5  C22 UNL     1       6.304  13.863  26.638  1.00  0.00    -0.028 A
HETATM    6  C23 UNL     1       6.726  14.457  25.343  1.00  0.00     0.041 C
HETATM    7  C24 UNL     1       7.758  13.630  24.621  1.00  0.00     0.005 C
HETATM    8  C25 UNL     1       7.736  12.177  24.774  1.00  0.00     0.005 C
HETATM    9  C26 UNL     1       6.326  11.792  25.185  1.00  0.00     0.047 C
ENDROOT
BRANCH   1  10
HETATM   10  C1  UNL     1       6.232  15.791  28.249  1.00  0.00     0.220 C
HETATM   11  O1  UNL     1       7.293  16.202  28.760  1.00  0.00    -0.284 OA
BRANCH  10  12
HETATM   12  C2  UNL     1       5.183  16.778  28.097  1.00  0.00     0.137 A
HETATM   13  O2  UNL     1       4.908  17.342  26.891  1.00  0.00    -0.318 OA
HETATM   14  C3  UNL     1       3.960  18.177  26.955  1.00  0.00     0.143 A
HETATM   15  C4  UNL     1       3.497  18.255  28.238  1.00  0.00     0.040 A
HETATM   16  C5  UNL     1       4.314  17.327  28.975  1.00  0.00     0.017 A
BRANCH  16  17
HETATM   17  C6  UNL     1       4.106  17.187  30.403  1.00  0.00     0.016 A
HETATM   18  C7  UNL     1       2.808  16.873  30.879  1.00  0.00     0.031 A
HETATM   19  C8  UNL     1       2.546  16.646  32.201  1.00  0.00     0.048 A
HETATM   20  C10 UNL     1       3.552  16.720  33.153  1.00  0.00     0.019 A
HETATM   21  C11 UNL     1       4.823  17.031  32.710  1.00  0.00     0.044 A
HETATM   22  C12 UNL     1       5.076  17.256  31.349  1.00  0.00     0.127 A
HETATM   23  F4  UNL     1       6.354  17.506  31.004  1.00  0.00    -0.205 F
BRANCH  19  24
HETATM   24  C9  UNL     1       1.176  16.260  32.682  1.00  0.00     0.417 C
HETATM   25  F1  UNL     1       0.791  15.072  32.131  1.00  0.00    -0.166 F
HETATM   26  F2  UNL     1       0.308  17.250  32.232  1.00  0.00    -0.166 F
HETATM   27  F3  UNL     1       1.140  16.193  34.073  1.00  0.00    -0.166 F
ENDBRANCH  19  24
ENDBRANCH  16  17
ENDBRANCH  10  12
ENDBRANCH   1  10
BRANCH   2  28
HETATM   28  N1  UNL     1       5.512  13.600  30.251  1.00  0.00    -0.320 N
HETATM   29  C15 UNL     1       6.616  13.593  31.200  1.00  0.00     0.226 C
HETATM   30  O3  UNL     1       7.773  13.474  30.730  1.00  0.00    -0.273 OA
ATOM     31  H1  UNL     1       4.550  13.691  30.579  1.00  0.00     0.169 HD
BRANCH  29  32
HETATM   32  C16 UNL     1       6.477  13.711  32.638  1.00  0.00     0.078 C
HETATM   33  C17 UNL     1       6.410  12.412  33.390  1.00  0.00     0.014 C
HETATM   34  C18 UNL     1       7.034  12.776  34.735  1.00  0.00     0.001 C
HETATM   35  C19 UNL     1       8.197  13.679  34.355  1.00  0.00     0.001 C
HETATM   36  C20 UNL     1       7.661  14.494  33.179  1.00  0.00     0.014 C
ENDBRANCH  29  32
ENDBRANCH   2  28
TORSDOF 6
ENDMDL