MODEL 3
REMARK VINA RESULT: -5.703241122      1.083      1.107
REMARK  7 active torsions:
REMARK  status: ('A' for Active; 'I' for Inactive)
REMARK    1  A    between atoms: N1_2  and  C3_4
REMARK    2  A    between atoms: C3_4  and  C4_5
REMARK    3  A    between atoms: C6_10  and  C7_11
REMARK    4  A    between atoms: C7_11  and  C8_12
REMARK    5  A    between atoms: C8_12  and  C9_13
REMARK    6  A    between atoms: C9_13  and  C10_14
REMARK    7  A    between atoms: C10_14  and  N3_15
REMARK       I    between atoms: C11_17  and  N5_19
ROOT
HETATM    1  N3  UNL     1      -6.523  16.957  19.802  1.00  0.00    -0.364 N
ATOM      2  H3  UNL     1      -6.242  17.701  19.164  1.00  0.00     0.162 HD
HETATM    3  C11 UNL     1      -6.531  15.736  19.401  1.00  0.00     0.197 C
HETATM    4  N4  UNL     1      -6.901  14.638  20.207  1.00  0.00    -0.063 NA
HETATM    5  N5  UNL     1      -6.141  15.480  18.063  1.00  0.00    -0.268 N
ATOM      6  H5  UNL     1      -6.798  15.595  17.291  1.00  0.00     0.180 HD
HETATM    7  C12 UNL     1      -4.829  15.064  17.835  1.00  0.00     0.184 C
HETATM    8  N6  UNL     1      -3.734  14.722  17.633  1.00  0.00    -0.172 NA
ENDROOT
BRANCH   1   9
HETATM    9  C10 UNL     1      -6.914  17.277  21.169  1.00  0.00     0.122 C
BRANCH   9  10
HETATM   10  C9  UNL     1      -7.645  18.599  21.235  1.00  0.00     0.023 C
BRANCH  10  11
HETATM   11  C8  UNL     1      -9.077  18.363  20.776  1.00  0.00     0.030 C
BRANCH  11  12
HETATM   12  C7  UNL     1      -9.711  17.372  21.654  1.00  0.00    -0.004 C
BRANCH  12  13
HETATM   13  C6  UNL     1      -9.768  16.068  21.429  1.00  0.00     0.096 A
HETATM   14  C5  UNL     1     -10.292  15.565  20.244  1.00  0.00     0.262 A
HETATM   15  N2  UNL     1     -10.364  14.244  19.991  1.00  0.00    -0.307 N
HETATM   16  O1  UNL     1     -10.704  16.424  19.402  1.00  0.00    -0.267 OA
HETATM   17  C4  UNL     1      -9.928  13.340  20.880  1.00  0.00     0.126 A
ATOM     18  H2  UNL     1     -10.757  13.926  19.105  1.00  0.00     0.170 HD
HETATM   19  N7  UNL     1      -9.416  13.792  22.035  1.00  0.00    -0.307 N
HETATM   20  C13 UNL     1      -9.326  15.123  22.329  1.00  0.00     0.262 A
ATOM     21  H7  UNL     1      -9.080  13.116  22.721  1.00  0.00     0.170 HD
HETATM   22  O2  UNL     1      -8.840  15.487  23.423  1.00  0.00    -0.267 OA
BRANCH  17  23
HETATM   23  C3  UNL     1      -9.989  12.029  20.650  1.00  0.00     0.133 C
BRANCH  23  24
HETATM   24  N1  UNL     1      -9.104  11.363  19.778  1.00  0.00    -0.395 N
HETATM   25  C1  UNL     1      -9.544  10.162  19.121  1.00  0.00     0.148 C
HETATM   26  C2  UNL     1      -7.787  11.872  19.550  1.00  0.00     0.148 C
ENDBRANCH  23  24
ENDBRANCH  17  23
ENDBRANCH  12  13
ENDBRANCH  11  12
ENDBRANCH  10  11
ENDBRANCH   9  10
ENDBRANCH   1   9
TORSDOF 7
ENDMDL