MODEL 2
REMARK VINA RESULT: -4.960194597      2.248      4.466
REMARK  9 active torsions:
REMARK  status: ('A' for Active; 'I' for Inactive)
REMARK    1  A    between atoms: N1_1  and  C1_5
REMARK    2  A    between atoms: C1_5  and  C2_6
REMARK       I    between atoms: C2_6  and  N2_8
REMARK    3  A    between atoms: N2_8  and  C3_10
REMARK    4  A    between atoms: C3_10  and  C4_11
REMARK    5  A    between atoms: C4_11  and  N5_17
REMARK    6  A    between atoms: N3_12  and  N4_14
REMARK    7  A    between atoms: N5_17  and  C5_19
REMARK    8  A    between atoms: C8_22  and  S1_23
REMARK    9  A    between atoms: S1_23  and  N6_24
ROOT
HETATM    1  C4  UNL     1      -9.459  17.783  21.472  1.00  0.00     0.115 C
HETATM    2  N3  UNL     1     -10.555  18.449  21.475  1.00  0.00    -0.294 N
ATOM      3  H3  UNL     1     -10.584  19.349  20.995  1.00  0.00     0.187 HD
ENDROOT
BRANCH   1   4
HETATM    4  C3  UNL     1      -8.284  18.345  20.775  1.00  0.00     0.200 C
BRANCH   4   5
HETATM    5  N2  UNL     1      -7.262  17.344  20.592  1.00  0.00    -0.353 N
HETATM    6  C2  UNL     1      -6.892  16.858  19.313  1.00  0.00     0.243 C
HETATM    7  O1  UNL     1      -7.449  17.278  18.242  1.00  0.00    -0.272 OA
ATOM      8  H2  UNL     1      -6.788  16.971  21.415  1.00  0.00     0.162 HD
BRANCH   6   9
HETATM    9  C1  UNL     1      -5.815  15.825  19.220  1.00  0.00     0.332 C
BRANCH   9  10
HETATM   10  N1  UNL     1      -6.080  14.965  18.112  1.00  0.00    -0.071 N
ATOM     11  H13 UNL     1      -6.499  15.465  17.327  1.00  0.00     0.274 HD
ATOM     12  H12 UNL     1      -5.225  14.658  17.648  1.00  0.00     0.274 HD
ATOM     13  H11 UNL     1      -6.654  14.181  18.422  1.00  0.00     0.274 HD
ENDBRANCH   9  10
ENDBRANCH   6   9
ENDBRANCH   4   5
ENDBRANCH   1   4
BRANCH   1  14
HETATM   14  N5  UNL     1      -9.438  16.544  22.163  1.00  0.00    -0.330 N
ATOM     15  H5  UNL     1      -9.430  16.566  23.184  1.00  0.00     0.168 HD
BRANCH  14  16
HETATM   16  C5  UNL     1      -9.427  15.402  21.589  1.00  0.00     0.106 A
HETATM   17  C6  UNL     1     -10.542  15.017  20.879  1.00  0.00     0.050 A
HETATM   18  C7  UNL     1     -10.573  13.794  20.244  1.00  0.00     0.030 A
HETATM   19  C8  UNL     1      -9.482  12.962  20.326  1.00  0.00     0.094 A
HETATM   20  C9  UNL     1      -8.367  13.363  21.044  1.00  0.00     0.115 A
HETATM   21  N7  UNL     1      -8.352  14.561  21.659  1.00  0.00    -0.351 N
ATOM     22  H7  UNL     1      -7.526  14.846  22.185  1.00  0.00     0.166 HD
BRANCH  19  23
HETATM   23  S1  UNL     1      -9.438  11.393  19.550  1.00  0.00     0.258 S
HETATM   24  O2  UNL     1      -8.084  11.215  18.919  1.00  0.00    -0.201 OA
HETATM   25  O3  UNL     1      -9.615  10.292  20.563  1.00  0.00    -0.201 OA
BRANCH  23  26
HETATM   26  N6  UNL     1     -10.601  11.296  18.283  1.00  0.00    -0.324 N
ATOM     27  H62 UNL     1     -11.525  11.726  18.330  1.00  0.00     0.169 HD
ATOM     28  H61 UNL     1     -10.241  10.757  17.496  1.00  0.00     0.169 HD
ENDBRANCH  23  26
ENDBRANCH  19  23
ENDBRANCH  14  16
ENDBRANCH   1  14
BRANCH   2  29
HETATM   29  N4  UNL     1     -11.710  17.988  22.111  1.00  0.00    -0.344 N
ATOM     30  H42 UNL     1     -12.169  17.164  21.724  1.00  0.00     0.176 HD
ATOM     31  H41 UNL     1     -12.098  18.443  22.937  1.00  0.00     0.176 HD
ENDBRANCH   2  29
TORSDOF 9
ENDMDL