MODEL 5
REMARK VINA RESULT: -6.630716768      2.415      4.614
REMARK  9 active torsions:
REMARK  status: ('A' for Active; 'I' for Inactive)
REMARK    1  A    between atoms: C3_5  and  O1_6
REMARK    2  A    between atoms: C4_8  and  C5_9
REMARK    3  A    between atoms: C5_9  and  C6_10
REMARK    4  A    between atoms: C6_10  and  N2_11
REMARK    5  A    between atoms: C6_10  and  C7_16
REMARK    6  A    between atoms: N2_11  and  N3_13
REMARK       I    between atoms: C7_16  and  N4_18
REMARK    7  A    between atoms: N4_18  and  C8_20
REMARK    8  A    between atoms: C8_20  and  C9_21
REMARK    9  A    between atoms: C9_21  and  N5_22
ROOT
HETATM    1  C6  UNL     1      -9.519  13.216  20.948  1.00  0.00     0.116 C
ENDROOT
BRANCH   1   2
HETATM    2  C5  UNL     1      -8.252  13.874  21.063  1.00  0.00     0.060 C
BRANCH   2   3
HETATM    3  C4  UNL     1      -7.338  14.097  20.145  1.00  0.00     0.060 A
HETATM    4  C3  UNL     1      -6.818  13.459  19.074  1.00  0.00     0.158 A
HETATM    5  N1  UNL     1      -5.870  14.039  18.372  1.00  0.00    -0.331 N
HETATM    6  C2  UNL     1      -5.444  15.234  18.724  1.00  0.00     0.067 A
ATOM      7  H1  UNL     1      -5.468  13.567  17.562  1.00  0.00     0.168 HD
HETATM    8  C1  UNL     1      -4.489  15.990  18.138  1.00  0.00     0.051 C
HETATM    9  S1  UNL     1      -6.384  15.592  20.089  1.00  0.00    -0.069 SA
BRANCH   4  10
HETATM   10  O1  UNL     1      -7.225  12.274  18.707  1.00  0.00    -0.345 OA
ATOM     11  H1  UNL     1      -6.780  11.847  17.985  1.00  0.00     0.219 HD
ENDBRANCH   4  10
ENDBRANCH   2   3
ENDBRANCH   1   2
BRANCH   1  12
HETATM   12  N2  UNL     1      -9.684  12.071  20.543  1.00  0.00    -0.302 N
ATOM     13  H2  UNL     1      -9.986  11.479  21.316  1.00  0.00     0.186 HD
BRANCH  12  14
HETATM   14  N3  UNL     1      -9.600  11.338  19.429  1.00  0.00    -0.345 N
ATOM     15  H32 UNL     1     -10.322  11.664  18.787  1.00  0.00     0.176 HD
ATOM     16  H31 UNL     1      -9.062  10.575  19.017  1.00  0.00     0.176 HD
ENDBRANCH  12  14
ENDBRANCH   1  12
BRANCH   1  17
HETATM   17  C7  UNL     1     -10.690  14.038  21.368  1.00  0.00     0.269 C
HETATM   18  O2  UNL     1     -11.769  13.925  20.679  1.00  0.00    -0.266 OA
HETATM   19  N4  UNL     1     -10.741  14.928  22.440  1.00  0.00    -0.354 N
ATOM     20  H4  UNL     1      -9.908  15.044  23.017  1.00  0.00     0.162 HD
BRANCH  19  21
HETATM   21  C8  UNL     1     -11.922  15.694  22.773  1.00  0.00     0.142 C
BRANCH  21  22
HETATM   22  C9  UNL     1     -12.043  17.012  22.095  1.00  0.00     0.141 C
BRANCH  22  23
HETATM   23  N5  UNL     1     -10.765  17.701  21.997  1.00  0.00    -0.365 N
HETATM   24  C10 UNL     1     -10.165  17.704  20.871  1.00  0.00     0.197 C
HETATM   25  N6  UNL     1     -10.743  17.049  19.761  1.00  0.00    -0.067 NA
HETATM   26  N7  UNL     1      -8.917  18.365  20.737  1.00  0.00    -0.067 NA
ATOM     27  H5  UNL     1     -10.360  18.170  22.806  1.00  0.00     0.161 HD
ENDBRANCH  22  23
ENDBRANCH  21  22
ENDBRANCH  19  21
ENDBRANCH   1  17
TORSDOF 9
ENDMDL