MODEL 1
REMARK VINA RESULT: -7.053346364      0.000      0.000
REMARK  7 active torsions:
REMARK  status: ('A' for Active; 'I' for Inactive)
REMARK    1  A    between atoms: C2_2  and  N1_3
REMARK    2  A    between atoms: C7_8  and  C8_9
REMARK    3  A    between atoms: C8_9  and  N2_10
REMARK    4  A    between atoms: C8_9  and  N4_14
REMARK    5  A    between atoms: N2_10  and  N3_11
REMARK    6  A    between atoms: C9_16  and  C10_17
REMARK    7  A    between atoms: C10_17  and  C11_18
ROOT
HETATM    1  N4  UNL     1      -9.417  13.048  21.544  1.00  0.00    -0.378 N
ATOM      2  H4  UNL     1      -9.000  12.458  22.265  1.00  0.00     0.160 HD
HETATM    3  C9  UNL     1     -10.627  13.401  21.665  1.00  0.00     0.062 C
ENDROOT
BRANCH   1   4
HETATM    4  C8  UNL     1      -8.601  13.458  20.405  1.00  0.00     0.246 C
BRANCH   4   5
HETATM    5  C7  UNL     1      -7.745  14.587  20.772  1.00  0.00     0.051 A
HETATM    6  N1  UNL     1      -6.795  15.025  19.975  1.00  0.00    -0.358 N
HETATM    7  C3  UNL     1      -6.036  16.093  20.384  1.00  0.00     0.091 A
HETATM    8  C4  UNL     1      -6.241  16.710  21.596  1.00  0.00     0.017 A
HETATM    9  C5  UNL     1      -7.238  16.259  22.446  1.00  0.00     0.003 A
HETATM   10  C6  UNL     1      -7.985  15.189  22.015  1.00  0.00     0.029 A
BRANCH   6  11
HETATM   11  C2  UNL     1      -6.510  14.434  18.691  1.00  0.00     0.124 C
HETATM   12  C1  UNL     1      -5.145  14.982  18.254  1.00  0.00     0.027 C
ENDBRANCH   6  11
ENDBRANCH   4   5
BRANCH   4  13
HETATM   13  N2  UNL     1      -7.821  12.259  20.069  1.00  0.00    -0.116 NA
BRANCH  13  14
HETATM   14  N3  UNL     1      -8.635  11.384  19.359  1.00  0.00    -0.346 N
ATOM     15  H32 UNL     1      -9.365  10.801  19.771  1.00  0.00     0.172 HD
ATOM     16  H31 UNL     1      -8.378  11.426  18.373  1.00  0.00     0.172 HD
ENDBRANCH  13  14
ENDBRANCH   4  13
ENDBRANCH   1   4
BRANCH   3  17
HETATM   17  C10 UNL     1     -11.369  14.256  20.700  1.00  0.00     0.092 C
BRANCH  17  18
HETATM   18  C11 UNL     1     -11.136  15.696  20.940  1.00  0.00     0.056 A
HETATM   19  C12 UNL     1     -11.490  16.264  22.138  1.00  0.00     0.132 A
HETATM   20  N5  UNL     1     -12.080  15.446  23.134  1.00  0.00    -0.082 NA
HETATM   21  N6  UNL     1     -11.274  17.584  22.348  1.00  0.00    -0.296 N
HETATM   22  C13 UNL     1     -10.713  18.357  21.397  1.00  0.00     0.328 A
ATOM     23  H6  UNL     1     -11.540  18.000  23.241  1.00  0.00     0.171 HD
HETATM   24  O1  UNL     1     -10.498  19.590  21.562  1.00  0.00    -0.247 OA
HETATM   25  N7  UNL     1     -10.364  17.808  20.225  1.00  0.00    -0.275 N
HETATM   26  C14 UNL     1     -10.565  16.498  19.982  1.00  0.00     0.259 A
ATOM     27  H7  UNL     1      -9.939  18.391  19.505  1.00  0.00     0.173 HD
HETATM   28  O2  UNL     1     -10.214  16.054  18.861  1.00  0.00    -0.267 OA
ENDBRANCH  17  18
ENDBRANCH   3  17
TORSDOF 7
ENDMDL