MODEL 1
REMARK VINA RESULT: -7.594010508      0.000      0.000
REMARK  5 active torsions:
REMARK  status: ('A' for Active; 'I' for Inactive)
REMARK    1  A    between atoms: C1_2  and  C2_4
REMARK    2  A    between atoms: C5_7  and  S1_8
REMARK    3  A    between atoms: S1_8  and  N2_11
REMARK    4  A    between atoms: N2_11  and  C6_13
REMARK    5  A    between atoms: C6_13  and  N3_14
ROOT
HETATM    1  S1  UNL     1      -9.707  13.477  20.896  1.00  0.00     0.275 S
HETATM    2  O2  UNL     1      -9.892  11.979  20.872  1.00  0.00    -0.199 OA
HETATM    3  O3  UNL     1      -9.602  13.884  22.339  1.00  0.00    -0.199 OA
ENDROOT
BRANCH   1   4
HETATM    4  C5  UNL     1      -8.244  13.908  20.088  1.00  0.00     0.151 A
HETATM    5  C4  UNL     1      -7.337  13.021  19.587  1.00  0.00     0.045 A
HETATM    6  C3  UNL     1      -6.178  13.471  18.947  1.00  0.00     0.025 A
HETATM    7  C2  UNL     1      -5.919  14.814  18.804  1.00  0.00     0.097 A
HETATM    8  C9  UNL     1      -6.876  15.680  19.333  1.00  0.00     0.261 A
HETATM    9  N6  UNL     1      -7.970  15.232  19.937  1.00  0.00    -0.312 N
HETATM   10  O5  UNL     1      -6.668  16.926  19.218  1.00  0.00    -0.267 OA
ATOM     11  H6  UNL     1      -8.635  15.912  20.306  1.00  0.00     0.170 HD
BRANCH   7  12
HETATM   12  C1  UNL     1      -4.749  15.344  18.158  1.00  0.00     0.270 C
HETATM   13  N1  UNL     1      -4.044  16.450  18.695  1.00  0.00    -0.057 NA
HETATM   14  O1  UNL     1      -4.327  14.833  17.097  1.00  0.00    -0.271 OA
ENDBRANCH   7  12
ENDBRANCH   1   4
BRANCH   1  15
HETATM   15  N2  UNL     1     -11.092  14.232  20.213  1.00  0.00    -0.297 N
ATOM     16  H2  UNL     1     -11.340  14.187  19.225  1.00  0.00     0.174 HD
BRANCH  15  17
HETATM   17  C6  UNL     1     -11.863  14.944  21.216  1.00  0.00     0.269 C
BRANCH  17  18
HETATM   18  N3  UNL     1     -11.469  16.310  21.349  1.00  0.00    -0.276 N
HETATM   19  C7  UNL     1     -11.657  17.110  22.436  1.00  0.00     0.206 A
HETATM   20  N4  UNL     1     -11.140  18.319  22.147  1.00  0.00    -0.292 N
HETATM   21  N5  UNL     1     -10.636  18.307  20.925  1.00  0.00    -0.250 N
ATOM     22  H4  UNL     1     -11.137  19.121  22.776  1.00  0.00     0.187 HD
HETATM   23  C8  UNL     1     -10.838  17.073  20.433  1.00  0.00     0.343 A
ATOM     24  H5  UNL     1     -10.183  19.085  20.446  1.00  0.00     0.192 HD
HETATM   25  O4  UNL     1     -10.496  16.659  19.277  1.00  0.00    -0.245 OA
ENDBRANCH  17  18
ENDBRANCH  15  17
ENDBRANCH   1  15
TORSDOF 5
ENDMDL