MODEL 1
REMARK VINA RESULT: -7.643694568      0.000      0.000
REMARK  6 active torsions:
REMARK  status: ('A' for Active; 'I' for Inactive)
REMARK    1  A    between atoms: N3_4  and  C2_6
REMARK    2  A    between atoms: C2_6  and  C3_7
REMARK    3  A    between atoms: C3_7  and  C4_8
REMARK    4  A    between atoms: C4_8  and  C5_9
REMARK    5  A    between atoms: N6_19  and  S1_20
REMARK    6  A    between atoms: S1_20  and  N7_21
ROOT
HETATM    1  C5  UNL     1      -9.086  15.966  20.740  1.00  0.00     0.205 C
HETATM    2  N4  UNL     1      -9.291  17.358  20.593  1.00  0.00    -0.320 N
ATOM      3  H4  UNL     1      -8.702  17.822  19.903  1.00  0.00     0.166 HD
HETATM    4  C6  UNL     1     -10.209  18.191  21.280  1.00  0.00     0.324 C
HETATM    5  O1  UNL     1     -10.017  19.451  21.271  1.00  0.00    -0.247 OA
HETATM    6  N5  UNL     1     -11.357  17.734  21.995  1.00  0.00    -0.275 N
ATOM      7  H5  UNL     1     -12.122  18.404  22.069  1.00  0.00     0.173 HD
HETATM    8  C7  UNL     1     -11.582  16.472  22.621  1.00  0.00     0.265 C
HETATM    9  O2  UNL     1     -12.548  16.402  23.419  1.00  0.00    -0.267 OA
HETATM   10  C8  UNL     1     -10.751  15.267  22.378  1.00  0.00     0.181 C
HETATM   11  N6  UNL     1     -10.151  15.153  21.133  1.00  0.00    -0.242 N
ENDROOT
BRANCH   1  12
HETATM   12  C4  UNL     1      -7.950  15.773  21.756  1.00  0.00     0.050 C
BRANCH  12  13
HETATM   13  C3  UNL     1      -6.680  16.220  21.078  1.00  0.00     0.023 C
BRANCH  13  14
HETATM   14  C2  UNL     1      -6.885  16.298  19.569  1.00  0.00     0.122 C
BRANCH  14  15
HETATM   15  N3  UNL     1      -5.615  16.216  18.879  1.00  0.00    -0.367 N
HETATM   16  C1  UNL     1      -5.229  15.160  18.254  1.00  0.00     0.196 C
HETATM   17  N1  UNL     1      -3.974  15.153  17.602  1.00  0.00    -0.067 NA
HETATM   18  N2  UNL     1      -6.059  14.031  18.228  1.00  0.00    -0.067 NA
ATOM     19  H3  UNL     1      -5.000  17.031  18.889  1.00  0.00     0.161 HD
ENDBRANCH  14  15
ENDBRANCH  13  14
ENDBRANCH  12  13
ENDBRANCH   1  12
BRANCH  11  20
HETATM   20  S1  UNL     1     -10.132  13.551  20.561  1.00  0.00     0.320 S
HETATM   21  O3  UNL     1     -11.119  13.428  19.419  1.00  0.00    -0.182 OA
HETATM   22  O4  UNL     1     -10.540  12.542  21.596  1.00  0.00    -0.182 OA
BRANCH  20  23
HETATM   23  N7  UNL     1      -8.591  13.079  19.944  1.00  0.00    -0.311 N
ATOM     24  H72 UNL     1      -7.819  13.736  19.829  1.00  0.00     0.170 HD
ATOM     25  H71 UNL     1      -8.544  12.087  19.713  1.00  0.00     0.170 HD
ENDBRANCH  20  23
ENDBRANCH  11  20
TORSDOF 6
ENDMDL