MODEL 5
REMARK VINA RESULT: -5.086463181      1.709      3.498
REMARK  8 active torsions:
REMARK  status: ('A' for Active; 'I' for Inactive)
REMARK    1  A    between atoms: N1_1  and  C1_4
REMARK    2  A    between atoms: N4_13  and  C6_14
REMARK    3  A    between atoms: C6_14  and  C7_15
REMARK    4  A    between atoms: C7_15  and  O1_16
REMARK    5  A    between atoms: C8_19  and  N6_20
REMARK    6  A    between atoms: N6_20  and  C9_22
REMARK    7  A    between atoms: C9_22  and  C10_23
REMARK    8  A    between atoms: C10_23  and  N7_24
ROOT
HETATM    1  C1  UNL     1      -5.853  15.211  18.950  1.00  0.00     0.160 A
HETATM    2  N2  UNL     1      -5.899  14.141  18.147  1.00  0.00    -0.281 N
ATOM      3  H2  UNL     1      -5.301  14.107  17.322  1.00  0.00     0.188 HD
HETATM    4  N3  UNL     1      -6.699  13.139  18.403  1.00  0.00    -0.282 N
ATOM      5  H3  UNL     1      -6.702  12.342  17.765  1.00  0.00     0.188 HD
HETATM    6  C2  UNL     1      -7.520  13.113  19.475  1.00  0.00     0.143 A
HETATM    7  C3  UNL     1      -8.332  12.010  19.631  1.00  0.00     0.053 A
HETATM    8  C4  UNL     1      -9.185  11.969  20.698  1.00  0.00     0.023 A
HETATM    9  C5  UNL     1      -9.161  13.040  21.533  1.00  0.00     0.111 A
HETATM   10  N4  UNL     1      -8.336  14.143  21.362  1.00  0.00    -0.291 N
HETATM   11  N5  UNL     1      -7.512  14.190  20.335  1.00  0.00    -0.217 N
HETATM   12  C8  UNL     1      -6.686  15.224  20.070  1.00  0.00     0.174 A
ENDROOT
BRANCH  12  13
HETATM   13  N6  UNL     1      -6.659  16.217  20.809  1.00  0.00    -0.350 N
ATOM     14  H6  UNL     1      -6.121  16.022  21.654  1.00  0.00     0.166 HD
BRANCH  13  15
HETATM   15  C9  UNL     1      -7.146  17.527  20.829  1.00  0.00     0.092 C
BRANCH  15  16
HETATM   16  C10 UNL     1      -8.452  17.825  21.461  1.00  0.00     0.319 C
BRANCH  16  17
HETATM   17  N7  UNL     1      -9.524  18.217  20.571  1.00  0.00     0.120 N
HETATM   18  C11 UNL     1     -10.049  16.943  20.043  1.00  0.00     0.302 C
HETATM   19  C12 UNL     1     -11.195  16.579  20.915  1.00  0.00     0.264 C
HETATM   20  N8  UNL     1     -11.218  17.538  21.968  1.00  0.00    -0.047 N
HETATM   21  C13 UNL     1     -10.620  18.721  21.381  1.00  0.00     0.503 C
ATOM     22  H82 UNL     1     -12.141  17.693  22.373  1.00  0.00     0.279 HD
ATOM     23  H81 UNL     1     -10.770  17.225  22.829  1.00  0.00     0.279 HD
ENDBRANCH  16  17
ENDBRANCH  15  16
ENDBRANCH  13  15
ENDBRANCH  12  13
BRANCH   1  24
HETATM   24  N1  UNL     1      -5.052  16.191  18.660  1.00  0.00    -0.381 N
ATOM     25  H12 UNL     1      -4.998  16.602  17.729  1.00  0.00     0.157 HD
ATOM     26  H11 UNL     1      -4.443  16.570  19.385  1.00  0.00     0.157 HD
ENDBRANCH   1  24
BRANCH  10  27
HETATM   27  C6  UNL     1      -8.453  15.185  22.323  1.00  0.00     0.175 C
BRANCH  27  28
HETATM   28  C7  UNL     1      -7.572  14.783  23.494  1.00  0.00     0.185 C
BRANCH  28  29
HETATM   29  O1  UNL     1      -8.343  14.617  24.662  1.00  0.00    -0.399 OA
ATOM     30  H1  UNL     1      -9.248  14.854  24.503  1.00  0.00     0.209 HD
ENDBRANCH  28  29
ENDBRANCH  27  28
ENDBRANCH  10  27
TORSDOF 8
ENDMDL