MODEL 1
REMARK VINA RESULT: -8.182733314      0.000      0.000
REMARK  7 active torsions:
REMARK  status: ('A' for Active; 'I' for Inactive)
REMARK    1  A    between atoms: C4_7  and  C5_8
REMARK    2  A    between atoms: C5_8  and  C6_9
REMARK    3  A    between atoms: C6_9  and  C7_10
REMARK    4  A    between atoms: C7_10  and  N2_11
REMARK    5  A    between atoms: N2_11  and  C9_13
REMARK    6  A    between atoms: C9_13  and  C10_14
REMARK    7  A    between atoms: C10_14  and  O2_15
ROOT
HETATM    1  N2  UNL     1      -9.509  17.097  20.048  1.00  0.00     0.089 N
HETATM    2  C8  UNL     1      -9.150  17.997  21.150  1.00  0.00     0.310 C
ENDROOT
BRANCH   1   3
HETATM    3  C7  UNL     1     -10.861  16.692  20.091  1.00  0.00     0.276 C
BRANCH   3   4
HETATM    4  C6  UNL     1     -11.334  16.361  21.508  1.00  0.00     0.060 C
BRANCH   4   5
HETATM    5  C5  UNL     1     -11.359  14.891  21.688  1.00  0.00     0.010 C
BRANCH   5   6
HETATM    6  C4  UNL     1     -10.344  14.084  21.451  1.00  0.00     0.098 A
HETATM    7  C3  UNL     1      -9.099  14.011  22.013  1.00  0.00     0.273 A
HETATM    8  N1  UNL     1      -8.405  12.990  21.431  1.00  0.00    -0.308 N
HETATM    9  O1  UNL     1      -8.664  14.774  22.929  1.00  0.00    -0.266 OA
HETATM   10  C2  UNL     1      -9.205  12.434  20.517  1.00  0.00     0.098 A
ATOM     11  H1  UNL     1      -7.451  12.705  21.652  1.00  0.00     0.170 HD
HETATM   12  C1  UNL     1      -8.898  11.409  19.741  1.00  0.00     0.063 C
HETATM   13  N5  UNL     1     -10.373  13.097  20.533  1.00  0.00    -0.339 N
ATOM     14  H5  UNL     1     -11.171  12.884  19.935  1.00  0.00     0.167 HD
ENDBRANCH   5   6
ENDBRANCH   4   5
ENDBRANCH   3   4
ENDBRANCH   1   3
BRANCH   1  15
HETATM   15  C9  UNL     1      -8.499  16.119  19.972  1.00  0.00     0.343 C
BRANCH  15  16
HETATM   16  C10 UNL     1      -7.222  16.444  19.291  1.00  0.00     0.245 C
HETATM   17  N3  UNL     1      -6.848  15.315  18.417  1.00  0.00    -0.301 N
HETATM   18  C11 UNL     1      -5.432  15.316  18.364  1.00  0.00     0.325 C
ATOM     19  H3  UNL     1      -7.479  14.666  17.947  1.00  0.00     0.167 HD
HETATM   20  O3  UNL     1      -4.743  14.772  17.463  1.00  0.00    -0.247 OA
HETATM   21  N4  UNL     1      -4.932  16.030  19.489  1.00  0.00    -0.275 N
HETATM   22  C12 UNL     1      -6.063  16.461  20.225  1.00  0.00     0.283 C
ATOM     23  H4  UNL     1      -3.953  16.198  19.720  1.00  0.00     0.173 HD
HETATM   24  O4  UNL     1      -6.136  16.800  21.417  1.00  0.00    -0.267 OA
BRANCH  16  25
HETATM   25  O2  UNL     1      -7.190  17.593  18.545  1.00  0.00    -0.362 OA
ATOM     26  H2  UNL     1      -6.451  18.174  18.679  1.00  0.00     0.213 HD
ENDBRANCH  16  25
ENDBRANCH  15  16
ENDBRANCH   1  15
TORSDOF 7
ENDMDL