MODEL 3
REMARK VINA RESULT: -5.694740242      2.326      4.217
REMARK  9 active torsions:
REMARK  status: ('A' for Active; 'I' for Inactive)
REMARK    1  A    between atoms: C4_4  and  C5_5
REMARK       I    between atoms: C5_5  and  N1_7
REMARK    2  A    between atoms: N1_7  and  C6_9
REMARK    3  A    between atoms: C6_9  and  C7_10
REMARK    4  A    between atoms: C7_10  and  C8_11
REMARK    5  A    between atoms: C8_11  and  N2_12
REMARK    6  A    between atoms: N2_12  and  C9_14
REMARK    7  A    between atoms: C10_17  and  N4_18
REMARK    8  A    between atoms: C11_23  and  N6_24
REMARK    9  A    between atoms: N7_27  and  O2_28
ROOT
HETATM    1  C1  UNL     1     -11.840  12.489  22.195  1.00  0.00     0.017 C
HETATM    2  C2  UNL     1     -11.629  13.662  22.015  1.00  0.00    -0.089 C
HETATM    3  C3  UNL     1     -11.398  15.085  21.803  1.00  0.00     0.069 C
HETATM    4  C4  UNL     1     -10.960  15.513  20.657  1.00  0.00     0.083 C
ENDROOT
BRANCH   4   5
HETATM    5  C5  UNL     1     -10.730  16.932  20.447  1.00  0.00     0.241 C
HETATM    6  O1  UNL     1     -11.075  17.490  19.376  1.00  0.00    -0.269 OA
HETATM    7  N1  UNL     1     -10.109  17.732  21.451  1.00  0.00    -0.358 N
ATOM      8  H1  UNL     1      -9.825  17.289  22.325  1.00  0.00     0.162 HD
BRANCH   7   9
HETATM    9  C6  UNL     1      -9.866  19.141  21.278  1.00  0.00     0.124 C
BRANCH   9  10
HETATM   10  C7  UNL     1      -8.482  19.376  20.713  1.00  0.00     0.040 C
BRANCH  10  11
HETATM   11  C8  UNL     1      -7.424  18.564  21.443  1.00  0.00     0.139 C
BRANCH  11  12
HETATM   12  N2  UNL     1      -6.885  17.592  20.543  1.00  0.00    -0.224 N
ATOM     13  H2  UNL     1      -6.417  17.957  19.713  1.00  0.00     0.177 HD
BRANCH  12  14
HETATM   14  C9  UNL     1      -6.920  16.329  20.655  1.00  0.00     0.709 C
HETATM   15  N3  UNL     1      -7.418  15.862  21.827  1.00  0.00    -0.021 N
HETATM   16  C10 UNL     1      -7.959  14.663  22.123  1.00  0.00     0.705 C
ATOM     17  H3  UNL     1      -7.377  16.519  22.606  1.00  0.00     0.203 HD
HETATM   18  N5  UNL     1      -8.114  13.632  21.268  1.00  0.00    -0.019 N
HETATM   19  C11 UNL     1      -7.501  13.443  20.075  1.00  0.00     0.734 C
ATOM     20  H5  UNL     1      -8.773  12.908  21.553  1.00  0.00     0.203 HD
HETATM   21  N7  UNL     1      -6.809  14.333  19.328  1.00  0.00     0.031 N
HETATM   22  N8  UNL     1      -6.469  15.576  19.622  1.00  0.00    -0.090 N
ATOM     23  H8  UNL     1      -5.790  16.018  19.002  1.00  0.00     0.209 HD
BRANCH  16  24
HETATM   24  N4  UNL     1      -8.375  14.462  23.338  1.00  0.00    -0.234 N
ATOM     25  H42 UNL     1      -9.335  14.746  23.536  1.00  0.00     0.174 HD
ATOM     26  H41 UNL     1      -7.727  14.040  24.004  1.00  0.00     0.174 HD
ENDBRANCH  16  24
BRANCH  19  27
HETATM   27  N6  UNL     1      -7.598  12.252  19.607  1.00  0.00    -0.227 N
HETATM   28  C12 UNL     1      -8.778  11.463  19.850  1.00  0.00     0.165 C
ATOM     29  H6  UNL     1      -6.833  11.860  19.058  1.00  0.00     0.177 HD
ENDBRANCH  19  27
BRANCH  21  30
HETATM   30  O2  UNL     1      -6.443  13.925  18.212  1.00  0.00    -0.254 OA
ATOM     31  H2  UNL     1      -7.023  13.299  17.795  1.00  0.00     0.247 HD
ENDBRANCH  21  30
ENDBRANCH  12  14
ENDBRANCH  11  12
ENDBRANCH  10  11
ENDBRANCH   9  10
ENDBRANCH   7   9
ENDBRANCH   4   5
TORSDOF 9
ENDMDL