MODEL 1
REMARK VINA RESULT: -6.752632275      0.000      0.000
REMARK  7 active torsions:
REMARK  status: ('A' for Active; 'I' for Inactive)
REMARK    1  A    between atoms: N2_5  and  C3_6
REMARK    2  A    between atoms: C3_6  and  C4_7
REMARK    3  A    between atoms: C4_7  and  C5_8
REMARK    4  A    between atoms: N4_12  and  C7_14
REMARK    5  A    between atoms: C8_16  and  C9_17
REMARK    6  A    between atoms: C9_17  and  C10_18
REMARK    7  A    between atoms: C11_19  and  O3_20
ROOT
HETATM    1  C1  UNL     1      -9.847  11.946  20.516  1.00  0.00     0.045 C
HETATM    2  C2  UNL     1      -9.161  13.073  20.319  1.00  0.00     0.053 A
HETATM    3  N1  UNL     1      -7.820  13.073  20.122  1.00  0.00    -0.297 N
ATOM      4  H1  UNL     1      -7.220  12.248  20.106  1.00  0.00     0.187 HD
HETATM    5  N2  UNL     1      -7.415  14.342  19.954  1.00  0.00    -0.275 N
HETATM    6  C6  UNL     1      -8.495  15.149  20.043  1.00  0.00     0.137 A
HETATM    7  N4  UNL     1      -8.520  16.411  19.936  1.00  0.00    -0.319 N
ATOM      8  H4  UNL     1      -9.447  16.825  20.038  1.00  0.00     0.169 HD
HETATM    9  C8  UNL     1      -9.632  14.357  20.278  1.00  0.00     0.038 A
ENDROOT
BRANCH   9  10
HETATM   10  C9  UNL     1     -10.878  14.732  20.429  1.00  0.00     0.039 C
BRANCH  10  11
HETATM   11  C10 UNL     1     -11.317  15.742  21.368  1.00  0.00     0.086 A
HETATM   12  C11 UNL     1     -11.356  17.103  21.213  1.00  0.00     0.171 A
HETATM   13  N5  UNL     1     -11.840  17.654  22.356  1.00  0.00    -0.276 N
HETATM   14  N6  UNL     1     -12.106  16.687  23.219  1.00  0.00    -0.264 N
ATOM     15  H5  UNL     1     -11.976  18.651  22.522  1.00  0.00     0.189 HD
HETATM   16  C12 UNL     1     -11.789  15.498  22.629  1.00  0.00     0.274 A
ATOM     17  H6  UNL     1     -12.482  16.809  24.159  1.00  0.00     0.190 HD
HETATM   18  O4  UNL     1     -11.927  14.389  23.193  1.00  0.00    -0.266 OA
BRANCH  12  19
HETATM   19  O3  UNL     1     -10.969  17.808  20.086  1.00  0.00    -0.344 OA
ATOM     20  H3  UNL     1     -11.406  18.570  19.726  1.00  0.00     0.219 HD
ENDBRANCH  12  19
ENDBRANCH  10  11
ENDBRANCH   9  10
BRANCH   5  21
HETATM   21  C3  UNL     1      -6.027  14.642  19.724  1.00  0.00     0.159 C
BRANCH  21  22
HETATM   22  C4  UNL     1      -5.656  14.545  18.258  1.00  0.00     0.121 C
BRANCH  22  23
HETATM   23  C5  UNL     1      -4.295  15.096  18.046  1.00  0.00     0.232 C
HETATM   24  N3  UNL     1      -4.009  16.450  18.411  1.00  0.00    -0.062 NA
HETATM   25  O1  UNL     1      -3.422  14.352  17.545  1.00  0.00    -0.277 OA
ENDBRANCH  22  23
ENDBRANCH  21  22
ENDBRANCH   5  21
BRANCH   7  26
HETATM   26  C7  UNL     1      -7.505  17.328  19.704  1.00  0.00     0.354 C
HETATM   27  O2  UNL     1      -7.155  17.592  18.507  1.00  0.00    -0.283 OA
ENDBRANCH   7  26
TORSDOF 7
ENDMDL