MODEL 1
REMARK VINA RESULT: -5.360905545      0.000      0.000
REMARK  6 active torsions:
REMARK  status: ('A' for Active; 'I' for Inactive)
REMARK       I    between atoms: N1_2  and  C2_4
REMARK    1  A    between atoms: C2_4  and  C3_6
REMARK    2  A    between atoms: C3_6  and  N2_7
REMARK    3  A    between atoms: N2_7  and  C4_9
REMARK    4  A    between atoms: C5_12  and  N4_13
REMARK    5  A    between atoms: N6_19  and  C7_21
REMARK    6  A    between atoms: C7_21  and  C8_22
ROOT
HETATM    1  C4  UNL     1      -8.605  15.006  20.025  1.00  0.00     0.707 A
HETATM    2  N3  UNL     1      -9.548  14.051  19.924  1.00  0.00    -0.022 N
ATOM      3  H3  UNL     1     -10.045  13.917  19.044  1.00  0.00     0.203 HD
HETATM    4  C5  UNL     1      -9.835  13.276  20.980  1.00  0.00     0.705 A
HETATM    5  N5  UNL     1      -9.164  13.465  22.147  1.00  0.00    -0.022 N
ATOM      6  H5  UNL     1      -9.381  12.877  22.951  1.00  0.00     0.203 HD
HETATM    7  C6  UNL     1      -8.225  14.411  22.258  1.00  0.00     0.707 A
HETATM    8  N6  UNL     1      -7.576  14.622  23.339  1.00  0.00    -0.219 N
ATOM      9  H6  UNL     1      -6.868  15.356  23.369  1.00  0.00     0.178 HD
HETATM   10  N8  UNL     1      -7.942  15.195  21.172  1.00  0.00    -0.021 N
ATOM     11  H8  UNL     1      -7.229  15.921  21.237  1.00  0.00     0.203 HD
ENDROOT
BRANCH   8  12
HETATM   12  C7  UNL     1      -7.834  13.835  24.507  1.00  0.00     0.195 C
BRANCH  12  13
HETATM   13  C8  UNL     1      -6.649  13.682  25.390  1.00  0.00     0.027 A
HETATM   14  C9  UNL     1      -5.744  14.708  25.530  1.00  0.00     0.027 A
HETATM   15  C10 UNL     1      -4.615  14.597  26.350  1.00  0.00     0.003 A
HETATM   16  C11 UNL     1      -4.464  13.397  27.010  1.00  0.00     0.017 A
HETATM   17  C12 UNL     1      -5.367  12.376  26.868  1.00  0.00     0.088 A
HETATM   18  N7  UNL     1      -6.434  12.531  26.068  1.00  0.00    -0.368 N
ATOM     19  H7  UNL     1      -7.098  11.763  25.970  1.00  0.00     0.165 HD
ENDBRANCH  12  13
ENDBRANCH   8  12
BRANCH   4  20
HETATM   20  N4  UNL     1     -10.744  12.337  20.924  1.00  0.00    -0.234 N
ATOM     21  H42 UNL     1     -10.445  11.377  20.754  1.00  0.00     0.174 HD
ATOM     22  H41 UNL     1     -11.736  12.537  21.045  1.00  0.00     0.174 HD
ENDBRANCH   4  20
BRANCH   1  23
HETATM   23  N2  UNL     1      -8.398  15.699  18.963  1.00  0.00    -0.216 N
ATOM     24  H2  UNL     1      -9.074  15.589  18.207  1.00  0.00     0.178 HD
BRANCH  23  25
HETATM   25  C3  UNL     1      -7.326  16.606  18.730  1.00  0.00     0.240 C
BRANCH  25  26
HETATM   26  C2  UNL     1      -6.043  15.887  18.789  1.00  0.00     0.235 C
HETATM   27  N1  UNL     1      -5.710  14.976  17.765  1.00  0.00    -0.364 N
HETATM   28  C1  UNL     1      -4.436  14.246  17.802  1.00  0.00     0.149 C
ATOM     29  H1  UNL     1      -6.359  14.823  16.994  1.00  0.00     0.161 HD
HETATM   30  O1  UNL     1      -5.250  16.074  19.734  1.00  0.00    -0.272 OA
ENDBRANCH  25  26
ENDBRANCH  23  25
ENDBRANCH   1  23
TORSDOF 6
ENDMDL