MODEL 5
REMARK VINA RESULT: -7.285159816      1.254      2.542
REMARK  5 active torsions:
REMARK  status: ('A' for Active; 'I' for Inactive)
REMARK    1  A    between atoms: C3_4  and  C4_5
REMARK    2  A    between atoms: C4_5  and  C5_6
REMARK    3  A    between atoms: C5_6  and  O1_7
REMARK    4  A    between atoms: C5_6  and  C6_9
REMARK    5  A    between atoms: C6_9  and  C7_10
ROOT
HETATM    1  C4  UNL     1      -9.772  13.280  19.493  1.00  0.00     0.094 C
ENDROOT
BRANCH   1   2
HETATM    2  C3  UNL     1     -10.153  14.533  20.138  1.00  0.00     0.071 A
HETATM    3  C2  UNL     1     -10.888  14.517  21.266  1.00  0.00     0.137 A
HETATM    4  N1  UNL     1     -11.295  15.684  21.946  1.00  0.00    -0.195 N
HETATM    5  C1  UNL     1     -12.084  15.586  23.156  1.00  0.00     0.175 C
HETATM    6  C11 UNL     1     -10.933  16.982  21.450  1.00  0.00     0.693 A
HETATM    7  N6  UNL     1     -10.166  17.004  20.268  1.00  0.00    -0.111 N
HETATM    8  N7  UNL     1     -11.320  18.032  22.096  1.00  0.00    -0.233 N
HETATM    9  N4  UNL     1      -9.789  15.784  19.632  1.00  0.00    -0.192 N
ATOM     10  H6  UNL     1      -9.878  17.896  19.866  1.00  0.00     0.207 HD
HETATM   11  N5  UNL     1      -9.145  15.913  18.562  1.00  0.00    -0.324 N
ATOM     12  H52 UNL     1      -8.875  15.040  18.107  1.00  0.00     0.178 HD
ATOM     13  H51 UNL     1      -8.879  16.825  18.192  1.00  0.00     0.178 HD
ATOM     14  H72 UNL     1     -11.875  18.016  22.951  1.00  0.00     0.174 HD
ATOM     15  H71 UNL     1     -11.064  18.954  21.744  1.00  0.00     0.174 HD
ENDBRANCH   1   2
BRANCH   1  16
HETATM   16  C5  UNL     1      -8.874  12.376  20.294  1.00  0.00     0.129 C
BRANCH  16  17
HETATM   17  O1  UNL     1      -9.504  11.104  20.264  1.00  0.00    -0.395 OA
ATOM     18  H1  UNL     1      -9.837  10.970  21.143  1.00  0.00     0.210 HD
ENDBRANCH  16  17
BRANCH  16  19
HETATM   19  C6  UNL     1      -7.579  12.230  19.483  1.00  0.00     0.089 C
BRANCH  19  20
HETATM   20  C7  UNL     1      -6.799  13.488  19.508  1.00  0.00     0.021 A
HETATM   21  C8  UNL     1      -5.901  13.747  18.495  1.00  0.00     0.099 A
HETATM   22  C9  UNL     1      -5.147  14.918  18.479  1.00  0.00     0.251 A
HETATM   23  O2  UNL     1      -4.323  15.181  17.570  1.00  0.00    -0.268 OA
HETATM   24  N2  UNL     1      -5.297  15.812  19.470  1.00  0.00    -0.275 N
HETATM   25  C10 UNL     1      -6.172  15.555  20.453  1.00  0.00     0.327 A
ATOM     26  H2  UNL     1      -4.753  16.675  19.476  1.00  0.00     0.173 HD
HETATM   27  O3  UNL     1      -6.277  16.425  21.360  1.00  0.00    -0.247 OA
HETATM   28  N3  UNL     1      -6.905  14.421  20.471  1.00  0.00    -0.312 N
ATOM     29  H3  UNL     1      -7.559  14.266  21.238  1.00  0.00     0.170 HD
ENDBRANCH  19  20
ENDBRANCH  16  19
ENDBRANCH   1  16
TORSDOF 5
ENDMDL