MODEL 2
REMARK VINA RESULT: -8.139832674      1.681      3.232
REMARK  4 active torsions:
REMARK  status: ('A' for Active; 'I' for Inactive)
REMARK    1  A    between atoms: N3_10  and  S1_12
REMARK    2  A    between atoms: S1_12  and  N4_15
REMARK    3  A    between atoms: N4_15  and  C4_17
REMARK    4  A    between atoms: C4_17  and  C5_18
ROOT
HETATM    1  S1  UNL     1      -8.354  16.923  20.544  1.00  0.00     0.320 S
HETATM    2  O3  UNL     1      -8.558  18.333  21.036  1.00  0.00    -0.182 OA
HETATM    3  O4  UNL     1      -8.287  16.035  21.773  1.00  0.00    -0.182 OA
ENDROOT
BRANCH   1   4
HETATM    4  N3  UNL     1      -6.964  16.765  19.655  1.00  0.00    -0.248 N
HETATM    5  C3  UNL     1      -6.428  15.739  19.174  1.00  0.00     0.191 A
HETATM    6  C2  UNL     1      -6.840  14.437  19.243  1.00  0.00     0.304 A
HETATM    7  N8  UNL     1      -5.250  15.926  18.465  1.00  0.00    -0.288 N
HETATM    8  N2  UNL     1      -6.146  13.414  18.663  1.00  0.00    -0.259 N
HETATM    9  O2  UNL     1      -7.905  14.170  19.870  1.00  0.00    -0.263 OA
HETATM   10  N1  UNL     1      -5.037  13.632  18.001  1.00  0.00    -0.248 N
ATOM     11  H2  UNL     1      -6.499  12.460  18.746  1.00  0.00     0.190 HD
HETATM   12  C1  UNL     1      -4.605  14.900  17.914  1.00  0.00     0.340 A
ATOM     13  H1  UNL     1      -4.521  12.866  17.569  1.00  0.00     0.192 HD
HETATM   14  O1  UNL     1      -3.526  15.070  17.265  1.00  0.00    -0.245 OA
ATOM     15  H8  UNL     1      -4.870  16.866  18.363  1.00  0.00     0.172 HD
ATOM     16  H3  UNL     1      -6.469  17.638  19.471  1.00  0.00     0.182 HD
ENDBRANCH   1   4
BRANCH   1  17
HETATM   17  N4  UNL     1      -9.778  16.405  19.704  1.00  0.00    -0.297 N
ATOM     18  H4  UNL     1      -9.881  16.431  18.689  1.00  0.00     0.174 HD
BRANCH  17  19
HETATM   19  C4  UNL     1     -10.801  15.931  20.603  1.00  0.00     0.193 C
BRANCH  19  20
HETATM   20  C5  UNL     1     -10.755  14.457  20.634  1.00  0.00     0.062 A
HETATM   21  C6  UNL     1     -10.890  13.629  21.736  1.00  0.00     0.136 A
HETATM   22  N5  UNL     1     -10.787  12.346  21.332  1.00  0.00    -0.296 N
HETATM   23  N6  UNL     1     -10.596  12.402  20.032  1.00  0.00    -0.243 N
ATOM     24  H5  UNL     1     -10.844  11.508  21.912  1.00  0.00     0.187 HD
HETATM   25  N7  UNL     1     -10.572  13.625  19.589  1.00  0.00    -0.287 N
ATOM     26  H6  UNL     1     -10.480  11.581  19.439  1.00  0.00     0.208 HD
ATOM     27  H7  UNL     1     -10.438  13.906  18.618  1.00  0.00     0.188 HD
ENDBRANCH  19  20
ENDBRANCH  17  19
ENDBRANCH   1  17
TORSDOF 4
ENDMDL