MODEL 2
REMARK VINA RESULT: -7.897003715      1.550      1.924
REMARK  6 active torsions:
REMARK  status: ('A' for Active; 'I' for Inactive)
REMARK    1  A    between atoms: N1_3  and  S1_5
REMARK    2  A    between atoms: S1_5  and  C3_8
REMARK    3  A    between atoms: C3_8  and  C4_9
REMARK    4  A    between atoms: C5_12  and  N3_13
REMARK    5  A    between atoms: C7_19  and  C8_20
REMARK    6  A    between atoms: N5_21  and  N6_23
ROOT
HETATM    1  C1  UNL     1      -7.084  18.986  20.737  1.00  0.00     0.124 C
HETATM    2  C2  UNL     1      -8.267  18.683  20.734  1.00  0.00    -0.065 C
HETATM    3  N1  UNL     1      -9.625  18.353  20.716  1.00  0.00    -0.253 N
ATOM      4  H1  UNL     1     -10.316  19.103  20.722  1.00  0.00     0.188 HD
ENDROOT
BRANCH   3   5
HETATM    5  S1  UNL     1     -10.167  16.716  20.684  1.00  0.00     0.242 S
HETATM    6  O1  UNL     1     -11.267  16.509  21.716  1.00  0.00    -0.205 OA
HETATM    7  O2  UNL     1     -10.611  16.320  19.329  1.00  0.00    -0.205 OA
BRANCH   5   8
HETATM    8  C3  UNL     1      -8.798  15.706  21.225  1.00  0.00     0.222 C
BRANCH   8   9
HETATM    9  C4  UNL     1      -9.130  14.269  21.069  1.00  0.00     0.055 A
HETATM   10  N2  UNL     1     -10.292  13.792  21.587  1.00  0.00    -0.194 N
HETATM   11  C5  UNL     1     -10.661  12.508  21.477  1.00  0.00     0.675 A
ATOM     12  H2  UNL     1     -10.909  14.437  22.080  1.00  0.00     0.184 HD
HETATM   13  N4  UNL     1      -9.855  11.646  20.830  1.00  0.00    -0.201 N
HETATM   14  C6  UNL     1      -8.719  12.095  20.319  1.00  0.00     0.121 A
ATOM     15  H4  UNL     1     -10.116  10.664  20.734  1.00  0.00     0.183 HD
HETATM   16  C7  UNL     1      -8.285  13.424  20.405  1.00  0.00     0.021 A
BRANCH  11  17
HETATM   17  N3  UNL     1     -11.783  12.073  21.984  1.00  0.00    -0.234 N
ATOM     18  H32 UNL     1     -12.125  12.478  22.855  1.00  0.00     0.174 HD
ATOM     19  H31 UNL     1     -12.326  11.339  21.528  1.00  0.00     0.174 HD
ENDBRANCH  11  17
BRANCH  16  20
HETATM   20  C8  UNL     1      -7.020  13.836  19.824  1.00  0.00     0.122 C
HETATM   21  N5  UNL     1      -6.554  13.508  18.696  1.00  0.00    -0.309 N
ATOM     22  H5  UNL     1      -7.098  12.885  18.099  1.00  0.00     0.186 HD
BRANCH  21  23
HETATM   23  N6  UNL     1      -5.328  13.968  18.247  1.00  0.00    -0.276 N
HETATM   24  C9  UNL     1      -4.930  15.182  18.283  1.00  0.00     0.215 C
HETATM   25  N7  UNL     1      -5.773  16.192  18.818  1.00  0.00    -0.065 NA
HETATM   26  N8  UNL     1      -3.645  15.481  17.782  1.00  0.00    -0.065 NA
ATOM     27  H6  UNL     1      -4.687  13.279  17.854  1.00  0.00     0.189 HD
ENDBRANCH  21  23
ENDBRANCH  16  20
ENDBRANCH   8   9
ENDBRANCH   5   8
ENDBRANCH   3   5
TORSDOF 6
ENDMDL