MODEL 1
REMARK VINA RESULT: -7.490858582      0.000      0.000
REMARK  8 active torsions:
REMARK  status: ('A' for Active; 'I' for Inactive)
REMARK    1  A    between atoms: N1_2  and  C2_4
REMARK    2  A    between atoms: C3_7  and  N3_8
REMARK    3  A    between atoms: N3_8  and  N4_10
REMARK    4  A    between atoms: C4_15  and  N6_16
REMARK    5  A    between atoms: N6_16  and  C5_18
REMARK    6  A    between atoms: C5_18  and  C6_19
REMARK    7  A    between atoms: C6_19  and  N7_20
REMARK    8  A    between atoms: C9_26  and  O1_27
ROOT
HETATM    1  C2  UNL     1      -5.924  14.005  18.647  1.00  0.00     0.706 A
HETATM    2  N2  UNL     1      -6.630  12.862  18.789  1.00  0.00    -0.020 N
ATOM      3  H2  UNL     1      -6.534  12.113  18.104  1.00  0.00     0.203 HD
HETATM    4  C3  UNL     1      -7.456  12.718  19.832  1.00  0.00     0.725 A
HETATM    5  N5  UNL     1      -7.588  13.694  20.735  1.00  0.00    -0.020 N
ATOM      6  H5  UNL     1      -8.223  13.562  21.522  1.00  0.00     0.203 HD
HETATM    7  C4  UNL     1      -6.901  14.849  20.629  1.00  0.00     0.707 A
HETATM    8  N9  UNL     1      -6.064  14.984  19.564  1.00  0.00    -0.022 N
ATOM      9  H9  UNL     1      -5.530  15.846  19.456  1.00  0.00     0.203 HD
ENDROOT
BRANCH   7  10
HETATM   10  N6  UNL     1      -6.975  15.829  21.430  1.00  0.00    -0.220 N
ATOM     11  H6  UNL     1      -6.937  15.585  22.420  1.00  0.00     0.178 HD
BRANCH  10  12
HETATM   12  C5  UNL     1      -7.105  17.222  21.151  1.00  0.00     0.182 C
BRANCH  12  13
HETATM   13  C6  UNL     1      -8.359  17.513  20.384  1.00  0.00     0.078 C
BRANCH  13  14
HETATM   14  N7  UNL     1      -9.521  16.829  20.739  1.00  0.00    -0.386 N
HETATM   15  C7  UNL     1     -10.575  17.530  21.381  1.00  0.00     0.149 C
HETATM   16  C8  UNL     1     -11.545  16.617  22.095  1.00  0.00     0.255 C
HETATM   17  N8  UNL     1     -11.030  15.266  21.995  1.00  0.00    -0.046 N
HETATM   18  C9  UNL     1     -11.010  14.935  20.559  1.00  0.00     0.338 C
ATOM     19  H82 UNL     1     -10.127  15.142  22.452  1.00  0.00     0.280 HD
ATOM     20  H81 UNL     1     -11.549  14.592  22.559  1.00  0.00     0.280 HD
HETATM   21  C11 UNL     1      -9.940  15.782  19.870  1.00  0.00     0.183 C
BRANCH  18  22
HETATM   22  O1  UNL     1     -10.769  13.593  20.368  1.00  0.00    -0.363 OA
HETATM   23  C10 UNL     1     -11.014  12.869  21.557  1.00  0.00     0.204 C
ENDBRANCH  18  22
ENDBRANCH  13  14
ENDBRANCH  12  13
ENDBRANCH  10  12
ENDBRANCH   7  10
BRANCH   4  24
HETATM   24  N3  UNL     1      -8.131  11.636  19.983  1.00  0.00    -0.138 N
ATOM     25  H3  UNL     1      -7.948  11.024  20.778  1.00  0.00     0.205 HD
BRANCH  24  26
HETATM   26  N4  UNL     1      -9.117  11.302  19.056  1.00  0.00    -0.331 N
ATOM     27  H42 UNL     1      -9.065  10.402  18.578  1.00  0.00     0.177 HD
ATOM     28  H41 UNL     1      -9.875  11.957  18.866  1.00  0.00     0.177 HD
ENDBRANCH  24  26
ENDBRANCH   4  24
BRANCH   1  29
HETATM   29  N1  UNL     1      -5.133  14.181  17.656  1.00  0.00    -0.229 N
HETATM   30  C1  UNL     1      -3.881  14.879  17.809  1.00  0.00     0.165 C
ATOM     31  H1  UNL     1      -5.394  13.819  16.739  1.00  0.00     0.177 HD
ENDBRANCH   1  29
TORSDOF 8
ENDMDL