MODEL 3
REMARK VINA RESULT: -8.142229542      0.940      1.157
REMARK  5 active torsions:
REMARK  status: ('A' for Active; 'I' for Inactive)
REMARK    1  A    between atoms: N3_4  and  N4_6
REMARK    2  A    between atoms: N4_6  and  S1_8
REMARK    3  A    between atoms: S1_8  and  C2_11
REMARK    4  A    between atoms: C6_15  and  S2_16
REMARK    5  A    between atoms: S2_16  and  N5_17
ROOT
HETATM    1  C2  UNL     1      -8.568  16.277  20.163  1.00  0.00     0.082 A
HETATM    2  C3  UNL     1      -9.571  17.035  20.733  1.00  0.00     0.025 A
HETATM    3  C4  UNL     1     -10.733  16.456  21.199  1.00  0.00     0.003 A
HETATM    4  C5  UNL     1     -10.869  15.105  21.083  1.00  0.00     0.025 A
HETATM    5  C6  UNL     1      -9.909  14.289  20.526  1.00  0.00     0.080 A
HETATM    6  C7  UNL     1      -8.742  14.896  20.062  1.00  0.00     0.050 A
ENDROOT
BRANCH   1   7
HETATM    7  S1  UNL     1      -7.081  16.996  19.564  1.00  0.00     0.276 S
HETATM    8  O1  UNL     1      -7.171  17.116  18.073  1.00  0.00    -0.199 OA
HETATM    9  O2  UNL     1      -7.012  18.383  20.138  1.00  0.00    -0.199 OA
BRANCH   7  10
HETATM   10  N4  UNL     1      -5.702  16.087  19.984  1.00  0.00    -0.221 N
ATOM     11  H4  UNL     1      -5.582  15.755  20.941  1.00  0.00     0.200 HD
BRANCH  10  12
HETATM   12  N3  UNL     1      -4.739  15.798  19.021  1.00  0.00    -0.266 N
HETATM   13  C1  UNL     1      -4.761  14.751  18.272  1.00  0.00     0.216 C
HETATM   14  N1  UNL     1      -3.714  14.581  17.331  1.00  0.00    -0.065 NA
HETATM   15  N2  UNL     1      -5.828  13.832  18.433  1.00  0.00    -0.065 NA
ATOM     16  H3  UNL     1      -3.969  16.456  18.901  1.00  0.00     0.190 HD
ENDBRANCH  10  12
ENDBRANCH   7  10
ENDBRANCH   1   7
BRANCH   5  17
HETATM   17  S2  UNL     1     -10.114  12.571  20.393  1.00  0.00     0.256 S
HETATM   18  O3  UNL     1      -8.799  11.851  20.571  1.00  0.00    -0.201 OA
HETATM   19  O4  UNL     1     -11.045  12.086  21.458  1.00  0.00    -0.201 OA
BRANCH  17  20
HETATM   20  N5  UNL     1     -10.683  12.193  18.811  1.00  0.00    -0.324 N
ATOM     21  H52 UNL     1     -10.912  12.884  18.096  1.00  0.00     0.169 HD
ATOM     22  H51 UNL     1     -10.751  11.180  18.714  1.00  0.00     0.169 HD
ENDBRANCH  17  20
ENDBRANCH   5  17
TORSDOF 5
ENDMDL