MODEL 2
REMARK VINA RESULT: -7.126543034      1.153      2.220
REMARK  6 active torsions:
REMARK  status: ('A' for Active; 'I' for Inactive)
REMARK    1  A    between atoms: N3_6  and  C3_8
REMARK    2  A    between atoms: C3_8  and  C4_9
REMARK    3  A    between atoms: C4_9  and  C5_10
REMARK    4  A    between atoms: C5_10  and  N4_11
REMARK    5  A    between atoms: N4_11  and  C6_13
REMARK    6  A    between atoms: C10_22  and  N7_23
ROOT
HETATM    1  C1  UNL     1      -4.493  14.065  17.368  1.00  0.00     0.183 C
HETATM    2  N1  UNL     1      -5.303  14.363  18.531  1.00  0.00    -0.245 N
HETATM    3  N2  UNL     1      -6.239  13.541  18.994  1.00  0.00    -0.277 N
ATOM      4  H2  UNL     1      -6.399  12.657  18.511  1.00  0.00     0.189 HD
HETATM    5  C2  UNL     1      -6.980  13.830  20.072  1.00  0.00     0.160 A
HETATM    6  N3  UNL     1      -7.879  13.056  20.527  1.00  0.00    -0.372 N
ATOM      7  H3  UNL     1      -8.396  13.354  21.354  1.00  0.00     0.161 HD
HETATM    8  C10 UNL     1      -6.770  15.022  20.730  1.00  0.00     0.149 A
HETATM    9  N8  UNL     1      -5.832  15.853  20.271  1.00  0.00    -0.290 N
ATOM     10  H8  UNL     1      -5.662  16.740  20.744  1.00  0.00     0.172 HD
HETATM   11  C11 UNL     1      -5.112  15.523  19.188  1.00  0.00     0.342 A
HETATM   12  O2  UNL     1      -4.222  16.318  18.759  1.00  0.00    -0.245 OA
ENDROOT
BRANCH   6  13
HETATM   13  C3  UNL     1      -8.211  11.772  19.941  1.00  0.00     0.123 C
BRANCH  13  14
HETATM   14  C4  UNL     1      -9.700  11.819  19.594  1.00  0.00     0.039 C
BRANCH  14  15
HETATM   15  C5  UNL     1     -10.373  12.467  20.814  1.00  0.00     0.123 C
BRANCH  15  16
HETATM   16  N4  UNL     1     -11.148  13.559  20.328  1.00  0.00    -0.375 N
ATOM     17  H4  UNL     1     -12.005  13.341  19.819  1.00  0.00     0.161 HD
BRANCH  16  18
HETATM   18  C6  UNL     1     -10.847  14.807  20.484  1.00  0.00     0.115 A
HETATM   19  C7  UNL     1     -11.251  15.458  21.632  1.00  0.00     0.055 A
HETATM   20  C8  UNL     1     -10.977  16.782  21.888  1.00  0.00     0.079 A
HETATM   21  C9  UNL     1     -10.253  17.459  20.908  1.00  0.00     0.259 A
HETATM   22  O1  UNL     1      -9.991  18.673  21.121  1.00  0.00    -0.267 OA
HETATM   23  N5  UNL     1      -9.865  16.812  19.793  1.00  0.00    -0.265 N
HETATM   24  N6  UNL     1     -10.151  15.522  19.582  1.00  0.00    -0.283 N
ATOM     25  H5  UNL     1      -9.336  17.321  19.086  1.00  0.00     0.190 HD
ATOM     26  H6  UNL     1      -9.836  15.073  18.722  1.00  0.00     0.188 HD
ENDBRANCH  16  18
ENDBRANCH  15  16
ENDBRANCH  14  15
ENDBRANCH  13  14
ENDBRANCH   6  13
BRANCH   8  27
HETATM   27  N7  UNL     1      -7.464  15.330  21.766  1.00  0.00    -0.382 N
ATOM     28  H72 UNL     1      -8.477  15.216  21.764  1.00  0.00     0.157 HD
ATOM     29  H71 UNL     1      -7.012  15.692  22.606  1.00  0.00     0.157 HD
ENDBRANCH   8  27
TORSDOF 6
ENDMDL