MODEL 5
REMARK VINA RESULT: -6.389202028      3.042      3.980
REMARK  6 active torsions:
REMARK  status: ('A' for Active; 'I' for Inactive)
REMARK       I    between atoms: C1_4  and  N3_6
REMARK    1  A    between atoms: N3_6  and  C2_8
REMARK    2  A    between atoms: C3_11  and  S1_12
REMARK    3  A    between atoms: C4_18  and  N6_19
REMARK    4  A    between atoms: N6_19  and  C5_21
REMARK    5  A    between atoms: C5_21  and  C6_22
REMARK    6  A    between atoms: C6_22  and  N7_23
ROOT
HETATM    1  C2  UNL     1      -6.021  14.162  18.766  1.00  0.00     0.701 A
HETATM    2  N4  UNL     1      -6.244  15.433  19.140  1.00  0.00    -0.162 N
ATOM      3  H4  UNL     1      -5.714  16.187  18.702  1.00  0.00     0.186 HD
HETATM    4  C3  UNL     1      -7.164  15.724  20.093  1.00  0.00     0.254 A
HETATM    5  N5  UNL     1      -7.824  14.685  20.628  1.00  0.00    -0.162 N
ATOM      6  H5  UNL     1      -8.521  14.884  21.347  1.00  0.00     0.186 HD
HETATM    7  C4  UNL     1      -7.633  13.401  20.284  1.00  0.00     0.694 A
HETATM    8  N9  UNL     1      -6.699  13.143  19.322  1.00  0.00    -0.022 N
ATOM      9  H9  UNL     1      -6.518  12.183  19.027  1.00  0.00     0.203 HD
ENDROOT
BRANCH   7  10
HETATM   10  N6  UNL     1      -8.291  12.430  20.826  1.00  0.00    -0.224 N
ATOM     11  H6  UNL     1      -8.191  12.216  21.818  1.00  0.00     0.177 HD
BRANCH  10  12
HETATM   12  C5  UNL     1      -9.167  11.666  19.989  1.00  0.00     0.157 C
BRANCH  12  13
HETATM   13  C6  UNL     1     -10.393  12.446  19.560  1.00  0.00     0.140 C
BRANCH  13  14
HETATM   14  N7  UNL     1     -11.089  13.026  20.682  1.00  0.00    -0.386 N
HETATM   15  C7  UNL     1     -11.250  14.288  20.757  1.00  0.00     0.185 C
HETATM   16  N8  UNL     1     -10.753  15.139  19.747  1.00  0.00    -0.097 NA
ATOM     17  H7  UNL     1     -11.455  12.423  21.420  1.00  0.00     0.159 HD
ENDBRANCH  13  14
ENDBRANCH  12  13
ENDBRANCH  10  12
ENDBRANCH   7  10
BRANCH   4  18
HETATM   18  S1  UNL     1      -7.473  17.371  20.598  1.00  0.00     0.173 S
HETATM   19  O1  UNL     1      -7.150  18.269  19.451  1.00  0.00    -0.589 OA
HETATM   20  O2  UNL     1      -6.630  17.756  21.778  1.00  0.00    -0.589 OA
HETATM   21  O3  UNL     1      -9.101  17.462  21.023  1.00  0.00    -0.589 OA
ENDBRANCH   4  18
BRANCH   1  22
HETATM   22  N3  UNL     1      -5.140  13.924  17.858  1.00  0.00    -0.163 N
HETATM   23  C1  UNL     1      -3.890  14.583  17.823  1.00  0.00     0.200 C
HETATM   24  N1  UNL     1      -2.854  13.988  17.347  1.00  0.00    -0.373 N
HETATM   25  N2  UNL     1      -3.741  15.906  18.306  1.00  0.00    -0.063 NA
ATOM     26  H12 UNL     1      -1.952  14.464  17.323  1.00  0.00     0.158 HD
ATOM     27  H11 UNL     1      -2.961  13.035  17.000  1.00  0.00     0.158 HD
ATOM     28  H3  UNL     1      -5.350  13.233  17.137  1.00  0.00     0.187 HD
ENDBRANCH   1  22
TORSDOF 6
ENDMDL