MODEL 4
REMARK VINA RESULT: -6.809373301      1.823      4.880
REMARK  9 active torsions:
REMARK  status: ('A' for Active; 'I' for Inactive)
REMARK    1  A    between atoms: N1_2  and  N2_3
REMARK       I    between atoms: N1_2  and  C9_26
REMARK    2  A    between atoms: N2_3  and  C2_5
REMARK    3  A    between atoms: C3_8  and  N4_9
REMARK    4  A    between atoms: N4_9  and  C4_11
REMARK    5  A    between atoms: C4_11  and  C5_12
REMARK    6  A    between atoms: C5_12  and  C6_13
REMARK    7  A    between atoms: C6_13  and  N5_14
REMARK    8  A    between atoms: N5_14  and  C7_16
REMARK    9  A    between atoms: C8_20  and  N7_21
ROOT
HETATM    1  C2  UNL     1      -6.852  15.305  19.926  1.00  0.00     0.726 A
HETATM    2  N3  UNL     1      -7.329  14.051  19.837  1.00  0.00    -0.020 N
ATOM      3  H3  UNL     1      -8.128  13.787  20.412  1.00  0.00     0.203 HD
HETATM    4  C3  UNL     1      -6.782  13.120  19.005  1.00  0.00     0.707 A
HETATM    5  N6  UNL     1      -5.725  13.532  18.267  1.00  0.00    -0.022 N
ATOM      6  H6  UNL     1      -5.291  12.861  17.633  1.00  0.00     0.203 HD
HETATM    7  C8  UNL     1      -5.218  14.763  18.321  1.00  0.00     0.705 A
HETATM    8  N8  UNL     1      -5.798  15.639  19.159  1.00  0.00    -0.020 N
ATOM      9  H8  UNL     1      -5.427  16.587  19.217  1.00  0.00     0.203 HD
ENDROOT
BRANCH   1  10
HETATM   10  N2  UNL     1      -7.387  16.178  20.724  1.00  0.00    -0.127 N
ATOM     11  H2  UNL     1      -6.952  16.349  21.632  1.00  0.00     0.206 HD
BRANCH  10  12
HETATM   12  N1  UNL     1      -8.537  16.891  20.381  1.00  0.00    -0.255 N
HETATM   13  C1  UNL     1      -9.557  16.269  19.538  1.00  0.00     0.181 C
HETATM   14  C9  UNL     1      -8.790  18.218  20.807  1.00  0.00     0.203 C
HETATM   15  N9  UNL     1      -7.817  19.058  20.808  1.00  0.00    -0.372 N
HETATM   16  N10 UNL     1     -10.057  18.683  21.235  1.00  0.00    -0.062 NA
ATOM     17  H92 UNL     1      -6.904  18.723  20.499  1.00  0.00     0.158 HD
ATOM     18  H91 UNL     1      -7.999  20.014  21.115  1.00  0.00     0.158 HD
ENDBRANCH  10  12
ENDBRANCH   1  10
BRANCH   4  19
HETATM   19  N4  UNL     1      -7.241  11.926  18.924  1.00  0.00    -0.225 N
ATOM     20  H4  UNL     1      -6.899  11.285  18.207  1.00  0.00     0.177 HD
BRANCH  19  21
HETATM   21  C4  UNL     1      -8.242  11.507  19.857  1.00  0.00     0.139 C
BRANCH  21  22
HETATM   22  C5  UNL     1      -9.621  11.433  19.237  1.00  0.00     0.040 C
BRANCH  22  23
HETATM   23  C6  UNL     1     -10.487  12.585  19.690  1.00  0.00     0.121 C
BRANCH  23  24
HETATM   24  N5  UNL     1     -10.454  12.669  21.130  1.00  0.00    -0.390 N
ATOM     25  H5  UNL     1     -10.077  11.881  21.658  1.00  0.00     0.159 HD
BRANCH  24  26
HETATM   26  C7  UNL     1     -10.875  13.687  21.768  1.00  0.00     0.165 C
HETATM   27  S1  UNL     1     -11.342  15.163  22.266  1.00  0.00    -0.075 SA
ENDBRANCH  24  26
ENDBRANCH  23  24
ENDBRANCH  22  23
ENDBRANCH  21  22
ENDBRANCH  19  21
ENDBRANCH   4  19
BRANCH   7  28
HETATM   28  N7  UNL     1      -4.211  15.097  17.595  1.00  0.00    -0.234 N
ATOM     29  H72 UNL     1      -4.323  15.335  16.609  1.00  0.00     0.174 HD
ATOM     30  H71 UNL     1      -3.270  15.134  17.987  1.00  0.00     0.174 HD
ENDBRANCH   7  28
TORSDOF 9
ENDMDL