MODEL 3
REMARK VINA RESULT: -7.220924377      2.125      4.688
REMARK  6 active torsions:
REMARK  status: ('A' for Active; 'I' for Inactive)
REMARK    1  A    between atoms: N2_5  and  C4_6
REMARK    2  A    between atoms: C4_6  and  C5_7
REMARK    3  A    between atoms: C6_10  and  N4_11
REMARK    4  A    between atoms: N4_11  and  C7_13
REMARK    5  A    between atoms: C7_13  and  C8_14
REMARK    6  A    between atoms: C8_14  and  O1_15
ROOT
HETATM    1  C5  UNL     1      -9.231  14.129  20.676  1.00  0.00     0.112 C
HETATM    2  N3  UNL     1      -9.050  15.475  20.496  1.00  0.00    -0.188 N
ATOM      3  H3  UNL     1      -8.186  15.754  20.032  1.00  0.00     0.184 HD
HETATM    4  C6  UNL     1      -9.891  16.488  20.865  1.00  0.00     0.682 C
HETATM    5  N5  UNL     1     -10.862  16.391  21.803  1.00  0.00    -0.141 N
ATOM      6  H5  UNL     1     -11.197  17.282  22.166  1.00  0.00     0.189 HD
HETATM    7  C9  UNL     1     -11.457  15.301  22.334  1.00  0.00     0.341 C
HETATM    8  O2  UNL     1     -12.200  15.430  23.340  1.00  0.00    -0.246 OA
HETATM    9  N6  UNL     1     -11.340  14.017  21.886  1.00  0.00    -0.273 N
ATOM     10  H6  UNL     1     -12.040  13.357  22.224  1.00  0.00     0.173 HD
HETATM   11  C10 UNL     1     -10.407  13.516  21.049  1.00  0.00     0.274 C
HETATM   12  O3  UNL     1     -10.658  12.379  20.574  1.00  0.00    -0.266 OA
ENDROOT
BRANCH   1  13
HETATM   13  C4  UNL     1      -8.091  13.229  20.469  1.00  0.00     0.191 C
BRANCH  13  14
HETATM   14  N2  UNL     1      -6.960  13.898  19.804  1.00  0.00    -0.361 N
HETATM   15  C3  UNL     1      -6.373  13.425  18.710  1.00  0.00     0.092 A
HETATM   16  C2  UNL     1      -5.319  14.065  18.117  1.00  0.00     0.043 A
HETATM   17  C1  UNL     1      -4.834  15.236  18.646  1.00  0.00     0.049 A
HETATM   18  N1  UNL     1      -3.724  15.903  18.019  1.00  0.00    -0.102 NA
HETATM   19  C12 UNL     1      -5.430  15.745  19.781  1.00  0.00     0.043 A
HETATM   20  C11 UNL     1      -6.485  15.051  20.327  1.00  0.00     0.092 A
ENDBRANCH  13  14
ENDBRANCH   1  13
BRANCH   4  21
HETATM   21  N4  UNL     1      -9.774  17.621  20.307  1.00  0.00    -0.224 N
ATOM     22  H4  UNL     1     -10.251  17.737  19.413  1.00  0.00     0.177 HD
BRANCH  21  23
HETATM   23  C7  UNL     1      -9.051  18.748  20.789  1.00  0.00     0.164 C
BRANCH  23  24
HETATM   24  C8  UNL     1      -7.562  18.612  20.662  1.00  0.00     0.184 C
BRANCH  24  25
HETATM   25  O1  UNL     1      -6.909  19.831  20.522  1.00  0.00    -0.399 OA
ATOM     26  H1  UNL     1      -6.224  19.967  21.167  1.00  0.00     0.209 HD
ENDBRANCH  24  25
ENDBRANCH  23  24
ENDBRANCH  21  23
ENDBRANCH   4  21
TORSDOF 6
ENDMDL