MODEL 2
REMARK VINA RESULT: -6.351515925      1.558      2.387
REMARK  5 active torsions:
REMARK  status: ('A' for Active; 'I' for Inactive)
REMARK    1  A    between atoms: N2_8  and  N3_10
REMARK    2  A    between atoms: N3_10  and  N4_12
REMARK    3  A    between atoms: C5_17  and  C6_18
REMARK    4  A    between atoms: C6_18  and  C7_19
REMARK    5  A    between atoms: C7_19  and  C8_20
ROOT
HETATM    1  C1  UNL     1     -10.397  17.696  21.340  1.00  0.00     0.070 C
HETATM    2  C2  UNL     1      -9.474  16.658  20.803  1.00  0.00     0.031 A
HETATM    3  N1  UNL     1      -8.469  17.013  19.960  1.00  0.00    -0.323 N
ATOM      4  H1  UNL     1      -8.355  17.996  19.711  1.00  0.00     0.169 HD
HETATM    5  C3  UNL     1      -7.623  16.109  19.446  1.00  0.00     0.291 A
HETATM    6  O1  UNL     1      -6.682  16.393  18.664  1.00  0.00    -0.264 OA
HETATM    7  C4  UNL     1      -7.779  14.783  19.784  1.00  0.00     0.191 A
HETATM    8  N2  UNL     1      -7.004  13.868  19.326  1.00  0.00    -0.267 N
ATOM      9  H2  UNL     1      -6.242  14.106  18.691  1.00  0.00     0.190 HD
HETATM   10  N5  UNL     1      -8.772  14.433  20.617  1.00  0.00    -0.339 N
ATOM     11  H5  UNL     1      -8.883  13.450  20.865  1.00  0.00     0.167 HD
HETATM   12  C5  UNL     1      -9.630  15.339  21.140  1.00  0.00     0.033 A
ENDROOT
BRANCH  12  13
HETATM   13  C6  UNL     1     -10.686  14.848  22.058  1.00  0.00     0.065 C
BRANCH  13  14
HETATM   14  C7  UNL     1     -11.391  13.655  21.444  1.00  0.00     0.063 C
BRANCH  14  15
HETATM   15  C8  UNL     1     -12.184  12.918  22.461  1.00  0.00     0.011 A
HETATM   16  C9  UNL     1     -12.936  13.589  23.424  1.00  0.00     0.042 A
HETATM   17  C10 UNL     1     -13.670  12.901  24.366  1.00  0.00     0.093 A
HETATM   18  N6  UNL     1     -13.645  11.557  24.334  1.00  0.00    -0.357 N
HETATM   19  C11 UNL     1     -14.401  10.789  25.302  1.00  0.00     0.156 C
HETATM   20  C12 UNL     1     -12.927  10.877  23.416  1.00  0.00     0.182 A
HETATM   21  N7  UNL     1     -12.217  11.576  22.505  1.00  0.00    -0.356 N
ATOM     22  H7  UNL     1     -11.676  11.057  21.813  1.00  0.00     0.166 HD
ENDBRANCH  14  15
ENDBRANCH  13  14
ENDBRANCH  12  13
BRANCH   8  23
HETATM   23  N3  UNL     1      -7.217  12.550  19.706  1.00  0.00    -0.248 N
ATOM     24  H3  UNL     1      -6.690  12.148  20.482  1.00  0.00     0.207 HD
BRANCH  23  25
HETATM   25  N4  UNL     1      -8.163  11.774  19.016  1.00  0.00    -0.331 N
ATOM     26  H42 UNL     1      -8.557  12.128  18.144  1.00  0.00     0.178 HD
ATOM     27  H41 UNL     1      -8.443  10.869  19.394  1.00  0.00     0.178 HD
ENDBRANCH  23  25
ENDBRANCH   8  23
TORSDOF 5
ENDMDL