MODEL 3
REMARK VINA RESULT: -7.104343013      1.826      4.774
REMARK  7 active torsions:
REMARK  status: ('A' for Active; 'I' for Inactive)
REMARK    1  A    between atoms: N1_1  and  C1_5
REMARK    2  A    between atoms: C1_5  and  C2_6
REMARK    3  A    between atoms: C2_6  and  C3_7
REMARK    4  A    between atoms: C3_7  and  N2_8
REMARK    5  A    between atoms: N2_8  and  C4_10
REMARK    6  A    between atoms: C10_24  and  C11_25
REMARK    7  A    between atoms: N6_26  and  O3_28
ROOT
HETATM    1  C4  UNL     1      -8.507  14.733  21.482  1.00  0.00     0.114 A
HETATM    2  N3  UNL     1      -7.470  15.486  21.144  1.00  0.00    -0.326 N
ATOM      3  H3  UNL     1      -7.313  16.362  21.642  1.00  0.00     0.169 HD
HETATM    4  C5  UNL     1      -6.620  15.135  20.171  1.00  0.00     0.137 A
HETATM    5  N4  UNL     1      -5.584  15.931  19.865  1.00  0.00    -0.303 N
ATOM      6  H4  UNL     1      -5.455  16.802  20.382  1.00  0.00     0.171 HD
HETATM    7  C6  UNL     1      -4.720  15.611  18.902  1.00  0.00     0.315 A
HETATM    8  O1  UNL     1      -3.756  16.388  18.643  1.00  0.00    -0.262 OA
HETATM    9  C7  UNL     1      -4.896  14.430  18.200  1.00  0.00     0.314 A
HETATM   10  O2  UNL     1      -4.087  14.116  17.288  1.00  0.00    -0.262 OA
HETATM   11  N5  UNL     1      -5.931  13.594  18.476  1.00  0.00    -0.316 N
ATOM     12  H5  UNL     1      -6.067  12.724  17.963  1.00  0.00     0.169 HD
HETATM   13  C8  UNL     1      -6.764  13.972  19.456  1.00  0.00     0.080 A
HETATM   14  C9  UNL     1      -7.852  13.167  19.799  1.00  0.00     0.050 A
HETATM   15  C10 UNL     1      -8.725  13.519  20.793  1.00  0.00     0.027 A
ENDROOT
BRANCH   1  16
HETATM   16  N2  UNL     1      -9.335  15.059  22.419  1.00  0.00    -0.376 N
ATOM     17  H2  UNL     1      -9.166  14.668  23.346  1.00  0.00     0.161 HD
BRANCH  16  18
HETATM   18  C3  UNL     1     -10.473  15.926  22.273  1.00  0.00     0.123 C
BRANCH  18  19
HETATM   19  C2  UNL     1     -10.412  16.742  21.000  1.00  0.00     0.047 C
BRANCH  19  20
HETATM   20  C1  UNL     1      -9.993  18.152  21.255  1.00  0.00     0.231 C
BRANCH  20  21
HETATM   21  N1  UNL     1      -8.639  18.428  20.831  1.00  0.00    -0.079 N
ATOM     22  H13 UNL     1      -7.968  18.112  21.530  1.00  0.00     0.274 HD
ATOM     23  H12 UNL     1      -8.371  17.822  20.056  1.00  0.00     0.274 HD
ATOM     24  H11 UNL     1      -8.484  19.408  20.596  1.00  0.00     0.274 HD
ENDBRANCH  20  21
ENDBRANCH  19  20
ENDBRANCH  18  19
ENDBRANCH  16  18
ENDBRANCH   1  16
BRANCH  15  25
HETATM   25  C11 UNL     1      -9.866  12.725  21.189  1.00  0.00     0.129 C
HETATM   26  N6  UNL     1     -10.999  12.783  20.694  1.00  0.00    -0.280 N
ATOM     27  H6  UNL     1     -11.654  12.132  21.129  1.00  0.00     0.193 HD
BRANCH  26  28
HETATM   28  O3  UNL     1     -11.548  13.492  19.736  1.00  0.00    -0.290 OA
ATOM     29  H3  UNL     1     -11.475  14.396  19.452  1.00  0.00     0.244 HD
ENDBRANCH  26  28
ENDBRANCH  15  25
TORSDOF 7
ENDMDL