MODEL 4
REMARK VINA RESULT: -5.743674383      2.708      5.684
REMARK  8 active torsions:
REMARK  status: ('A' for Active; 'I' for Inactive)
REMARK    1  A    between atoms: C8_10  and  N2_11
REMARK    2  A    between atoms: N2_11  and  N3_13
REMARK    3  A    between atoms: N3_13  and  C9_15
REMARK    4  A    between atoms: C9_15  and  C10_21
REMARK    5  A    between atoms: N4_16  and  N5_18
REMARK    6  A    between atoms: C10_21  and  N6_22
REMARK    7  A    between atoms: C10_21  and  C11_26
REMARK    8  A    between atoms: C11_26  and  S1_27
ROOT
HETATM    1  N3  UNL     1      -6.761  13.248  19.233  1.00  0.00    -0.286 N
ATOM      2  H3  UNL     1      -6.648  12.450  18.608  1.00  0.00     0.188 HD
ENDROOT
BRANCH   1   3
HETATM    3  N2  UNL     1      -7.534  13.241  20.270  1.00  0.00    -0.296 N
ATOM      4  H2  UNL     1      -6.905  13.049  21.050  1.00  0.00     0.187 HD
BRANCH   3   5
HETATM    5  C8  UNL     1      -8.622  13.347  20.785  1.00  0.00     0.083 A
HETATM    6  C2  UNL     1      -8.816  14.078  21.934  1.00  0.00    -0.013 A
HETATM    7  C1  UNL     1      -7.912  14.799  22.569  1.00  0.00     0.026 C
HETATM    8  C3  UNL     1     -10.102  14.081  22.571  1.00  0.00     0.037 A
HETATM    9  C4  UNL     1     -11.127  13.377  22.045  1.00  0.00     0.006 A
HETATM   10  C5  UNL     1     -12.450  13.436  22.711  1.00  0.00     0.068 C
HETATM   11  N1  UNL     1     -10.929  12.672  20.929  1.00  0.00    -0.359 N
HETATM   12  C6  UNL     1      -9.728  12.629  20.281  1.00  0.00     0.052 A
ATOM     13  H1  UNL     1     -11.710  12.141  20.542  1.00  0.00     0.166 HD
HETATM   14  C7  UNL     1      -9.637  11.914  19.193  1.00  0.00     0.045 C
ENDBRANCH   3   5
ENDBRANCH   1   3
BRANCH   1  15
HETATM   15  C9  UNL     1      -6.002  14.644  19.036  1.00  0.00     0.142 C
HETATM   16  N4  UNL     1      -5.193  14.538  18.187  1.00  0.00    -0.293 N
ATOM     17  H4  UNL     1      -5.257  13.570  17.872  1.00  0.00     0.187 HD
BRANCH  16  18
HETATM   18  N5  UNL     1      -4.256  15.079  17.463  1.00  0.00    -0.344 N
ATOM     19  H52 UNL     1      -3.946  15.869  18.029  1.00  0.00     0.176 HD
ATOM     20  H51 UNL     1      -3.699  15.077  16.608  1.00  0.00     0.176 HD
ENDBRANCH  16  18
BRANCH  15  21
HETATM   21  C10 UNL     1      -6.443  15.696  19.934  1.00  0.00     0.262 C
BRANCH  21  22
HETATM   22  N6  UNL     1      -5.277  16.394  20.586  1.00  0.00    -0.067 N
ATOM     23  H63 UNL     1      -4.400  16.169  20.118  1.00  0.00     0.275 HD
ATOM     24  H62 UNL     1      -5.299  17.399  20.409  1.00  0.00     0.275 HD
ATOM     25  H61 UNL     1      -5.230  16.192  21.585  1.00  0.00     0.275 HD
ENDBRANCH  21  22
BRANCH  21  26
HETATM   26  C11 UNL     1      -7.337  16.765  19.448  1.00  0.00     0.114 C
BRANCH  26  27
HETATM   27  S1  UNL     1      -7.935  17.980  20.595  1.00  0.00    -0.171 SA
HETATM   28  C12 UNL     1      -9.676  17.673  21.014  1.00  0.00     0.089 C
ENDBRANCH  26  27
ENDBRANCH  21  26
ENDBRANCH  15  21
ENDBRANCH   1  15
TORSDOF 8
ENDMDL