MODEL 1
REMARK VINA RESULT: -8.119090209      0.000      0.000
REMARK  7 active torsions:
REMARK  status: ('A' for Active; 'I' for Inactive)
REMARK    1  A    between atoms: O1_2  and  C2_3
REMARK    2  A    between atoms: N1_9  and  C8_10
REMARK    3  A    between atoms: C8_10  and  C9_11
REMARK    4  A    between atoms: C9_11  and  O2_12
REMARK    5  A    between atoms: O2_12  and  C10_13
REMARK    6  A    between atoms: C11_20  and  N5_21
REMARK    7  A    between atoms: N6_24  and  O3_25
ROOT
HETATM    1  C2  UNL     1      -9.840  16.845  21.100  1.00  0.00     0.098 A
HETATM    2  C3  UNL     1     -10.792  17.255  22.017  1.00  0.00     0.039 A
HETATM    3  C4  UNL     1     -11.586  16.357  22.669  1.00  0.00     0.005 A
HETATM    4  C5  UNL     1     -11.459  15.011  22.426  1.00  0.00     0.035 A
HETATM    5  C6  UNL     1     -10.518  14.605  21.520  1.00  0.00     0.112 A
HETATM    6  C7  UNL     1      -9.686  15.506  20.834  1.00  0.00     0.114 A
HETATM    7  N1  UNL     1      -8.783  15.028  19.954  1.00  0.00    -0.271 N
HETATM    8  N4  UNL     1      -8.699  13.688  19.752  1.00  0.00    -0.128 N
ATOM      9  H4  UNL     1      -8.019  13.314  19.090  1.00  0.00     0.206 HD
HETATM   10  C11 UNL     1      -9.499  12.866  20.415  1.00  0.00     0.717 A
HETATM   11  N6  UNL     1     -10.405  13.294  21.293  1.00  0.00    -0.049 N
ENDROOT
BRANCH   7  12
HETATM   12  C8  UNL     1      -7.880  15.869  19.207  1.00  0.00     0.176 C
BRANCH  12  13
HETATM   13  C9  UNL     1      -6.493  15.740  19.787  1.00  0.00     0.200 C
BRANCH  13  14
HETATM   14  O2  UNL     1      -5.492  15.907  18.769  1.00  0.00    -0.323 OA
BRANCH  14  15
HETATM   15  C10 UNL     1      -5.007  14.827  18.101  1.00  0.00     0.225 C
HETATM   16  N2  UNL     1      -5.722  13.788  17.930  1.00  0.00    -0.368 N
ATOM     17  H22 UNL     1      -6.675  13.744  18.291  1.00  0.00     0.159 HD
ATOM     18  H21 UNL     1      -5.358  12.977  17.430  1.00  0.00     0.159 HD
HETATM   19  N3  UNL     1      -3.670  14.888  17.596  1.00  0.00    -0.057 NA
ENDBRANCH  14  15
ENDBRANCH  13  14
ENDBRANCH  12  13
ENDBRANCH   7  12
BRANCH   1  20
HETATM   20  O1  UNL     1      -9.071  17.772  20.475  1.00  0.00    -0.354 OA
HETATM   21  C1  UNL     1      -8.239  18.712  21.109  1.00  0.00     0.210 C
ENDBRANCH   1  20
BRANCH  10  22
HETATM   22  N5  UNL     1      -9.375  11.598  20.183  1.00  0.00    -0.231 N
ATOM     23  H52 UNL     1      -9.345  11.260  19.221  1.00  0.00     0.174 HD
ATOM     24  H51 UNL     1      -9.313  10.977  20.990  1.00  0.00     0.174 HD
ENDBRANCH  10  22
BRANCH  11  25
HETATM   25  O3  UNL     1     -11.229  12.399  21.972  1.00  0.00    -0.269 OA
ATOM     26  H3  UNL     1     -11.186  11.472  21.771  1.00  0.00     0.245 HD
ENDBRANCH  11  25
TORSDOF 7
ENDMDL