MODEL 5
REMARK VINA RESULT: -6.498758868      0.997      1.153
REMARK  6 active torsions:
REMARK  status: ('A' for Active; 'I' for Inactive)
REMARK    1  A    between atoms: N1_2  and  N2_3
REMARK    2  A    between atoms: N2_3  and  S1_5
REMARK    3  A    between atoms: S1_5  and  C2_8
REMARK    4  A    between atoms: C2_8  and  C3_9
REMARK    5  A    between atoms: C7_13  and  S2_14
REMARK    6  A    between atoms: S2_14  and  N3_15
ROOT
HETATM    1  C3  UNL     1      -8.848  14.312  21.738  1.00  0.00    -0.041 A
HETATM    2  C4  UNL     1      -8.319  14.711  22.960  1.00  0.00     0.008 A
HETATM    3  C5  UNL     1      -7.169  15.462  22.979  1.00  0.00     0.002 A
HETATM    4  C6  UNL     1      -6.547  15.814  21.798  1.00  0.00     0.025 A
HETATM    5  C7  UNL     1      -7.053  15.429  20.561  1.00  0.00     0.079 A
HETATM    6  C8  UNL     1      -8.207  14.677  20.571  1.00  0.00     0.033 A
ENDROOT
BRANCH   1   7
HETATM    7  C2  UNL     1     -10.084  13.504  21.704  1.00  0.00     0.202 C
BRANCH   7   8
HETATM    8  S1  UNL     1     -10.845  13.541  20.102  1.00  0.00     0.245 S
HETATM    9  O1  UNL     1     -10.580  14.922  19.517  1.00  0.00    -0.204 OA
HETATM   10  O2  UNL     1     -12.319  13.365  20.289  1.00  0.00    -0.204 OA
BRANCH   8  11
HETATM   11  N2  UNL     1     -10.180  12.397  19.032  1.00  0.00    -0.231 N
ATOM     12  H2  UNL     1     -10.261  12.473  18.018  1.00  0.00     0.195 HD
BRANCH  11  13
HETATM   13  N1  UNL     1      -9.520  11.353  19.659  1.00  0.00    -0.136 NA
HETATM   14  C1  UNL     1      -8.067  11.484  19.574  1.00  0.00     0.159 C
ENDBRANCH  11  13
ENDBRANCH   8  11
ENDBRANCH   7   8
ENDBRANCH   1   7
BRANCH   5  15
HETATM   15  S2  UNL     1      -6.240  15.893  19.082  1.00  0.00     0.256 S
HETATM   16  O3  UNL     1      -6.869  17.088  18.439  1.00  0.00    -0.201 OA
HETATM   17  O4  UNL     1      -4.795  16.261  19.388  1.00  0.00    -0.201 OA
BRANCH  15  18
HETATM   18  N3  UNL     1      -6.173  14.584  17.956  1.00  0.00    -0.324 N
ATOM     19  H32 UNL     1      -5.301  14.210  17.580  1.00  0.00     0.169 HD
ATOM     20  H31 UNL     1      -7.105  14.241  17.723  1.00  0.00     0.169 HD
ENDBRANCH  15  18
ENDBRANCH   5  15
TORSDOF 6
ENDMDL