MODEL 1
REMARK VINA RESULT: -7.323796526      0.000      0.000
REMARK  7 active torsions:
REMARK  status: ('A' for Active; 'I' for Inactive)
REMARK    1  A    between atoms: N1_1  and  N2_4
REMARK    2  A    between atoms: N2_4  and  S1_6
REMARK    3  A    between atoms: S1_6  and  N3_9
REMARK    4  A    between atoms: N3_9  and  C1_11
REMARK    5  A    between atoms: C1_11  and  C2_12
REMARK    6  A    between atoms: C7_17  and  S2_18
REMARK    7  A    between atoms: S2_18  and  N4_19
ROOT
HETATM    1  C2  UNL     1      -9.894  15.954  20.599  1.00  0.00    -0.017 A
HETATM    2  C3  UNL     1     -10.008  17.282  20.941  1.00  0.00     0.010 A
HETATM    3  C4  UNL     1     -10.801  17.718  21.998  1.00  0.00     0.001 A
HETATM    4  C5  UNL     1     -11.502  16.795  22.737  1.00  0.00     0.002 A
HETATM    5  C6  UNL     1     -11.398  15.462  22.408  1.00  0.00     0.026 A
HETATM    6  C7  UNL     1     -10.608  15.037  21.355  1.00  0.00     0.087 A
ENDROOT
BRANCH   1   7
HETATM    7  C1  UNL     1      -9.041  15.565  19.478  1.00  0.00     0.173 C
BRANCH   7   8
HETATM    8  N3  UNL     1      -7.752  15.139  19.975  1.00  0.00    -0.297 N
ATOM      9  H3  UNL     1      -7.613  14.512  20.767  1.00  0.00     0.174 HD
BRANCH   8  10
HETATM   10  S1  UNL     1      -6.469  15.851  19.033  1.00  0.00     0.332 S
HETATM   11  O1  UNL     1      -5.341  16.233  19.967  1.00  0.00    -0.181 OA
HETATM   12  O2  UNL     1      -7.024  17.122  18.458  1.00  0.00    -0.181 OA
BRANCH  10  13
HETATM   13  N2  UNL     1      -5.976  14.733  17.848  1.00  0.00    -0.217 N
ATOM     14  H2  UNL     1      -6.631  14.247  17.236  1.00  0.00     0.201 HD
BRANCH  13  15
HETATM   15  N1  UNL     1      -4.599  14.541  17.789  1.00  0.00    -0.335 N
ATOM     16  H12 UNL     1      -4.066  14.185  18.583  1.00  0.00     0.177 HD
ATOM     17  H11 UNL     1      -4.184  14.788  16.891  1.00  0.00     0.177 HD
ENDBRANCH  13  15
ENDBRANCH  10  13
ENDBRANCH   8  10
ENDBRANCH   7   8
ENDBRANCH   1   7
BRANCH   6  18
HETATM   18  S2  UNL     1     -10.499  13.360  20.967  1.00  0.00     0.257 S
HETATM   19  O3  UNL     1     -10.910  13.059  19.555  1.00  0.00    -0.201 OA
HETATM   20  O4  UNL     1      -9.067  12.920  21.097  1.00  0.00    -0.201 OA
BRANCH  18  21
HETATM   21  N4  UNL     1     -11.405  12.409  22.098  1.00  0.00    -0.324 N
ATOM     22  H42 UNL     1     -11.914  12.801  22.889  1.00  0.00     0.169 HD
ATOM     23  H41 UNL     1     -11.354  11.418  21.859  1.00  0.00     0.169 HD
ENDBRANCH  18  21
ENDBRANCH   6  18
TORSDOF 7
ENDMDL