MODEL 2
REMARK VINA RESULT: -6.614874433      2.562      5.075
REMARK  6 active torsions:
REMARK  status: ('A' for Active; 'I' for Inactive)
REMARK    1  A    between atoms: N1_2  and  N2_3
REMARK    2  A    between atoms: N1_2  and  C2_11
REMARK    3  A    between atoms: N2_3  and  S1_5
REMARK    4  A    between atoms: S1_5  and  N3_6
REMARK    5  A    between atoms: C5_14  and  S2_15
REMARK    6  A    between atoms: S2_15  and  N4_16
ROOT
HETATM    1  C2  UNL     1      -8.881  16.605  20.476  1.00  0.00     0.123 A
HETATM    2  C3  UNL     1      -9.829  17.151  21.311  1.00  0.00     0.053 A
HETATM    3  C4  UNL     1     -10.793  16.214  21.636  1.00  0.00     0.047 A
HETATM    4  C5  UNL     1     -10.401  15.059  20.964  1.00  0.00     0.150 A
HETATM    5  N5  UNL     1      -9.280  15.320  20.295  1.00  0.00    -0.331 N
ATOM      6  H5  UNL     1      -8.783  14.640  19.719  1.00  0.00     0.168 HD
ENDROOT
BRANCH   1   7
HETATM    7  N1  UNL     1      -7.739  17.254  19.957  1.00  0.00    -0.270 N
HETATM    8  C1  UNL     1      -7.336  18.492  20.662  1.00  0.00     0.180 C
BRANCH   7   9
HETATM    9  N2  UNL     1      -6.966  16.892  18.887  1.00  0.00    -0.207 N
ATOM     10  H2  UNL     1      -7.016  17.398  18.002  1.00  0.00     0.202 HD
BRANCH   9  11
HETATM   11  S1  UNL     1      -5.925  15.574  19.089  1.00  0.00     0.330 S
HETATM   12  O1  UNL     1      -4.515  16.138  19.199  1.00  0.00    -0.181 OA
HETATM   13  O2  UNL     1      -6.229  14.736  20.280  1.00  0.00    -0.181 OA
BRANCH  11  14
HETATM   14  N3  UNL     1      -6.000  14.521  17.705  1.00  0.00    -0.310 N
ATOM     15  H32 UNL     1      -6.022  14.850  16.739  1.00  0.00     0.170 HD
ATOM     16  H31 UNL     1      -6.018  13.545  18.000  1.00  0.00     0.170 HD
ENDBRANCH  11  14
ENDBRANCH   9  11
ENDBRANCH   7   9
ENDBRANCH   1   7
BRANCH   4  17
HETATM   17  S2  UNL     1     -11.323  13.556  21.072  1.00  0.00     0.272 S
HETATM   18  O3  UNL     1     -12.165  13.359  19.824  1.00  0.00    -0.199 OA
HETATM   19  O4  UNL     1     -12.153  13.571  22.319  1.00  0.00    -0.199 OA
BRANCH  17  20
HETATM   20  N4  UNL     1     -10.216  12.243  21.145  1.00  0.00    -0.323 N
ATOM     21  H42 UNL     1      -9.302  12.273  21.597  1.00  0.00     0.169 HD
ATOM     22  H41 UNL     1     -10.631  11.444  20.665  1.00  0.00     0.169 HD
ENDBRANCH  17  20
ENDBRANCH   4  17
TORSDOF 6
ENDMDL