MODEL 5
REMARK VINA RESULT: -7.548803408      1.439      1.779
REMARK  8 active torsions:
REMARK  status: ('A' for Active; 'I' for Inactive)
REMARK    1  A    between atoms: C2_5  and  N2_6
REMARK    2  A    between atoms: N2_6  and  C3_8
REMARK    3  A    between atoms: C3_8  and  C4_9
REMARK    4  A    between atoms: C4_9  and  N3_10
REMARK    5  A    between atoms: C5_12  and  N4_13
REMARK    6  A    between atoms: N4_13  and  O2_15
REMARK    7  A    between atoms: C6_19  and  N6_20
REMARK    8  A    between atoms: N6_20  and  C7_22
ROOT
HETATM    1  O1  UNL     1      -3.958  15.078  17.241  1.00  0.00    -0.246 OA
HETATM    2  C1  UNL     1      -4.839  14.893  18.118  1.00  0.00     0.352 A
HETATM    3  N1  UNL     1      -5.603  13.765  18.077  1.00  0.00    -0.140 N
ATOM      4  H1  UNL     1      -5.440  13.091  17.329  1.00  0.00     0.189 HD
HETATM    5  C2  UNL     1      -6.559  13.503  18.977  1.00  0.00     0.696 A
HETATM    6  N5  UNL     1      -6.736  14.439  19.958  1.00  0.00    -0.022 N
ATOM      7  H5  UNL     1      -7.453  14.285  20.667  1.00  0.00     0.203 HD
HETATM    8  C6  UNL     1      -5.993  15.553  20.011  1.00  0.00     0.701 A
HETATM    9  N7  UNL     1      -5.039  15.790  19.092  1.00  0.00    -0.140 N
ATOM     10  H7  UNL     1      -4.476  16.639  19.137  1.00  0.00     0.189 HD
ENDROOT
BRANCH   5  11
HETATM   11  N2  UNL     1      -7.302  12.455  18.979  1.00  0.00    -0.224 N
ATOM     12  H2  UNL     1      -7.367  11.921  18.111  1.00  0.00     0.177 HD
BRANCH  11  13
HETATM   13  C3  UNL     1      -8.050  11.976  20.113  1.00  0.00     0.157 C
BRANCH  13  14
HETATM   14  C4  UNL     1      -9.470  12.535  20.147  1.00  0.00     0.140 C
BRANCH  14  15
HETATM   15  N3  UNL     1      -9.759  12.940  21.499  1.00  0.00    -0.383 N
HETATM   16  C5  UNL     1      -8.931  13.618  22.212  1.00  0.00     0.199 C
ATOM     17  H3  UNL     1     -10.656  12.678  21.908  1.00  0.00     0.160 HD
BRANCH  16  18
HETATM   18  N4  UNL     1      -9.236  14.003  23.534  1.00  0.00    -0.265 N
ATOM     19  H4  UNL     1     -10.196  14.219  23.801  1.00  0.00     0.194 HD
BRANCH  18  20
HETATM   20  O2  UNL     1      -8.245  14.083  24.432  1.00  0.00    -0.289 OA
ATOM     21  H2  UNL     1      -7.784  14.907  24.537  1.00  0.00     0.244 HD
ENDBRANCH  18  20
ENDBRANCH  16  18
ENDBRANCH  14  15
ENDBRANCH  13  14
ENDBRANCH  11  13
ENDBRANCH   5  11
BRANCH   8  22
HETATM   22  N6  UNL     1      -6.202  16.418  20.971  1.00  0.00    -0.191 N
ATOM     23  H6  UNL     1      -5.501  16.563  21.697  1.00  0.00     0.184 HD
BRANCH  22  24
HETATM   24  C7  UNL     1      -7.417  17.154  20.989  1.00  0.00     0.049 A
HETATM   25  C8  UNL     1      -7.440  18.530  20.885  1.00  0.00     0.030 A
HETATM   26  C9  UNL     1      -8.631  19.240  20.905  1.00  0.00     0.002 A
HETATM   27  C10 UNL     1      -9.801  18.504  21.034  1.00  0.00     0.000 A
HETATM   28  C11 UNL     1      -9.806  17.138  21.140  1.00  0.00     0.002 A
HETATM   29  C12 UNL     1      -8.596  16.459  21.117  1.00  0.00     0.030 A
ENDBRANCH  22  24
ENDBRANCH   8  22
TORSDOF 8
ENDMDL