MODEL 1
REMARK VINA RESULT: -5.651970454      0.000      0.000
REMARK  6 active torsions:
REMARK  status: ('A' for Active; 'I' for Inactive)
REMARK    1  A    between atoms: C2_2  and  C3_3
REMARK    2  A    between atoms: C3_3  and  N1_4
REMARK    3  A    between atoms: N1_4  and  C4_7
REMARK    4  A    between atoms: C8_11  and  N2_12
REMARK    5  A    between atoms: N2_12  and  C9_14
REMARK    6  A    between atoms: C9_14  and  C10_15
ROOT
HETATM    1  C4  UNL     1     -21.627   2.024  -9.819  1.00  0.00     0.216 C
HETATM    2  C5  UNL     1     -21.907   3.008  -8.713  1.00  0.00     0.070 C
HETATM    3  C6  UNL     1     -22.922   2.287  -7.868  1.00  0.00     0.227 C
HETATM    4  C7  UNL     1     -24.161   3.103  -7.606  1.00  0.00     0.062 C
HETATM    5  C8  UNL     1     -25.317   2.141  -7.759  1.00  0.00     0.111 C
HETATM    6  C12 UNL     1     -24.720   0.922  -8.455  1.00  0.00     0.297 C
HETATM    7  N3  UNL     1     -23.317   1.090  -8.540  1.00  0.00     0.097 N
HETATM    8  C13 UNL     1     -22.936   1.283  -9.930  1.00  0.00     0.305 C
ENDROOT
BRANCH   1   9
HETATM    9  N1  UNL     1     -21.373   2.685 -11.084  1.00  0.00    -0.066 N
ATOM     10  H12 UNL     1     -20.757   3.489 -10.967  1.00  0.00     0.278 HD
ATOM     11  H11 UNL     1     -22.205   3.170 -11.424  1.00  0.00     0.278 HD
BRANCH   9  12
HETATM   12  C3  UNL     1     -20.856   1.761 -12.078  1.00  0.00     0.259 C
BRANCH  12  13
HETATM   13  C2  UNL     1     -19.508   1.330 -11.634  1.00  0.00    -0.010 C
HETATM   14  C1  UNL     1     -18.408   2.048 -11.825  1.00  0.00     0.008 C
ENDBRANCH  12  13
ENDBRANCH   9  12
ENDBRANCH   1   9
BRANCH   5  15
HETATM   15  N2  UNL     1     -25.852   1.830  -6.498  1.00  0.00    -0.396 N
ATOM     16  H2  UNL     1     -26.170   2.597  -5.905  1.00  0.00     0.159 HD
BRANCH  15  17
HETATM   17  C9  UNL     1     -25.970   0.535  -6.016  1.00  0.00     0.055 C
BRANCH  17  18
HETATM   18  C10 UNL     1     -25.053   0.076  -4.914  1.00  0.00     0.039 C
HETATM   19  C11 UNL     1     -24.019   1.035  -4.469  1.00  0.00     0.010 C
ENDBRANCH  17  18
ENDBRANCH  15  17
ENDBRANCH   5  15
TORSDOF 6
ENDMDL