MODEL 3
REMARK VINA RESULT: -5.276110457      3.399      6.894
REMARK  7 active torsions:
REMARK  status: ('A' for Active; 'I' for Inactive)
REMARK    1  A    between atoms: O1_2  and  C2_3
REMARK    2  A    between atoms: C2_3  and  C3_4
REMARK    3  A    between atoms: C3_4  and  O2_5
REMARK    4  A    between atoms: O2_5  and  C4_6
REMARK    5  A    between atoms: C4_6  and  C5_7
REMARK    6  A    between atoms: C5_7  and  N1_8
REMARK    7  A    between atoms: N1_8  and  C6_10
ROOT
HETATM    1  C6  UNL     1     -21.150   0.601 -10.531  1.00  0.00     0.678 A
HETATM    2  N2  UNL     1     -19.877   0.994 -10.350  1.00  0.00    -0.194 N
ATOM      3  H2  UNL     1     -19.378   0.953  -9.462  1.00  0.00     0.184 HD
HETATM    4  C7  UNL     1     -19.354   1.451 -11.504  1.00  0.00     0.045 A
HETATM    5  C8  UNL     1     -17.980   1.982 -11.757  1.00  0.00     0.071 C
HETATM    6  C9  UNL     1     -20.367   1.325 -12.436  1.00  0.00     0.045 A
HETATM    7  C10 UNL     1     -20.276   1.700 -13.868  1.00  0.00     0.071 C
HETATM    8  N3  UNL     1     -21.460   0.804 -11.820  1.00  0.00    -0.194 N
ATOM      9  H3  UNL     1     -22.358   0.602 -12.261  1.00  0.00     0.184 HD
ENDROOT
BRANCH   1  10
HETATM   10  N1  UNL     1     -21.989   0.109  -9.679  1.00  0.00    -0.224 N
ATOM     11  H1  UNL     1     -21.850  -0.844  -9.343  1.00  0.00     0.177 HD
BRANCH  10  12
HETATM   12  C5  UNL     1     -23.122   0.866  -9.185  1.00  0.00     0.164 C
BRANCH  12  13
HETATM   13  C4  UNL     1     -24.358   0.334  -9.922  1.00  0.00     0.188 C
BRANCH  13  14
HETATM   14  O2  UNL     1     -25.293   1.395  -9.967  1.00  0.00    -0.387 OA
BRANCH  14  15
HETATM   15  C3  UNL     1     -25.792   1.495  -8.658  1.00  0.00     0.193 C
BRANCH  15  16
HETATM   16  C2  UNL     1     -26.745   0.340  -8.434  1.00  0.00     0.193 C
BRANCH  16  17
HETATM   17  O1  UNL     1     -26.823  -0.034  -7.117  1.00  0.00    -0.394 OA
HETATM   18  C1  UNL     1     -26.277   0.866  -6.233  1.00  0.00     0.201 C
ENDBRANCH  16  17
ENDBRANCH  15  16
ENDBRANCH  14  15
ENDBRANCH  13  14
ENDBRANCH  12  13
ENDBRANCH  10  12
ENDBRANCH   1  10
TORSDOF 7
ENDMDL