MODEL 2
REMARK VINA RESULT: -6.045298707      1.431      2.261
REMARK  6 active torsions:
REMARK  status: ('A' for Active; 'I' for Inactive)
REMARK    1  A    between atoms: N1_2  and  C3_4
REMARK    2  A    between atoms: C3_4  and  C4_5
REMARK    3  A    between atoms: C4_5  and  N2_6
REMARK    4  A    between atoms: N2_6  and  C5_8
REMARK    5  A    between atoms: C5_8  and  C6_9
REMARK    6  A    between atoms: C6_9  and  C7_10
ROOT
HETATM    1  C7  UNL     1     -24.964   0.987  -5.414  1.00  0.00     0.030 C
HETATM    2  C8  UNL     1     -24.763  -0.355  -4.744  1.00  0.00     0.065 C
HETATM    3  N3  UNL     1     -25.866  -0.862  -4.053  1.00  0.00    -0.382 N
ATOM      4  H3  UNL     1     -25.744  -1.320  -3.149  1.00  0.00     0.164 HD
HETATM    5  C9  UNL     1     -27.143  -0.731  -4.620  1.00  0.00     0.065 C
HETATM    6  C10 UNL     1     -27.419   0.458  -5.435  1.00  0.00     0.029 C
HETATM    7  C11 UNL     1     -27.907   0.060  -6.826  1.00  0.00     0.010 C
HETATM    8  C12 UNL     1     -26.528   0.466  -7.381  1.00  0.00     0.007 C
HETATM    9  C13 UNL     1     -26.270   1.153  -6.084  1.00  0.00     0.003 C
ENDROOT
BRANCH   1  10
HETATM   10  C6  UNL     1     -23.834   1.122  -6.413  1.00  0.00     0.029 C
BRANCH  10  11
HETATM   11  C5  UNL     1     -23.439   2.562  -6.538  1.00  0.00     0.114 C
BRANCH  11  12
HETATM   12  N2  UNL     1     -22.029   2.737  -6.723  1.00  0.00    -0.420 N
ATOM     13  H2  UNL     1     -21.350   2.368  -6.057  1.00  0.00     0.153 HD
BRANCH  12  14
HETATM   14  C4  UNL     1     -21.630   3.451  -7.883  1.00  0.00     0.133 C
BRANCH  14  15
HETATM   15  C3  UNL     1     -21.749   2.559  -9.136  1.00  0.00     0.135 C
BRANCH  15  16
HETATM   16  N1  UNL     1     -20.523   2.397  -9.776  1.00  0.00    -0.419 N
HETATM   17  C1  UNL     1     -19.470   3.218  -9.368  1.00  0.00     0.142 C
HETATM   18  C2  UNL     1     -20.208   1.263 -10.527  1.00  0.00     0.142 C
ENDBRANCH  15  16
ENDBRANCH  14  15
ENDBRANCH  12  14
ENDBRANCH  11  12
ENDBRANCH  10  11
ENDBRANCH   1  10
TORSDOF 6
ENDMDL