MODEL 2
REMARK VINA RESULT: -5.939414559      1.056      1.770
REMARK  6 active torsions:
REMARK  status: ('A' for Active; 'I' for Inactive)
REMARK    1  A    between atoms: N1_3  and  C4_5
REMARK    2  A    between atoms: C4_5  and  C5_6
REMARK    3  A    between atoms: C5_6  and  C6_7
REMARK    4  A    between atoms: C6_7  and  C7_8
REMARK    5  A    between atoms: C7_8  and  N2_9
REMARK    6  A    between atoms: N2_9  and  C8_11
ROOT
HETATM    1  C1  UNL     1     -21.643  -0.339 -10.422  1.00  0.00     0.037 C
HETATM    2  C2  UNL     1     -20.841   0.552 -10.466  1.00  0.00    -0.004 C
HETATM    3  N1  UNL     1     -19.899   1.564 -10.540  1.00  0.00    -0.347 N
HETATM    4  C3  UNL     1     -18.751   1.436 -11.458  1.00  0.00     0.160 C
ENDROOT
BRANCH   3   5
HETATM    5  C4  UNL     1     -19.921   2.780  -9.761  1.00  0.00     0.132 C
BRANCH   5   6
HETATM    6  C5  UNL     1     -21.235   3.062  -9.132  1.00  0.00     0.025 C
BRANCH   6   7
HETATM    7  C6  UNL     1     -21.090   3.536  -7.668  1.00  0.00     0.046 C
BRANCH   7   8
HETATM    8  C7  UNL     1     -22.194   2.946  -6.867  1.00  0.00     0.056 C
BRANCH   8   9
HETATM    9  N2  UNL     1     -22.892   1.838  -7.282  1.00  0.00    -0.392 N
ATOM     10  H2  UNL     1     -22.331   1.033  -7.562  1.00  0.00     0.159 HD
BRANCH   9  11
HETATM   11  C8  UNL     1     -24.275   1.683  -7.366  1.00  0.00     0.041 C
HETATM   12  C9  UNL     1     -25.004   2.960  -7.089  1.00  0.00     0.040 C
HETATM   13  C10 UNL     1     -24.572   1.257  -8.823  1.00  0.00     0.034 C
HETATM   14  C11 UNL     1     -25.555   0.149  -8.915  1.00  0.00     0.022 C
HETATM   15  C12 UNL     1     -26.768   0.377  -8.030  1.00  0.00     0.114 C
HETATM   16  N3  UNL     1     -26.330   0.576  -6.686  1.00  0.00    -0.419 N
HETATM   17  C13 UNL     1     -24.913   0.632  -6.486  1.00  0.00     0.144 C
ATOM     18  H3  UNL     1     -26.988   0.672  -5.913  1.00  0.00     0.153 HD
ENDBRANCH   9  11
ENDBRANCH   8   9
ENDBRANCH   7   8
ENDBRANCH   6   7
ENDBRANCH   5   6
ENDBRANCH   3   5
TORSDOF 6
ENDMDL