MODEL 2
REMARK VINA RESULT: -6.256708331      1.925      4.777
REMARK  7 active torsions:
REMARK  status: ('A' for Active; 'I' for Inactive)
REMARK    1  A    between atoms: N1_1  and  C1_5
REMARK    2  A    between atoms: C1_5  and  C2_6
REMARK    3  A    between atoms: C2_6  and  N2_7
REMARK    4  A    between atoms: N2_7  and  C3_9
REMARK    5  A    between atoms: N3_12  and  C6_13
REMARK    6  A    between atoms: C6_13  and  C7_14
REMARK    7  A    between atoms: C10_17  and  C11_18
ROOT
HETATM    1  C3  UNL     1     -24.888   0.910  -9.114  1.00  0.00     0.112 C
HETATM    2  C4  UNL     1     -24.687  -0.539  -9.403  1.00  0.00     0.057 C
HETATM    3  C5  UNL     1     -23.262  -0.773  -8.869  1.00  0.00     0.275 C
HETATM    4  N3  UNL     1     -23.213   0.032  -7.691  1.00  0.00     0.096 N
HETATM    5  C10 UNL     1     -23.933   1.256  -7.985  1.00  0.00     0.249 C
ENDROOT
BRANCH   1   6
HETATM    6  N2  UNL     1     -26.242   1.175  -8.772  1.00  0.00    -0.413 N
ATOM      7  H2  UNL     1     -26.596   2.123  -8.645  1.00  0.00     0.153 HD
BRANCH   6   8
HETATM    8  C2  UNL     1     -27.082   0.014  -8.615  1.00  0.00     0.141 C
BRANCH   8   9
HETATM    9  C1  UNL     1     -27.901   0.126  -7.318  1.00  0.00     0.248 C
BRANCH   9  10
HETATM   10  N1  UNL     1     -29.317  -0.006  -7.560  1.00  0.00    -0.078 N
ATOM     11  H13 UNL     1     -29.780   0.903  -7.550  1.00  0.00     0.274 HD
ATOM     12  H12 UNL     1     -29.504  -0.271  -8.528  1.00  0.00     0.274 HD
ATOM     13  H11 UNL     1     -29.758  -0.653  -6.907  1.00  0.00     0.274 HD
ENDBRANCH   9  10
ENDBRANCH   8   9
ENDBRANCH   6   8
ENDBRANCH   1   6
BRANCH   5  14
HETATM   14  C11 UNL     1     -23.017   2.397  -8.328  1.00  0.00     0.021 A
HETATM   15  C12 UNL     1     -23.421   3.724  -7.769  1.00  0.00     0.007 A
HETATM   16  C13 UNL     1     -22.213   3.059  -7.223  1.00  0.00     0.007 A
ENDBRANCH   5  14
BRANCH   4  17
HETATM   17  C6  UNL     1     -23.683  -0.518  -6.490  1.00  0.00     0.277 C
BRANCH  17  18
HETATM   18  C7  UNL     1     -24.634   0.187  -5.631  1.00  0.00     0.014 A
HETATM   19  C8  UNL     1     -25.216  -0.182  -4.364  1.00  0.00     0.007 A
HETATM   20  C9  UNL     1     -24.140   0.934  -4.427  1.00  0.00     0.007 A
ENDBRANCH  17  18
ENDBRANCH   4  17
TORSDOF 7
ENDMDL