MODEL 3
REMARK VINA RESULT: -6.173068955      1.527      2.265
REMARK  6 active torsions:
REMARK  status: ('A' for Active; 'I' for Inactive)
REMARK    1  A    between atoms: N1_4  and  C4_5
REMARK    2  A    between atoms: C4_5  and  C5_6
REMARK    3  A    between atoms: C5_6  and  C6_7
REMARK    4  A    between atoms: C6_7  and  N2_8
REMARK    5  A    between atoms: N2_8  and  C7_10
REMARK    6  A    between atoms: C7_10  and  C8_11
ROOT
HETATM    1  N2  UNL     1     -21.297   2.710  -8.234  1.00  0.00    -0.421 N
ATOM      2  H2  UNL     1     -20.285   2.756  -8.116  1.00  0.00     0.153 HD
ENDROOT
BRANCH   1   3
HETATM    3  C6  UNL     1     -22.184   3.104  -7.194  1.00  0.00     0.115 C
BRANCH   3   4
HETATM    4  C5  UNL     1     -23.635   3.092  -7.707  1.00  0.00     0.039 C
BRANCH   4   5
HETATM    5  C4  UNL     1     -24.569   2.687  -6.577  1.00  0.00     0.123 C
BRANCH   5   6
HETATM    6  N1  UNL     1     -25.311   1.542  -6.978  1.00  0.00    -0.393 N
HETATM    7  C3  UNL     1     -25.411   1.346  -8.376  1.00  0.00     0.122 C
HETATM    8  C2  UNL     1     -26.116   0.118  -8.819  1.00  0.00     0.020 C
HETATM    9  C1  UNL     1     -27.483   0.121  -8.184  1.00  0.00     0.007 C
HETATM   10  C13 UNL     1     -27.319   0.129  -6.686  1.00  0.00     0.044 C
HETATM   11  C12 UNL     1     -26.405   1.180  -6.172  1.00  0.00     0.058 C
ENDBRANCH   5   6
ENDBRANCH   4   5
ENDBRANCH   3   4
ENDBRANCH   1   3
BRANCH   1  12
HETATM   12  C7  UNL     1     -21.879   2.254  -9.439  1.00  0.00     0.120 C
BRANCH  12  13
HETATM   13  C8  UNL     1     -20.915   1.924 -10.532  1.00  0.00     0.030 C
HETATM   14  C9  UNL     1     -20.755   0.416 -10.646  1.00  0.00     0.035 C
HETATM   15  C10 UNL     1     -19.345   0.342 -11.222  1.00  0.00     0.232 C
HETATM   16  N3  UNL     1     -18.634   1.283 -10.404  1.00  0.00    -0.075 N
HETATM   17  C11 UNL     1     -19.517   2.386 -10.178  1.00  0.00     0.238 C
ATOM     18  H32 UNL     1     -18.274   0.874  -9.542  1.00  0.00     0.277 HD
ATOM     19  H31 UNL     1     -17.736   1.561 -10.799  1.00  0.00     0.277 HD
ENDBRANCH  12  13
ENDBRANCH   1  12
TORSDOF 6
ENDMDL