MODEL 2
REMARK VINA RESULT: -6.086101815      2.372      6.459
REMARK  6 active torsions:
REMARK  status: ('A' for Active; 'I' for Inactive)
REMARK    1  A    between atoms: C2_2  and  C3_3
REMARK    2  A    between atoms: C3_3  and  C4_4
REMARK    3  A    between atoms: C4_4  and  C5_5
REMARK    4  A    between atoms: C5_5  and  N1_6
REMARK    5  A    between atoms: N1_6  and  C6_9
REMARK    6  A    between atoms: N2_12  and  C9_13
ROOT
HETATM    1  C6  UNL     1     -23.403   1.442  -8.582  1.00  0.00     0.189 C
HETATM    2  C7  UNL     1     -22.816   0.311  -9.416  1.00  0.00     0.052 C
HETATM    3  C8  UNL     1     -22.527   0.955 -10.774  1.00  0.00     0.119 C
HETATM    4  N2  UNL     1     -21.476   1.901 -10.589  1.00  0.00    -0.405 N
HETATM    5  C12 UNL     1     -21.741   2.964  -9.689  1.00  0.00     0.119 C
HETATM    6  C13 UNL     1     -22.421   2.559  -8.411  1.00  0.00     0.052 C
ENDROOT
BRANCH   1   7
HETATM    7  N1  UNL     1     -24.689   1.887  -9.062  1.00  0.00    -0.071 N
ATOM      8  H12 UNL     1     -24.806   1.635 -10.044  1.00  0.00     0.277 HD
ATOM      9  H11 UNL     1     -24.705   2.904  -9.137  1.00  0.00     0.277 HD
BRANCH   7  10
HETATM   10  C5  UNL     1     -25.798   1.430  -8.300  1.00  0.00     0.232 C
BRANCH  10  11
HETATM   11  C4  UNL     1     -25.716   1.852  -6.838  1.00  0.00     0.027 C
BRANCH  11  12
HETATM   12  C3  UNL     1     -26.186   0.739  -5.930  1.00  0.00     0.001 C
BRANCH  12  13
HETATM   13  C2  UNL     1     -25.035   0.166  -5.128  1.00  0.00    -0.005 C
HETATM   14  C1  UNL     1     -24.019   1.257  -4.865  1.00  0.00     0.005 C
ENDBRANCH  12  13
ENDBRANCH  11  12
ENDBRANCH  10  11
ENDBRANCH   7  10
ENDBRANCH   1   7
BRANCH   4  15
HETATM   15  C9  UNL     1     -20.188   1.327 -10.471  1.00  0.00     0.130 C
HETATM   16  C10 UNL     1     -19.555   1.087 -11.853  1.00  0.00     0.258 C
HETATM   17  N3  UNL     1     -18.275   1.293 -11.201  1.00  0.00    -0.071 N
HETATM   18  C11 UNL     1     -18.996   2.247 -10.329  1.00  0.00     0.258 C
ATOM     19  H32 UNL     1     -17.734   0.517 -10.819  1.00  0.00     0.277 HD
ATOM     20  H31 UNL     1     -17.442   1.564 -11.723  1.00  0.00     0.277 HD
ENDBRANCH   4  15
TORSDOF 6
ENDMDL