MODEL 4
REMARK VINA RESULT: -5.838199944      1.708      2.996
REMARK  7 active torsions:
REMARK  status: ('A' for Active; 'I' for Inactive)
REMARK    1  A    between atoms: N1_1  and  C1_5
REMARK    2  A    between atoms: C1_5  and  C2_6
REMARK    3  A    between atoms: C6_10  and  C7_11
REMARK    4  A    between atoms: C7_11  and  N2_12
REMARK    5  A    between atoms: N2_12  and  C8_15
REMARK    6  A    between atoms: C8_15  and  C9_16
REMARK    7  A    between atoms: C9_16  and  N3_17
ROOT
HETATM    1  C7  UNL     1     -24.255   0.276  -8.689  1.00  0.00     0.237 C
ENDROOT
BRANCH   1   2
HETATM    2  C6  UNL     1     -24.722   0.190  -7.298  1.00  0.00     0.017 C
HETATM    3  C2  UNL     1     -25.381   1.439  -6.770  1.00  0.00     0.017 C
HETATM    4  C3  UNL     1     -24.386   2.075  -5.815  1.00  0.00     0.007 C
HETATM    5  C4  UNL     1     -23.336   1.067  -5.534  1.00  0.00     0.001 C
HETATM    6  C5  UNL     1     -23.745  -0.185  -6.252  1.00  0.00     0.007 C
BRANCH   3   7
HETATM    7  C1  UNL     1     -26.598   1.091  -5.939  1.00  0.00     0.234 C
BRANCH   7   8
HETATM    8  N1  UNL     1     -27.441   0.212  -6.745  1.00  0.00    -0.079 N
ATOM      9  H13 UNL     1     -28.155   0.717  -7.270  1.00  0.00     0.274 HD
ATOM     10  H12 UNL     1     -26.948  -0.189  -7.543  1.00  0.00     0.274 HD
ATOM     11  H11 UNL     1     -27.830  -0.494  -6.121  1.00  0.00     0.274 HD
ENDBRANCH   7   8
ENDBRANCH   3   7
ENDBRANCH   1   2
BRANCH   1  12
HETATM   12  N2  UNL     1     -22.848   0.124  -8.905  1.00  0.00    -0.073 N
ATOM     13  H22 UNL     1     -22.326   0.416  -8.079  1.00  0.00     0.277 HD
ATOM     14  H21 UNL     1     -22.596  -0.865  -8.928  1.00  0.00     0.277 HD
BRANCH  12  15
HETATM   15  C8  UNL     1     -22.362   0.788 -10.061  1.00  0.00     0.262 C
BRANCH  15  16
HETATM   16  C9  UNL     1     -21.348   1.850  -9.858  1.00  0.00     0.299 C
BRANCH  16  17
HETATM   17  N3  UNL     1     -21.746   3.171  -9.666  1.00  0.00     0.090 N
HETATM   18  C10 UNL     1     -20.524   4.003  -9.722  1.00  0.00     0.272 C
HETATM   19  C11 UNL     1     -20.022   3.919  -8.258  1.00  0.00     0.032 C
HETATM   20  C12 UNL     1     -21.249   3.473  -7.468  1.00  0.00     0.032 C
HETATM   21  C13 UNL     1     -22.336   3.631  -8.490  1.00  0.00     0.272 C
ENDBRANCH  16  17
ENDBRANCH  15  16
ENDBRANCH  12  15
ENDBRANCH   1  12
TORSDOF 7
ENDMDL