MODEL 4
REMARK VINA RESULT: -6.109947535      1.434      2.068
REMARK  5 active torsions:
REMARK  status: ('A' for Active; 'I' for Inactive)
REMARK    1  A    between atoms: O1_2  and  N1_3
REMARK    2  A    between atoms: N1_3  and  S1_5
REMARK    3  A    between atoms: S1_5  and  N2_8
REMARK    4  A    between atoms: N2_8  and  C3_10
REMARK    5  A    between atoms: C3_10  and  C4_11
ROOT
HETATM    1  N2  UNL     1     -22.790   2.335  -9.177  1.00  0.00    -0.335 N
ATOM      2  H2  UNL     1     -23.299   2.931  -9.830  1.00  0.00     0.170 HD
ENDROOT
BRANCH   1   3
HETATM    3  S1  UNL     1     -22.406   0.599  -9.615  1.00  0.00     0.121 S
HETATM    4  C2  UNL     1     -24.001   0.485 -10.639  1.00  0.00     0.162 C
HETATM    5  O2  UNL     1     -22.279  -0.983  -9.416  1.00  0.00    -0.227 OA
BRANCH   3   6
HETATM    6  N1  UNL     1     -20.804   0.861 -10.178  1.00  0.00    -0.210 N
ATOM      7  H1  UNL     1     -20.399   1.767  -9.945  1.00  0.00     0.205 HD
BRANCH   6   8
HETATM    8  O1  UNL     1     -20.019   0.042 -10.877  1.00  0.00    -0.277 OA
HETATM    9  C1  UNL     1     -20.243   0.289 -12.243  1.00  0.00     0.238 C
ENDBRANCH   6   8
ENDBRANCH   3   6
ENDBRANCH   1   3
BRANCH   1  10
HETATM   10  C3  UNL     1     -22.368   2.850  -7.904  1.00  0.00     0.135 C
BRANCH  10  11
HETATM   11  C4  UNL     1     -23.355   2.629  -6.816  1.00  0.00     0.004 C
HETATM   12  C5  UNL     1     -24.741   2.797  -7.375  1.00  0.00     0.006 C
HETATM   13  C6  UNL     1     -25.566   1.536  -7.171  1.00  0.00     0.000 C
HETATM   14  C7  UNL     1     -25.660   1.138  -5.729  1.00  0.00     0.000 C
HETATM   15  C8  UNL     1     -24.417   1.465  -4.986  1.00  0.00     0.000 C
HETATM   16  C9  UNL     1     -23.208   1.462  -5.944  1.00  0.00     0.006 C
ENDBRANCH  10  11
ENDBRANCH   1  10
TORSDOF 5
ENDMDL