MODEL 3
REMARK VINA RESULT: -4.669591691      3.108      4.751
REMARK  4 active torsions:
REMARK  status: ('A' for Active; 'I' for Inactive)
REMARK    1  A    between atoms: S1_2  and  N1_5
REMARK    2  A    between atoms: N1_5  and  C2_7
REMARK    3  A    between atoms: C4_11  and  C5_12
REMARK    4  A    between atoms: C5_12  and  C6_13
ROOT
HETATM    1  C2  UNL     1      -9.506  15.215  21.489  1.00  0.00     0.691 A
HETATM    2  N2  UNL     1      -9.638  15.680  20.224  1.00  0.00    -0.201 N
ATOM      3  H2  UNL     1     -10.552  15.633  19.775  1.00  0.00     0.183 HD
HETATM    4  C3  UNL     1      -8.610  16.199  19.544  1.00  0.00     0.115 A
HETATM    5  C4  UNL     1      -7.379  16.269  20.129  1.00  0.00    -0.019 A
HETATM    6  C8  UNL     1      -7.267  15.792  21.411  1.00  0.00     0.115 A
HETATM    7  N6  UNL     1      -8.313  15.271  22.088  1.00  0.00    -0.201 N
ATOM      8  H6  UNL     1      -8.195  14.926  23.040  1.00  0.00     0.183 HD
ENDROOT
BRANCH   5   9
HETATM    9  C5  UNL     1      -6.241  16.825  19.420  1.00  0.00     0.119 C
BRANCH   9  10
HETATM   10  C6  UNL     1      -5.421  15.817  18.718  1.00  0.00     0.104 A
HETATM   11  N3  UNL     1      -4.083  15.825  18.645  1.00  0.00    -0.295 N
HETATM   12  C7  UNL     1      -3.669  14.755  17.927  1.00  0.00     0.340 A
ATOM     13  H3  UNL     1      -3.472  16.527  19.064  1.00  0.00     0.172 HD
HETATM   14  O3  UNL     1      -2.478  14.444  17.655  1.00  0.00    -0.245 OA
HETATM   15  N4  UNL     1      -4.791  14.104  17.570  1.00  0.00    -0.250 N
HETATM   16  N5  UNL     1      -5.847  14.740  18.044  1.00  0.00    -0.285 N
ATOM     17  H4  UNL     1      -4.822  13.248  17.016  1.00  0.00     0.192 HD
ATOM     18  H5  UNL     1      -6.819  14.459  17.919  1.00  0.00     0.188 HD
ENDBRANCH   9  10
ENDBRANCH   5   9
BRANCH   1  19
HETATM   19  N1  UNL     1     -10.549  14.730  22.075  1.00  0.00    -0.117 N
ATOM     20  H1  UNL     1     -10.955  15.237  22.861  1.00  0.00     0.197 HD
BRANCH  19  21
HETATM   21  S1  UNL     1     -11.273  13.266  21.573  1.00  0.00     0.240 S
HETATM   22  C1  UNL     1     -10.039  12.098  21.024  1.00  0.00     0.186 C
HETATM   23  O1  UNL     1     -12.019  12.669  22.734  1.00  0.00    -0.206 OA
HETATM   24  O2  UNL     1     -12.187  13.550  20.406  1.00  0.00    -0.206 OA
ENDBRANCH  19  21
ENDBRANCH   1  19
TORSDOF 4
ENDMDL