MODEL 5
REMARK VINA RESULT: -5.953946569      2.182      3.978
REMARK  8 active torsions:
REMARK  status: ('A' for Active; 'I' for Inactive)
REMARK    1  A    between atoms: O1_2  and  C2_3
REMARK    2  A    between atoms: C2_3  and  C3_4
REMARK    3  A    between atoms: C3_4  and  O2_5
REMARK    4  A    between atoms: O2_5  and  C4_6
REMARK    5  A    between atoms: C10_12  and  N1_13
REMARK    6  A    between atoms: C11_18  and  N3_19
REMARK    7  A    between atoms: N3_19  and  N4_21
REMARK    8  A    between atoms: N6_26  and  O3_27
ROOT
HETATM    1  C4  UNL     1      -6.744  16.725  21.016  1.00  0.00     0.069 A
HETATM    2  C5  UNL     1      -5.852  16.364  19.992  1.00  0.00     0.039 A
HETATM    3  C6  UNL     1      -5.956  15.162  19.339  1.00  0.00     0.037 A
HETATM    4  C7  UNL     1      -6.931  14.243  19.641  1.00  0.00     0.096 A
HETATM    5  C8  UNL     1      -7.817  14.570  20.639  1.00  0.00     0.042 A
HETATM    6  C9  UNL     1      -7.713  15.789  21.304  1.00  0.00     0.054 A
HETATM    7  C10 UNL     1      -8.857  13.784  21.083  1.00  0.00     0.127 C
HETATM    8  N2  UNL     1      -9.253  12.543  20.688  1.00  0.00    -0.173 N
ATOM      9  H2  UNL     1     -10.116  12.181  21.091  1.00  0.00     0.186 HD
HETATM   10  C11 UNL     1      -8.606  11.751  19.814  1.00  0.00     0.714 C
HETATM   11  N5  UNL     1      -7.648  12.051  18.926  1.00  0.00    -0.104 N
ATOM     12  H5  UNL     1      -7.501  11.366  18.185  1.00  0.00     0.208 HD
HETATM   13  N6  UNL     1      -6.855  13.134  18.884  1.00  0.00    -0.148 N
ENDROOT
BRANCH   1  14
HETATM   14  O2  UNL     1      -6.575  17.932  21.619  1.00  0.00    -0.349 OA
BRANCH  14  15
HETATM   15  C3  UNL     1      -7.087  19.163  21.325  1.00  0.00     0.201 C
BRANCH  15  16
HETATM   16  C2  UNL     1      -8.389  19.075  20.604  1.00  0.00     0.193 C
BRANCH  16  17
HETATM   17  O1  UNL     1      -9.498  18.937  21.406  1.00  0.00    -0.394 OA
HETATM   18  C1  UNL     1     -10.246  17.834  21.082  1.00  0.00     0.201 C
ENDBRANCH  16  17
ENDBRANCH  15  16
ENDBRANCH  14  15
ENDBRANCH   1  14
BRANCH   7  19
HETATM   19  N1  UNL     1      -9.555  14.321  22.016  1.00  0.00    -0.384 N
ATOM     20  H12 UNL     1      -9.534  15.340  22.055  1.00  0.00     0.157 HD
ATOM     21  H11 UNL     1     -10.047  13.648  22.605  1.00  0.00     0.157 HD
ENDBRANCH   7  19
BRANCH  13  22
HETATM   22  O3  UNL     1      -5.928  13.144  18.053  1.00  0.00    -0.267 OA
ATOM     23  H3  UNL     1      -5.777  12.309  17.627  1.00  0.00     0.247 HD
ENDBRANCH  13  22
BRANCH  10  24
HETATM   24  N3  UNL     1      -8.996  10.500  19.862  1.00  0.00    -0.137 N
ATOM     25  H3  UNL     1      -8.763   9.937  20.680  1.00  0.00     0.205 HD
BRANCH  24  26
HETATM   26  N4  UNL     1      -9.718   9.923  18.829  1.00  0.00    -0.331 N
ATOM     27  H42 UNL     1     -10.109   8.993  18.977  1.00  0.00     0.177 HD
ATOM     28  H41 UNL     1      -9.860  10.403  17.941  1.00  0.00     0.177 HD
ENDBRANCH  24  26
ENDBRANCH  10  24
TORSDOF 8
ENDMDL