MODEL 5
REMARK VINA RESULT: -6.201860897      2.597      4.971
REMARK  5 active torsions:
REMARK  status: ('A' for Active; 'I' for Inactive)
REMARK    1  A    between atoms: N1_1  and  C1_5
REMARK    2  A    between atoms: C1_5  and  C2_6
REMARK    3  A    between atoms: C2_6  and  N2_7
REMARK    4  A    between atoms: N2_7  and  S1_9
REMARK    5  A    between atoms: S1_9  and  C3_12
ROOT
HETATM    1  C3  UNL     1      -9.977  14.779  20.386  1.00  0.00     0.080 A
HETATM    2  C4  UNL     1     -10.830  15.830  20.613  1.00  0.00     0.026 A
HETATM    3  C5  UNL     1     -10.346  17.129  20.820  1.00  0.00     0.020 A
HETATM    4  C6  UNL     1      -8.995  17.353  20.796  1.00  0.00     0.049 A
HETATM    5  C7  UNL     1      -8.442  18.612  20.993  1.00  0.00     0.271 A
HETATM    6  O3  UNL     1      -9.249  19.553  21.198  1.00  0.00    -0.266 OA
HETATM    7  N3  UNL     1      -7.115  18.832  20.968  1.00  0.00    -0.263 N
ATOM      8  H3  UNL     1      -6.748  19.772  21.116  1.00  0.00     0.190 HD
HETATM    9  N4  UNL     1      -6.290  17.824  20.750  1.00  0.00    -0.263 N
ATOM     10  H4  UNL     1      -5.283  17.986  20.730  1.00  0.00     0.190 HD
HETATM   11  C8  UNL     1      -6.775  16.579  20.552  1.00  0.00     0.271 A
HETATM   12  O4  UNL     1      -5.984  15.636  20.347  1.00  0.00    -0.266 OA
HETATM   13  C9  UNL     1      -8.118  16.310  20.569  1.00  0.00     0.051 A
HETATM   14  C10 UNL     1      -8.631  15.037  20.367  1.00  0.00     0.043 A
ENDROOT
BRANCH   1  15
HETATM   15  S1  UNL     1     -10.628  13.193  20.136  1.00  0.00     0.258 S
HETATM   16  O1  UNL     1     -12.048  13.336  19.683  1.00  0.00    -0.201 OA
HETATM   17  O2  UNL     1     -10.671  12.396  21.426  1.00  0.00    -0.201 OA
BRANCH  15  18
HETATM   18  N2  UNL     1      -9.706  12.266  19.016  1.00  0.00    -0.314 N
ATOM     19  H2  UNL     1      -9.739  12.361  18.002  1.00  0.00     0.172 HD
BRANCH  18  20
HETATM   20  C2  UNL     1      -8.883  11.339  19.736  1.00  0.00     0.159 C
BRANCH  20  21
HETATM   21  C1  UNL     1      -7.531  11.871  20.089  1.00  0.00     0.249 C
BRANCH  21  22
HETATM   22  N1  UNL     1      -6.970  12.459  18.865  1.00  0.00    -0.078 N
ATOM     23  H13 UNL     1      -6.901  13.476  18.903  1.00  0.00     0.274 HD
ATOM     24  H12 UNL     1      -5.975  12.266  18.747  1.00  0.00     0.274 HD
ATOM     25  H11 UNL     1      -7.539  12.124  18.087  1.00  0.00     0.274 HD
ENDBRANCH  21  22
ENDBRANCH  20  21
ENDBRANCH  18  20
ENDBRANCH  15  18
ENDBRANCH   1  15
TORSDOF 5
ENDMDL