MODEL 5
REMARK VINA RESULT: -6.025898779      2.293      4.475
REMARK  7 active torsions:
REMARK  status: ('A' for Active; 'I' for Inactive)
REMARK    1  A    between atoms: O1_2  and  C2_3
REMARK    2  A    between atoms: C7_8  and  C8_9
REMARK    3  A    between atoms: C8_9  and  C9_10
REMARK    4  A    between atoms: C10_13  and  C11_14
REMARK    5  A    between atoms: C11_14  and  N2_15
REMARK    6  A    between atoms: N2_15  and  N3_17
REMARK    7  A    between atoms: N3_17  and  N4_19
ROOT
HETATM    1  C9  UNL     1      -6.527  15.160  20.203  1.00  0.00     0.103 A
HETATM    2  N1  UNL     1      -7.207  14.012  20.353  1.00  0.00    -0.337 N
ATOM      3  H1  UNL     1      -7.822  13.808  21.140  1.00  0.00     0.167 HD
HETATM    4  C10 UNL     1      -6.978  13.164  19.338  1.00  0.00     0.125 A
HETATM    5  N5  UNL     1      -6.114  13.812  18.515  1.00  0.00    -0.306 N
ATOM      6  H5  UNL     1      -5.739  13.436  17.644  1.00  0.00     0.170 HD
HETATM    7  C13 UNL     1      -5.828  15.026  19.023  1.00  0.00     0.273 A
HETATM    8  O2  UNL     1      -5.068  15.906  18.544  1.00  0.00    -0.266 OA
ENDROOT
BRANCH   1   9
HETATM    9  C8  UNL     1      -6.516  16.222  21.017  1.00  0.00     0.049 C
BRANCH   9  10
HETATM   10  C7  UNL     1      -7.558  17.216  21.023  1.00  0.00    -0.001 A
HETATM   11  C2  UNL     1      -8.889  16.887  21.251  1.00  0.00     0.078 A
HETATM   12  C3  UNL     1      -9.882  17.845  21.256  1.00  0.00     0.037 A
HETATM   13  C4  UNL     1      -9.588  19.171  21.033  1.00  0.00     0.003 A
HETATM   14  C5  UNL     1      -8.277  19.510  20.805  1.00  0.00     0.001 A
HETATM   15  C6  UNL     1      -7.284  18.551  20.801  1.00  0.00     0.014 A
BRANCH  11  16
HETATM   16  O1  UNL     1      -9.176  15.555  21.475  1.00  0.00    -0.355 OA
HETATM   17  C1  UNL     1     -10.214  15.157  22.350  1.00  0.00     0.210 C
ENDBRANCH  11  16
ENDBRANCH   9  10
ENDBRANCH   1   9
BRANCH   4  18
HETATM   18  C11 UNL     1      -7.462  11.951  19.133  1.00  0.00     0.152 C
BRANCH  18  19
HETATM   19  N2  UNL     1      -8.823  11.647  19.397  1.00  0.00    -0.310 N
ATOM     20  H2  UNL     1      -9.216  10.787  19.013  1.00  0.00     0.182 HD
BRANCH  19  21
HETATM   21  N3  UNL     1      -9.651  12.486  20.167  1.00  0.00    -0.151 NA
HETATM   22  C12 UNL     1     -10.727  13.043  19.376  1.00  0.00     0.162 C
BRANCH  21  23
HETATM   23  N4  UNL     1     -10.132  11.848  21.307  1.00  0.00    -0.346 NA
ATOM     24  H42 UNL     1     -10.616  12.500  21.925  1.00  0.00     0.172 HD
ATOM     25  H41 UNL     1     -10.715  11.042  21.081  1.00  0.00     0.172 HD
ENDBRANCH  21  23
ENDBRANCH  19  21
ENDBRANCH  18  19
ENDBRANCH   4  18
TORSDOF 7
ENDMDL