MODEL 2
REMARK VINA RESULT: -7.643041892      1.001      1.104
REMARK  6 active torsions:
REMARK  status: ('A' for Active; 'I' for Inactive)
REMARK    1  A    between atoms: N1_1  and  C1_5
REMARK    2  A    between atoms: C1_5  and  C2_6
REMARK    3  A    between atoms: C2_6  and  C3_7
REMARK    4  A    between atoms: C5_9  and  N2_10
REMARK    5  A    between atoms: N2_10  and  S1_12
REMARK    6  A    between atoms: S1_12  and  C6_15
ROOT
HETATM    1  C3  UNL     1      -6.341  16.037  20.273  1.00  0.00     0.019 A
HETATM    2  C4  UNL     1      -7.315  15.101  20.399  1.00  0.00     0.074 A
HETATM    3  C5  UNL     1      -7.385  13.922  19.636  1.00  0.00     0.120 A
HETATM    4  N5  UNL     1      -6.405  13.768  18.746  1.00  0.00    -0.294 N
ATOM      5  H5  UNL     1      -6.400  12.932  18.162  1.00  0.00     0.172 HD
HETATM    6  C9  UNL     1      -5.402  14.689  18.586  1.00  0.00     0.326 A
HETATM    7  O3  UNL     1      -4.544  14.414  17.710  1.00  0.00    -0.247 OA
HETATM    8  N6  UNL     1      -5.381  15.801  19.342  1.00  0.00    -0.312 N
ATOM      9  H6  UNL     1      -4.630  16.480  19.215  1.00  0.00     0.170 HD
ENDROOT
BRANCH   3  10
HETATM   10  N2  UNL     1      -8.330  13.149  19.853  1.00  0.00    -0.264 N
ATOM     11  H2  UNL     1      -8.012  12.184  19.766  1.00  0.00     0.180 HD
BRANCH  10  12
HETATM   12  S1  UNL     1      -9.937  13.175  20.236  1.00  0.00     0.281 S
HETATM   13  O1  UNL     1     -10.221  12.028  21.218  1.00  0.00    -0.199 OA
HETATM   14  O2  UNL     1     -10.833  12.930  19.029  1.00  0.00    -0.199 OA
BRANCH  12  15
HETATM   15  C6  UNL     1     -10.545  14.618  21.006  1.00  0.00     0.165 A
HETATM   16  C7  UNL     1     -10.520  15.858  20.412  1.00  0.00     0.132 A
HETATM   17  N3  UNL     1     -11.080  16.707  21.280  1.00  0.00    -0.359 N
HETATM   18  C8  UNL     1     -11.456  16.051  22.391  1.00  0.00     0.181 A
ATOM     19  H3  UNL     1     -11.205  17.707  21.122  1.00  0.00     0.166 HD
HETATM   20  N4  UNL     1     -11.120  14.768  22.206  1.00  0.00    -0.341 N
ATOM     21  H4  UNL     1     -11.277  14.018  22.879  1.00  0.00     0.167 HD
ENDBRANCH  12  15
ENDBRANCH  10  12
ENDBRANCH   3  10
BRANCH   1  22
HETATM   22  C2  UNL     1      -6.233  17.274  21.047  1.00  0.00     0.084 C
BRANCH  22  23
HETATM   23  C1  UNL     1      -7.501  18.015  21.243  1.00  0.00     0.235 C
BRANCH  23  24
HETATM   24  N1  UNL     1      -7.263  19.415  20.916  1.00  0.00    -0.079 N
ATOM     25  H13 UNL     1      -8.127  19.937  20.770  1.00  0.00     0.274 HD
ATOM     26  H12 UNL     1      -6.912  19.951  21.710  1.00  0.00     0.274 HD
ATOM     27  H11 UNL     1      -6.640  19.451  20.110  1.00  0.00     0.274 HD
ENDBRANCH  23  24
ENDBRANCH  22  23
ENDBRANCH   1  22
TORSDOF 6
ENDMDL