MODEL 4
REMARK VINA RESULT: -6.662277845      1.875      3.742
REMARK  7 active torsions:
REMARK  status: ('A' for Active; 'I' for Inactive)
REMARK    1  A    between atoms: C2_2  and  C3_3
REMARK    2  A    between atoms: C3_3  and  N1_4
REMARK    3  A    between atoms: N2_7  and  N3_8
REMARK    4  A    between atoms: N3_8  and  C5_10
REMARK    5  A    between atoms: C6_13  and  N5_14
REMARK    6  A    between atoms: C7_19  and  N7_20
REMARK    7  A    between atoms: N7_20  and  C8_22
ROOT
HETATM    1  C5  UNL     1      -7.178  14.097  19.577  1.00  0.00     0.726 A
HETATM    2  N4  UNL     1      -6.121  13.725  18.843  1.00  0.00    -0.020 N
ATOM      3  H4  UNL     1      -5.934  12.739  18.663  1.00  0.00     0.203 HD
HETATM    4  C6  UNL     1      -5.313  14.674  18.350  1.00  0.00     0.705 A
HETATM    5  N6  UNL     1      -5.590  15.978  18.608  1.00  0.00    -0.022 N
ATOM      6  H6  UNL     1      -4.967  16.690  18.226  1.00  0.00     0.203 HD
HETATM    7  C7  UNL     1      -6.641  16.378  19.339  1.00  0.00     0.707 A
HETATM    8  N8  UNL     1      -7.430  15.403  19.818  1.00  0.00    -0.020 N
ATOM      9  H8  UNL     1      -8.243  15.655  20.380  1.00  0.00     0.203 HD
ENDROOT
BRANCH   1  10
HETATM   10  N3  UNL     1      -7.968  13.213  20.060  1.00  0.00    -0.116 N
ATOM     11  H3  UNL     1      -7.784  12.225  19.888  1.00  0.00     0.206 HD
BRANCH  10  12
HETATM   12  N2  UNL     1      -9.084  13.588  20.824  1.00  0.00    -0.138 N
HETATM   13  C4  UNL     1     -10.495  13.632  20.650  1.00  0.00     0.356 A
HETATM   14  N1  UNL     1     -10.686  14.141  21.963  1.00  0.00    -0.244 N
HETATM   15  O1  UNL     1     -11.248  13.324  19.675  1.00  0.00    -0.244 OA
HETATM   16  C10 UNL     1      -9.277  14.096  22.138  1.00  0.00     0.356 A
HETATM   17  O2  UNL     1      -8.546  14.410  23.127  1.00  0.00    -0.244 OA
BRANCH  14  18
HETATM   18  C3  UNL     1     -11.842  14.535  22.773  1.00  0.00     0.165 C
BRANCH  18  19
HETATM   19  C2  UNL     1     -11.818  15.979  23.036  1.00  0.00    -0.017 C
HETATM   20  C1  UNL     1     -11.558  16.856  22.088  1.00  0.00     0.008 C
ENDBRANCH  18  19
ENDBRANCH  14  18
ENDBRANCH  10  12
ENDBRANCH   1  10
BRANCH   4  21
HETATM   21  N5  UNL     1      -4.264  14.360  17.626  1.00  0.00    -0.234 N
ATOM     22  H52 UNL     1      -4.203  13.439  17.192  1.00  0.00     0.174 HD
ATOM     23  H51 UNL     1      -3.502  15.024  17.487  1.00  0.00     0.174 HD
ENDBRANCH   4  21
BRANCH   7  24
HETATM   24  N7  UNL     1      -6.844  17.617  19.544  1.00  0.00    -0.225 N
ATOM     25  H7  UNL     1      -6.827  18.227  18.726  1.00  0.00     0.177 HD
BRANCH  24  26
HETATM   26  C8  UNL     1      -7.094  18.238  20.801  1.00  0.00     0.133 C
HETATM   27  C9  UNL     1      -8.589  18.578  20.848  1.00  0.00     0.027 C
ENDBRANCH  24  26
ENDBRANCH   7  24
TORSDOF 7
ENDMDL