MODEL 2
REMARK VINA RESULT: -7.512712340      2.069      3.901
REMARK  6 active torsions:
REMARK  status: ('A' for Active; 'I' for Inactive)
REMARK    1  A    between atoms: C2_2  and  O1_3
REMARK    2  A    between atoms: O1_3  and  C3_4
REMARK    3  A    between atoms: C3_4  and  C4_5
REMARK    4  A    between atoms: C4_5  and  N1_6
REMARK    5  A    between atoms: N1_6  and  C5_8
REMARK    6  A    between atoms: C6_11  and  N3_12
ROOT
HETATM    1  C5  UNL     1      -6.890  15.863  21.012  1.00  0.00     0.680 A
HETATM    2  N2  UNL     1      -6.151  15.446  19.968  1.00  0.00    -0.175 N
ATOM      3  H2  UNL     1      -5.363  15.999  19.630  1.00  0.00     0.186 HD
HETATM    4  C6  UNL     1      -6.478  14.281  19.379  1.00  0.00     0.146 A
HETATM    5  C8  UNL     1      -7.544  13.539  19.840  1.00  0.00     0.114 A
HETATM    6  N4  UNL     1      -7.889  12.385  19.278  1.00  0.00    -0.303 N
ATOM      7  H4  UNL     1      -7.359  12.026  18.484  1.00  0.00     0.171 HD
HETATM    8  C9  UNL     1      -8.934  11.691  19.755  1.00  0.00     0.327 A
HETATM    9  O2  UNL     1      -9.209  10.600  19.175  1.00  0.00    -0.247 OA
HETATM   10  N5  UNL     1      -9.654  12.120  20.791  1.00  0.00    -0.274 N
ATOM     11  H5  UNL     1     -10.441  11.564  21.124  1.00  0.00     0.173 HD
HETATM   12  C10 UNL     1      -9.352  13.281  21.401  1.00  0.00     0.279 A
HETATM   13  O3  UNL     1     -10.044  13.676  22.381  1.00  0.00    -0.265 OA
HETATM   14  C11 UNL     1      -8.282  14.009  20.924  1.00  0.00     0.147 A
HETATM   15  N6  UNL     1      -7.943  15.175  21.502  1.00  0.00    -0.184 N
ATOM     16  H6  UNL     1      -8.473  15.532  22.297  1.00  0.00     0.184 HD
ENDROOT
BRANCH   1  17
HETATM   17  N1  UNL     1      -6.568  16.972  21.561  1.00  0.00    -0.224 N
ATOM     18  H1  UNL     1      -5.833  16.971  22.268  1.00  0.00     0.177 HD
BRANCH  17  19
HETATM   19  C4  UNL     1      -7.203  18.234  21.220  1.00  0.00     0.164 C
BRANCH  19  20
HETATM   20  C3  UNL     1      -8.504  17.939  20.476  1.00  0.00     0.187 C
BRANCH  20  21
HETATM   21  O1  UNL     1      -9.593  18.034  21.339  1.00  0.00    -0.390 OA
BRANCH  21  22
HETATM   22  C2  UNL     1     -10.599  17.157  21.022  1.00  0.00     0.163 C
HETATM   23  C1  UNL     1     -11.453  16.783  22.215  1.00  0.00     0.033 C
ENDBRANCH  21  22
ENDBRANCH  20  21
ENDBRANCH  19  20
ENDBRANCH  17  19
ENDBRANCH   1  17
BRANCH   4  24
HETATM   24  N3  UNL     1      -5.790  13.865  18.386  1.00  0.00    -0.378 N
HETATM   25  C7  UNL     1      -4.611  14.536  17.898  1.00  0.00     0.147 C
ATOM     26  H3  UNL     1      -6.092  13.013  17.912  1.00  0.00     0.160 HD
ENDBRANCH   4  24
TORSDOF 6
ENDMDL