MODEL 3
REMARK VINA RESULT: -7.012712867      1.932      3.861
REMARK  5 active torsions:
REMARK  status: ('A' for Active; 'I' for Inactive)
REMARK    1  A    between atoms: C4_5  and  N2_6
REMARK    2  A    between atoms: C6_8  and  C7_9
REMARK    3  A    between atoms: C7_9  and  C8_10
REMARK    4  A    between atoms: C8_10  and  C9_11
REMARK    5  A    between atoms: C9_11  and  N3_12
ROOT
HETATM    1  N1  UNL     1      -8.099  14.469  23.627  1.00  0.00    -0.196 NA
HETATM    2  C1  UNL     1      -8.536  14.339  22.541  1.00  0.00     0.077 C
HETATM    3  C2  UNL     1      -9.113  14.157  21.189  1.00  0.00     0.208 A
HETATM    4  C3  UNL     1      -8.029  13.753  20.288  1.00  0.00     0.054 A
HETATM    5  C4  UNL     1      -7.045  14.538  19.969  1.00  0.00     0.142 C
HETATM    6  N5  UNL     1      -8.037  12.450  19.695  1.00  0.00    -0.331 N
ATOM      7  H5  UNL     1      -7.227  12.159  19.146  1.00  0.00     0.168 HD
HETATM    8  C11 UNL     1      -9.020  11.628  19.821  1.00  0.00     0.193 A
HETATM    9  N6  UNL     1      -8.991  10.341  19.209  1.00  0.00    -0.063 NA
HETATM   10  N7  UNL     1     -10.097  12.046  20.631  1.00  0.00    -0.321 N
ATOM     11  H7  UNL     1     -10.875  11.392  20.721  1.00  0.00     0.169 HD
HETATM   12  C12 UNL     1     -10.208  13.141  21.259  1.00  0.00     0.119 A
HETATM   13  N8  UNL     1     -11.347  13.485  22.058  1.00  0.00    -0.086 NA
ENDROOT
BRANCH   5  14
HETATM   14  N2  UNL     1      -6.926  15.855  20.456  1.00  0.00    -0.277 N
HETATM   15  C5  UNL     1      -7.836  16.837  20.167  1.00  0.00     0.124 A
HETATM   16  C6  UNL     1      -7.452  17.999  20.795  1.00  0.00    -0.024 A
HETATM   17  C10 UNL     1      -6.291  17.710  21.472  1.00  0.00     0.116 A
HETATM   18  N4  UNL     1      -6.014  16.394  21.234  1.00  0.00    -0.306 N
ATOM     19  H4  UNL     1      -5.208  15.895  21.610  1.00  0.00     0.186 HD
BRANCH  16  20
HETATM   20  C7  UNL     1      -8.182  19.283  20.722  1.00  0.00     0.043 C
BRANCH  20  21
HETATM   21  C8  UNL     1      -9.596  19.085  21.237  1.00  0.00     0.032 C
BRANCH  21  22
HETATM   22  C9  UNL     1     -10.074  17.664  20.913  1.00  0.00     0.230 C
BRANCH  22  23
HETATM   23  N3  UNL     1     -11.157  17.298  21.785  1.00  0.00    -0.079 N
ATOM     24  H33 UNL     1     -10.845  16.699  22.550  1.00  0.00     0.274 HD
ATOM     25  H32 UNL     1     -11.486  18.089  22.339  1.00  0.00     0.274 HD
ATOM     26  H31 UNL     1     -11.909  16.869  21.246  1.00  0.00     0.274 HD
ENDBRANCH  22  23
ENDBRANCH  21  22
ENDBRANCH  20  21
ENDBRANCH  16  20
ENDBRANCH   5  14
TORSDOF 5
ENDMDL