MODEL 4
REMARK VINA RESULT: -5.405402287      2.257      3.191
REMARK  8 active torsions:
REMARK  status: ('A' for Active; 'I' for Inactive)
REMARK    1  A    between atoms: N1_2  and  C2_4
REMARK    2  A    between atoms: C3_7  and  N3_8
REMARK    3  A    between atoms: N3_8  and  C4_10
REMARK    4  A    between atoms: C4_10  and  C5_11
REMARK    5  A    between atoms: C5_11  and  C6_12
REMARK    6  A    between atoms: C6_12  and  N4_13
REMARK    7  A    between atoms: C9_21  and  S1_22
REMARK    8  A    between atoms: S1_22  and  N6_23
ROOT
HETATM    1  C2  UNL     1      -6.956  16.259  21.299  1.00  0.00     0.142 A
HETATM    2  N2  UNL     1      -7.463  15.908  22.494  1.00  0.00    -0.175 N
ATOM      3  H2  UNL     1      -7.502  16.615  23.229  1.00  0.00     0.186 HD
HETATM    4  C3  UNL     1      -7.922  14.672  22.769  1.00  0.00     0.679 A
HETATM    5  N5  UNL     1      -7.881  13.728  21.813  1.00  0.00    -0.194 N
ATOM      6  H5  UNL     1      -8.229  12.792  22.019  1.00  0.00     0.184 HD
HETATM    7  C7  UNL     1      -7.387  13.997  20.582  1.00  0.00     0.050 A
HETATM    8  C8  UNL     1      -7.370  12.927  19.587  1.00  0.00     0.070 C
HETATM    9  C9  UNL     1      -6.915  15.289  20.319  1.00  0.00     0.146 A
ENDROOT
BRANCH   4  10
HETATM   10  N3  UNL     1      -8.404  14.379  23.942  1.00  0.00    -0.226 N
ATOM     11  H3  UNL     1      -9.382  14.563  24.165  1.00  0.00     0.177 HD
BRANCH  10  12
HETATM   12  C4  UNL     1      -7.525  13.793  24.920  1.00  0.00     0.139 C
BRANCH  12  13
HETATM   13  C5  UNL     1      -6.540  14.858  25.355  1.00  0.00     0.047 C
BRANCH  13  14
HETATM   14  C6  UNL     1      -5.389  14.260  26.132  1.00  0.00     0.231 C
BRANCH  14  15
HETATM   15  N4  UNL     1      -4.530  15.386  26.518  1.00  0.00    -0.079 N
ATOM     16  H43 UNL     1      -4.119  15.876  25.722  1.00  0.00     0.274 HD
ATOM     17  H42 UNL     1      -5.046  16.179  26.898  1.00  0.00     0.274 HD
ATOM     18  H41 UNL     1      -3.837  15.005  27.163  1.00  0.00     0.274 HD
ENDBRANCH  14  15
ENDBRANCH  13  14
ENDBRANCH  12  13
ENDBRANCH  10  12
ENDBRANCH   4  10
BRANCH   1  19
HETATM   19  N1  UNL     1      -6.515  17.461  21.050  1.00  0.00    -0.379 N
HETATM   20  C1  UNL     1      -7.368  18.591  20.884  1.00  0.00     0.147 C
ATOM     21  H1  UNL     1      -5.507  17.600  20.970  1.00  0.00     0.160 HD
ENDBRANCH   1  19
BRANCH   9  22
HETATM   22  S1  UNL     1      -6.277  15.666  18.754  1.00  0.00     0.262 S
HETATM   23  O1  UNL     1      -7.076  16.679  18.010  1.00  0.00    -0.201 OA
HETATM   24  O2  UNL     1      -4.898  16.285  18.957  1.00  0.00    -0.201 OA
BRANCH  22  25
HETATM   25  N6  UNL     1      -5.996  14.234  17.811  1.00  0.00    -0.324 N
ATOM     26  H62 UNL     1      -6.327  13.309  18.085  1.00  0.00     0.169 HD
ATOM     27  H61 UNL     1      -5.465  14.437  16.964  1.00  0.00     0.169 HD
ENDBRANCH  22  25
ENDBRANCH   9  22
TORSDOF 8
ENDMDL