MODEL 4
REMARK VINA RESULT: -8.049776979      1.024      1.943
REMARK  4 active torsions:
REMARK  status: ('A' for Active; 'I' for Inactive)
REMARK    1  A    between atoms: C4_8  and  N2_9
REMARK    2  A    between atoms: N2_9  and  N3_11
REMARK    3  A    between atoms: N3_11  and  S1_13
REMARK    4  A    between atoms: S1_13  and  C5_16
ROOT
HETATM    1  N2  UNL     1      -7.953  12.214  20.223  1.00  0.00    -0.300 N
ATOM      2  H2  UNL     1      -8.061  11.205  20.130  1.00  0.00     0.186 HD
ENDROOT
BRANCH   1   3
HETATM    3  C4  UNL     1      -7.106  12.916  19.319  1.00  0.00     0.143 C
HETATM    4  C3  UNL     1      -6.684  14.136  19.614  1.00  0.00     0.122 A
HETATM    5  C2  UNL     1      -5.819  14.976  18.794  1.00  0.00     0.277 A
HETATM    6  N4  UNL     1      -6.982  14.898  20.799  1.00  0.00    -0.303 N
HETATM    7  N1  UNL     1      -5.636  16.187  19.508  1.00  0.00    -0.274 N
HETATM    8  O2  UNL     1      -5.330  14.666  17.658  1.00  0.00    -0.266 OA
HETATM    9  C1  UNL     1      -6.340  16.160  20.738  1.00  0.00     0.327 A
ATOM     10  H1  UNL     1      -5.073  16.972  19.180  1.00  0.00     0.173 HD
HETATM   11  O1  UNL     1      -6.366  17.099  21.589  1.00  0.00    -0.247 OA
ATOM     12  H4  UNL     1      -7.569  14.576  21.569  1.00  0.00     0.171 HD
ENDBRANCH   1   3
BRANCH   1  13
HETATM   13  N3  UNL     1      -8.609  12.863  21.199  1.00  0.00    -0.223 N
ATOM     14  H3  UNL     1      -8.146  13.076  22.083  1.00  0.00     0.200 HD
BRANCH  13  15
HETATM   15  S1  UNL     1     -10.202  13.319  20.944  1.00  0.00     0.276 S
HETATM   16  O3  UNL     1     -11.103  12.518  21.861  1.00  0.00    -0.199 OA
HETATM   17  O4  UNL     1     -10.643  12.995  19.529  1.00  0.00    -0.199 OA
BRANCH  15  18
HETATM   18  C5  UNL     1     -10.510  14.991  21.227  1.00  0.00     0.081 A
HETATM   19  C6  UNL     1     -11.261  15.432  22.297  1.00  0.00     0.025 A
HETATM   20  C7  UNL     1     -11.477  16.798  22.473  1.00  0.00     0.002 A
HETATM   21  C8  UNL     1     -10.953  17.729  21.596  1.00  0.00     0.000 A
HETATM   22  C9  UNL     1     -10.205  17.291  20.530  1.00  0.00     0.002 A
HETATM   23  C10 UNL     1      -9.995  15.932  20.360  1.00  0.00     0.025 A
ENDBRANCH  15  18
ENDBRANCH  13  15
ENDBRANCH   1  13
TORSDOF 4
ENDMDL