MODEL 2
REMARK VINA RESULT: -6.752336327      3.017      4.827
REMARK  4 active torsions:
REMARK  status: ('A' for Active; 'I' for Inactive)
REMARK    1  A    between atoms: N1_1  and  C1_4
REMARK    2  A    between atoms: C2_7  and  N3_8
REMARK    3  A    between atoms: C7_16  and  N5_17
REMARK    4  A    between atoms: C11_22  and  C12_23
ROOT
HETATM    1  C1  UNL     1      -2.389   8.553  19.631  1.00  0.00     0.129 A
HETATM    2  N2  UNL     1      -2.508   9.883  19.690  1.00  0.00    -0.176 N
ATOM      3  H2  UNL     1      -3.448  10.281  19.689  1.00  0.00     0.186 HD
HETATM    4  C2  UNL     1      -1.460  10.732  19.751  1.00  0.00     0.683 A
HETATM    5  N4  UNL     1      -0.226  10.210  19.752  1.00  0.00    -0.175 N
ATOM      6  H4  UNL     1       0.580  10.833  19.797  1.00  0.00     0.186 HD
HETATM    7  C7  UNL     1      -0.026   8.855  19.694  1.00  0.00     0.140 A
HETATM    8  C11 UNL     1      -1.108   8.008  19.633  1.00  0.00     0.063 A
ENDROOT
BRANCH   4   9
HETATM    9  N3  UNL     1      -1.656  12.147  19.815  1.00  0.00    -0.213 N
HETATM   10  C3  UNL     1      -2.814  12.751  19.182  1.00  0.00     0.167 C
HETATM   11  C4  UNL     1      -3.203  14.001  19.906  1.00  0.00     0.188 C
HETATM   12  O1  UNL     1      -2.089  14.858  19.900  1.00  0.00    -0.388 OA
HETATM   13  C5  UNL     1      -1.204  14.360  20.823  1.00  0.00     0.188 C
HETATM   14  C6  UNL     1      -0.717  12.971  20.504  1.00  0.00     0.167 C
ENDBRANCH   4   9
BRANCH   1  15
HETATM   15  N1  UNL     1      -3.363   7.726  19.569  1.00  0.00    -0.384 N
ATOM     16  H12 UNL     1      -3.956   7.656  20.395  1.00  0.00     0.157 HD
ATOM     17  H11 UNL     1      -3.585   7.136  18.766  1.00  0.00     0.157 HD
ENDBRANCH   1  15
BRANCH   7  18
HETATM   18  N5  UNL     1       1.277   8.309  19.690  1.00  0.00    -0.302 N
HETATM   19  C8  UNL     1       2.246   7.872  20.661  1.00  0.00     0.143 C
HETATM   20  C9  UNL     1       2.582   6.808  19.602  1.00  0.00     0.123 C
HETATM   21  C10 UNL     1       2.203   7.944  18.681  1.00  0.00     0.227 C
HETATM   22  O2  UNL     1       2.548   8.367  17.546  1.00  0.00    -0.273 OA
ENDBRANCH   7  18
BRANCH   8  23
HETATM   23  C12 UNL     1      -0.909   6.567  19.567  1.00  0.00    -0.018 A
HETATM   24  C13 UNL     1      -0.805   5.831  20.702  1.00  0.00     0.012 A
HETATM   25  C14 UNL     1      -0.610   4.477  20.632  1.00  0.00     0.001 A
HETATM   26  C15 UNL     1      -0.522   3.884  19.392  1.00  0.00     0.000 A
HETATM   27  C16 UNL     1      -0.622   4.598  18.219  1.00  0.00     0.001 A
HETATM   28  C17 UNL     1      -0.819   5.960  18.332  1.00  0.00     0.012 A
ENDBRANCH   8  23
TORSDOF 4
ENDMDL