MODEL 2
REMARK VINA RESULT: -7.963561092      0.366      1.211
REMARK  5 active torsions:
REMARK  status: ('A' for Active; 'I' for Inactive)
REMARK    1  A    between atoms: C7_8  and  C8_9
REMARK    2  A    between atoms: C8_9  and  C9_10
REMARK    3  A    between atoms: C9_10  and  C10_11
REMARK    4  A    between atoms: C16_17  and  N2_18
REMARK    5  A    between atoms: N3_21  and  C17_22
ROOT
HETATM    1  C1  UNL     1       2.113   5.815  17.435  1.00  0.00     0.045 C
HETATM    2  C2  UNL     1       2.194   6.361  18.635  1.00  0.00     0.070 A
HETATM    3  C3  UNL     1       3.425   6.763  19.121  1.00  0.00     0.078 A
HETATM    4  C4  UNL     1       4.598   6.572  18.299  1.00  0.00     0.102 C
HETATM    5  N1  UNL     1       5.538   6.408  17.618  1.00  0.00    -0.191 NA
HETATM    6  C5  UNL     1       3.571   7.344  20.378  1.00  0.00    -0.025 A
HETATM    7  C6  UNL     1       4.928   7.756  20.816  1.00  0.00     0.050 C
HETATM    8  C7  UNL     1       2.472   7.537  21.187  1.00  0.00     0.013 A
HETATM    9  C16 UNL     1       1.243   7.106  20.636  1.00  0.00     0.133 A
HETATM   10  N3  UNL     1       1.123   6.547  19.417  1.00  0.00    -0.130 N
ENDROOT
BRANCH  10  11
HETATM   11  C17 UNL     1      -0.160   6.132  18.919  1.00  0.00     0.706 A
HETATM   12  N4  UNL     1      -0.726   4.931  18.843  1.00  0.00    -0.185 N
HETATM   13  C18 UNL     1      -1.961   5.019  18.294  1.00  0.00     0.215 A
ATOM     14  H4  UNL     1      -0.291   4.063  19.157  1.00  0.00     0.185 HD
HETATM   15  N5  UNL     1      -2.146   6.324  18.029  1.00  0.00    -0.281 N
HETATM   16  N6  UNL     1      -1.056   6.991  18.408  1.00  0.00    -0.130 N
ATOM     17  H5  UNL     1      -2.980   6.734  17.610  1.00  0.00     0.188 HD
ATOM     18  H6  UNL     1      -0.923   7.999  18.322  1.00  0.00     0.205 HD
ENDBRANCH  10  11
BRANCH   8  19
HETATM   19  C8  UNL     1       2.488   8.060  22.391  1.00  0.00    -0.006 C
BRANCH  19  20
HETATM   20  C9  UNL     1       2.571   9.364  22.971  1.00  0.00     0.066 C
BRANCH  20  21
HETATM   21  C10 UNL     1       2.135   9.269  24.417  1.00  0.00    -0.055 A
HETATM   22  C11 UNL     1       2.780  10.054  25.343  1.00  0.00     0.007 A
HETATM   23  C12 UNL     1       2.467  10.052  26.692  1.00  0.00     0.001 A
HETATM   24  C13 UNL     1       1.463   9.218  27.100  1.00  0.00     0.000 A
HETATM   25  C14 UNL     1       0.809   8.424  26.181  1.00  0.00     0.001 A
HETATM   26  C15 UNL     1       1.139   8.441  24.821  1.00  0.00     0.007 A
ENDBRANCH  20  21
ENDBRANCH  19  20
ENDBRANCH   8  19
BRANCH   9  27
HETATM   27  N2  UNL     1       0.149   7.223  21.271  1.00  0.00    -0.384 N
ATOM     28  H22 UNL     1       0.198   7.830  22.090  1.00  0.00     0.157 HD
ATOM     29  H21 UNL     1      -0.699   6.742  20.973  1.00  0.00     0.157 HD
ENDBRANCH   9  27
TORSDOF 5
ENDMDL