MODEL 1
REMARK VINA RESULT: -6.653821150      0.000      0.000
REMARK  4 active torsions:
REMARK  status: ('A' for Active; 'I' for Inactive)
REMARK    1  A    between atoms: O1_1  and  C1_3
REMARK    2  A    between atoms: C1_3  and  C2_4
REMARK    3  A    between atoms: N1_5  and  C3_7
REMARK    4  A    between atoms: C12_20  and  N4_21
ROOT
HETATM    1  C3  UNL     1      -3.869   9.634  19.150  1.00  0.00     0.112 A
HETATM    2  N2  UNL     1      -3.318  10.842  19.517  1.00  0.00    -0.352 N
ATOM      3  H2  UNL     1      -3.952  11.633  19.627  1.00  0.00     0.166 HD
HETATM    4  C4  UNL     1      -2.034  11.059  19.738  1.00  0.00     0.090 A
HETATM    5  C5  UNL     1      -1.166  10.003  19.593  1.00  0.00     0.031 A
HETATM    6  C6  UNL     1      -1.681   8.765  19.224  1.00  0.00     0.003 A
HETATM    7  C7  UNL     1      -3.007   8.532  18.993  1.00  0.00    -0.001 A
HETATM    8  C8  UNL     1      -3.505   7.235  18.593  1.00  0.00     0.048 A
HETATM    9  C9  UNL     1      -2.588   6.106  18.541  1.00  0.00     0.047 A
HETATM   10  C10 UNL     1      -1.175   6.392  18.743  1.00  0.00    -0.014 A
HETATM   11  C11 UNL     1      -0.259   5.329  18.594  1.00  0.00     0.115 A
HETATM   12  N3  UNL     1       1.015   5.590  18.798  1.00  0.00    -0.201 N
ATOM     13  H3  UNL     1       1.690   4.833  18.693  1.00  0.00     0.183 HD
HETATM   14  C12 UNL     1       1.467   6.812  19.140  1.00  0.00     0.680 A
HETATM   15  N5  UNL     1       0.578   7.841  19.284  1.00  0.00    -0.190 N
ATOM     16  H5  UNL     1       0.915   8.768  19.543  1.00  0.00     0.184 HD
HETATM   17  C17 UNL     1      -0.747   7.638  19.086  1.00  0.00     0.067 A
ENDROOT
BRANCH   1  18
HETATM   18  N1  UNL     1      -5.074   9.532  18.962  1.00  0.00    -0.353 N
HETATM   19  C2  UNL     1      -6.347   9.440  19.399  1.00  0.00     0.088 C
ATOM     20  H1  UNL     1      -5.161   9.499  17.946  1.00  0.00     0.166 HD
BRANCH  19  21
HETATM   21  C1  UNL     1      -7.370   8.965  18.361  1.00  0.00     0.208 C
BRANCH  21  22
HETATM   22  O1  UNL     1      -6.735   8.628  17.185  1.00  0.00    -0.396 OA
ATOM     23  H1  UNL     1      -7.095   9.129  16.462  1.00  0.00     0.209 HD
ENDBRANCH  21  22
ENDBRANCH  19  21
ENDBRANCH   1  18
BRANCH  14  24
HETATM   24  N4  UNL     1       2.847   6.990  19.339  1.00  0.00    -0.214 N
HETATM   25  C13 UNL     1       3.363   7.156  20.671  1.00  0.00     0.167 C
HETATM   26  C14 UNL     1       4.877   7.204  20.656  1.00  0.00     0.188 C
HETATM   27  O2  UNL     1       5.427   6.271  19.810  1.00  0.00    -0.388 OA
HETATM   28  C15 UNL     1       5.082   6.394  18.490  1.00  0.00     0.188 C
HETATM   29  C16 UNL     1       3.749   7.009  18.224  1.00  0.00     0.167 C
ENDBRANCH  14  24
TORSDOF 4
ENDMDL