MODEL 2
REMARK VINA RESULT: -6.830087638      1.501      1.592
REMARK  6 active torsions:
REMARK  status: ('A' for Active; 'I' for Inactive)
REMARK    1  A    between atoms: O1_1  and  C1_3
REMARK    2  A    between atoms: C1_3  and  N1_4
REMARK    3  A    between atoms: N1_4  and  C2_6
REMARK    4  A    between atoms: C3_9  and  N3_10
REMARK    5  A    between atoms: N3_10  and  C4_12
REMARK    6  A    between atoms: C12_22  and  N5_23
ROOT
HETATM    1  C1  UNL     1      -0.838   7.778  21.206  1.00  0.00     0.196 C
HETATM    2  C9  UNL     1      -0.787   8.243  22.497  1.00  0.00     0.157 A
HETATM    3  C10 UNL     1       0.934   8.418  22.462  1.00  0.00     0.051 A
HETATM    4  C11 UNL     1       1.573   8.853  23.493  1.00  0.00     0.036 A
HETATM    5  C12 UNL     1       1.133   9.249  24.737  1.00  0.00     0.068 A
HETATM    6  C16 UNL     1      -0.317   9.098  24.762  1.00  0.00     0.212 A
HETATM    7  N7  UNL     1      -0.740   8.671  23.689  1.00  0.00    -0.411 NA
ENDROOT
BRANCH   1   8
HETATM    8  O1  UNL     1      -2.077   7.172  20.950  1.00  0.00    -0.343 OA
ATOM      9  H1  UNL     1      -2.659   7.470  21.640  1.00  0.00     0.219 HD
ENDBRANCH   1   8
BRANCH   1  10
HETATM   10  N1  UNL     1      -0.140   7.691  20.053  1.00  0.00    -0.167 N
ATOM     11  H1  UNL     1       0.032   8.623  19.677  1.00  0.00     0.186 HD
BRANCH  10  12
HETATM   12  C2  UNL     1       0.353   6.840  19.314  1.00  0.00     0.685 A
HETATM   13  N2  UNL     1       1.608   7.013  18.815  1.00  0.00    -0.176 N
HETATM   14  C3  UNL     1       2.270   6.189  18.029  1.00  0.00     0.122 A
ATOM     15  H2  UNL     1       2.088   7.874  19.078  1.00  0.00     0.186 HD
HETATM   16  C7  UNL     1       1.602   5.005  17.674  1.00  0.00     0.066 A
HETATM   17  C8  UNL     1       0.330   4.778  18.151  1.00  0.00     0.110 A
HETATM   18  N4  UNL     1      -0.260   5.665  18.938  1.00  0.00    -0.202 N
ATOM     19  H4  UNL     1      -1.202   5.470  19.278  1.00  0.00     0.183 HD
BRANCH  14  20
HETATM   20  N3  UNL     1       3.578   6.391  17.527  1.00  0.00    -0.342 N
ATOM     21  H3  UNL     1       3.707   6.412  16.516  1.00  0.00     0.167 HD
BRANCH  20  22
HETATM   22  C4  UNL     1       4.595   6.546  18.260  1.00  0.00     0.033 A
HETATM   23  C5  UNL     1       5.558   7.466  18.697  1.00  0.00     0.032 A
HETATM   24  C6  UNL     1       5.571   6.144  19.167  1.00  0.00     0.032 A
ENDBRANCH  20  22
ENDBRANCH  14  20
ENDBRANCH  10  12
ENDBRANCH   1  10
BRANCH   5  25
HETATM   25  N5  UNL     1       1.816   9.740  25.815  1.00  0.00    -0.315 N
HETATM   26  C13 UNL     1       3.179   9.952  25.881  1.00  0.00     0.115 A
HETATM   27  C14 UNL     1       3.515  10.444  27.095  1.00  0.00     0.106 A
HETATM   28  N6  UNL     1       2.339  10.534  27.772  1.00  0.00    -0.360 N
HETATM   29  C15 UNL     1       1.345  10.112  26.999  1.00  0.00     0.188 A
ATOM     30  H6  UNL     1       2.237  10.874  28.728  1.00  0.00     0.166 HD
ENDBRANCH   5  25
TORSDOF 6
ENDMDL