MODEL 1
REMARK VINA RESULT: -6.841680212      0.000      0.000
REMARK  4 active torsions:
REMARK  status: ('A' for Active; 'I' for Inactive)
REMARK    1  A    between atoms: C5_6  and  N2_7
REMARK    2  A    between atoms: N2_7  and  C6_9
REMARK    3  A    between atoms: N3_12  and  C9_13
REMARK    4  A    between atoms: C12_18  and  N5_19
ROOT
HETATM    1  N1  UNL     1      -0.437   2.775  16.052  1.00  0.00    -0.191 NA
HETATM    2  C1  UNL     1      -0.025   3.557  16.800  1.00  0.00     0.101 C
HETATM    3  C2  UNL     1       0.471   4.524  17.748  1.00  0.00     0.060 A
HETATM    4  C3  UNL     1      -0.160   4.776  18.939  1.00  0.00     0.028 A
HETATM    5  C4  UNL     1       0.375   5.722  19.802  1.00  0.00     0.050 A
HETATM    6  C5  UNL     1       1.524   6.427  19.516  1.00  0.00     0.101 A
HETATM    7  N7  UNL     1       2.134   6.158  18.321  1.00  0.00    -0.351 N
ATOM      8  H7  UNL     1       2.986   6.655  18.065  1.00  0.00     0.166 HD
HETATM    9  C17 UNL     1       1.618   5.243  17.485  1.00  0.00     0.112 A
ENDROOT
BRANCH   6  10
HETATM   10  N2  UNL     1       2.038   7.306  20.298  1.00  0.00    -0.370 N
ATOM     11  H2  UNL     1       2.971   7.667  20.095  1.00  0.00     0.161 HD
BRANCH  10  12
HETATM   12  C6  UNL     1       1.332   7.797  21.457  1.00  0.00     0.103 C
HETATM   13  C7  UNL     1       0.962   9.266  21.267  1.00  0.00     0.047 C
HETATM   14  C8  UNL     1       1.774   9.979  22.309  1.00  0.00     0.143 C
HETATM   15  N3  UNL     1       1.905   8.994  23.358  1.00  0.00    -0.216 N
HETATM   16  C16 UNL     1       2.181   7.734  22.706  1.00  0.00     0.166 C
BRANCH  15  17
HETATM   17  C9  UNL     1       1.781   9.249  24.750  1.00  0.00     0.681 A
HETATM   18  N4  UNL     1       2.511  10.256  25.308  1.00  0.00    -0.202 N
HETATM   19  C10 UNL     1       2.413  10.520  26.623  1.00  0.00     0.110 A
ATOM     20  H4  UNL     1       3.136  10.812  24.724  1.00  0.00     0.183 HD
HETATM   21  C11 UNL     1       1.584   9.798  27.455  1.00  0.00     0.066 A
HETATM   22  C12 UNL     1       0.851   8.782  26.879  1.00  0.00     0.120 A
HETATM   23  N6  UNL     1       0.973   8.543  25.551  1.00  0.00    -0.177 N
ATOM     24  H6  UNL     1       0.423   7.788  25.142  1.00  0.00     0.186 HD
BRANCH  22  25
HETATM   25  N5  UNL     1      -0.024   7.992  27.656  1.00  0.00    -0.367 N
HETATM   26  C13 UNL     1      -0.955   8.235  28.731  1.00  0.00     0.126 C
HETATM   27  C14 UNL     1      -0.741   6.803  29.172  1.00  0.00     0.040 C
HETATM   28  C15 UNL     1      -0.374   6.596  27.717  1.00  0.00     0.126 C
ENDBRANCH  22  25
ENDBRANCH  15  17
ENDBRANCH  10  12
ENDBRANCH   6  10
TORSDOF 4
ENDMDL