MODEL 2
REMARK VINA RESULT: -7.379195970      1.159      1.256
REMARK  4 active torsions:
REMARK  status: ('A' for Active; 'I' for Inactive)
REMARK       I    between atoms: C1_2  and  N1_3
REMARK    1  A    between atoms: C1_2  and  C7_18
REMARK    2  A    between atoms: N1_3  and  C2_5
REMARK    3  A    between atoms: N6_20  and  C9_21
REMARK    4  A    between atoms: C9_21  and  C10_22
ROOT
HETATM    1  O1  UNL     1      -1.618   6.896  22.258  1.00  0.00    -0.267 OA
HETATM    2  C1  UNL     1      -1.824   6.734  21.028  1.00  0.00     0.262 C
HETATM    3  N1  UNL     1      -3.162   6.875  20.580  1.00  0.00    -0.308 N
ATOM      4  H1  UNL     1      -3.694   6.045  20.316  1.00  0.00     0.170 HD
ENDROOT
BRANCH   2   5
HETATM    5  C7  UNL     1      -0.720   6.417  20.134  1.00  0.00     0.097 A
HETATM    6  C8  UNL     1       0.332   7.273  19.906  1.00  0.00     0.112 A
HETATM    7  N6  UNL     1       1.353   6.947  19.061  1.00  0.00    -0.359 N
HETATM    8  C14 UNL     1       1.349   5.763  18.422  1.00  0.00     0.095 A
HETATM    9  C15 UNL     1       0.316   4.857  18.610  1.00  0.00     0.073 A
HETATM   10  C16 UNL     1      -0.713   5.207  19.474  1.00  0.00     0.190 A
HETATM   11  O3  UNL     1      -1.655   4.392  19.651  1.00  0.00    -0.287 OA
BRANCH   7  12
HETATM   12  C9  UNL     1       2.424   7.869  18.856  1.00  0.00     0.192 C
BRANCH  12  13
HETATM   13  C10 UNL     1       3.754   7.265  18.795  1.00  0.00     0.070 A
HETATM   14  C11 UNL     1       4.531   6.841  19.842  1.00  0.00     0.036 A
HETATM   15  C12 UNL     1       5.695   6.346  19.298  1.00  0.00     0.027 A
HETATM   16  C13 UNL     1       5.572   6.491  17.944  1.00  0.00     0.142 A
HETATM   17  O2  UNL     1       4.428   7.029  17.706  1.00  0.00    -0.325 OA
ENDBRANCH  12  13
ENDBRANCH   7  12
ENDBRANCH   2   5
BRANCH   3  18
HETATM   18  C2  UNL     1      -3.717   8.041  20.502  1.00  0.00     0.124 A
HETATM   19  N2  UNL     1      -4.396   8.587  21.520  1.00  0.00    -0.338 N
HETATM   20  C3  UNL     1      -4.951   9.802  21.383  1.00  0.00     0.183 A
ATOM     21  H2  UNL     1      -4.491   8.079  22.400  1.00  0.00     0.168 HD
HETATM   22  N3  UNL     1      -4.849  10.502  20.244  1.00  0.00    -0.337 N
HETATM   23  C4  UNL     1      -4.170   9.966  19.216  1.00  0.00     0.136 A
ATOM     24  H3  UNL     1      -5.279  11.423  20.159  1.00  0.00     0.168 HD
HETATM   25  N4  UNL     1      -3.894  10.410  17.964  1.00  0.00    -0.285 N
HETATM   26  C6  UNL     1      -3.586   8.722  19.313  1.00  0.00     0.070 A
HETATM   27  N5  UNL     1      -3.184   9.508  17.317  1.00  0.00    -0.309 N
ATOM     28  H4  UNL     1      -4.191  11.308  17.581  1.00  0.00     0.188 HD
HETATM   29  C5  UNL     1      -2.957   8.431  18.104  1.00  0.00     0.126 A
ATOM     30  H5  UNL     1      -2.853   9.608  16.358  1.00  0.00     0.186 HD
ENDBRANCH   3  18
TORSDOF 4
ENDMDL