MODEL 1
REMARK VINA RESULT: -6.954720346      0.000      0.000
REMARK  3 active torsions:
REMARK  status: ('A' for Active; 'I' for Inactive)
REMARK    1  A    between atoms: C4_4  and  C5_5
REMARK    2  A    between atoms: N1_7  and  C7_8
REMARK    3  A    between atoms: C10_13  and  N3_14
ROOT
HETATM    1  C7  UNL     1      -0.007   8.454  22.524  1.00  0.00     0.120 A
HETATM    2  C8  UNL     1      -1.369   8.294  22.580  1.00  0.00     0.066 A
HETATM    3  C9  UNL     1      -2.068   8.802  23.669  1.00  0.00     0.110 A
HETATM    4  N2  UNL     1      -1.388   9.428  24.625  1.00  0.00    -0.202 N
ATOM      5  H2  UNL     1      -1.907   9.798  25.422  1.00  0.00     0.183 HD
HETATM    6  C10 UNL     1      -0.056   9.602  24.603  1.00  0.00     0.681 A
HETATM    7  N5  UNL     1       0.594   9.101  23.537  1.00  0.00    -0.177 N
ATOM      8  H5  UNL     1       1.606   9.219  23.495  1.00  0.00     0.186 HD
ENDROOT
BRANCH   1   9
HETATM    9  N1  UNL     1       0.776   7.953  21.431  1.00  0.00    -0.363 N
HETATM   10  C6  UNL     1       1.570   8.843  20.603  1.00  0.00     0.162 C
HETATM   11  C5  UNL     1       1.905   8.207  19.306  1.00  0.00     0.236 C
HETATM   12  N6  UNL     1       0.779   7.388  18.878  1.00  0.00    -0.064 N
HETATM   13  C16 UNL     1       0.597   6.238  19.716  1.00  0.00     0.253 C
ATOM     14  H62 UNL     1      -0.076   7.939  18.817  1.00  0.00     0.278 HD
ATOM     15  H61 UNL     1       0.869   7.120  17.898  1.00  0.00     0.278 HD
HETATM   16  C15 UNL     1       0.772   6.546  21.160  1.00  0.00     0.152 C
BRANCH  11  17
HETATM   17  C4  UNL     1       3.182   7.515  19.207  1.00  0.00    -0.026 A
HETATM   18  C3  UNL     1       3.966   7.324  20.357  1.00  0.00     0.009 A
HETATM   19  C2  UNL     1       5.177   6.676  20.317  1.00  0.00     0.001 A
HETATM   20  C1  UNL     1       5.674   6.181  19.132  1.00  0.00     0.000 A
HETATM   21  C18 UNL     1       4.934   6.349  17.985  1.00  0.00     0.001 A
HETATM   22  C17 UNL     1       3.701   7.014  18.047  1.00  0.00     0.009 A
ENDBRANCH  11  17
ENDBRANCH   1   9
BRANCH   6  23
HETATM   23  N3  UNL     1       0.612  10.281  25.655  1.00  0.00    -0.214 N
HETATM   24  C11 UNL     1       1.507  11.352  25.320  1.00  0.00     0.168 C
HETATM   25  C12 UNL     1       2.408  11.743  26.464  1.00  0.00     0.252 C
HETATM   26  N4  UNL     1       2.651  10.633  27.365  1.00  0.00    -0.072 N
HETATM   27  C13 UNL     1       1.392  10.270  27.984  1.00  0.00     0.252 C
ATOM     28  H42 UNL     1       3.104   9.844  26.904  1.00  0.00     0.277 HD
ATOM     29  H41 UNL     1       3.382  10.833  28.048  1.00  0.00     0.277 HD
HETATM   30  C14 UNL     1       0.347   9.848  27.009  1.00  0.00     0.168 C
ENDBRANCH   6  23
TORSDOF 3
ENDMDL