MODEL 2
REMARK VINA RESULT: -6.879475981      2.743      5.486
REMARK  6 active torsions:
REMARK  status: ('A' for Active; 'I' for Inactive)
REMARK    1  A    between atoms: N1_1  and  S1_4
REMARK    2  A    between atoms: S1_4  and  C1_6
REMARK    3  A    between atoms: C4_9  and  N2_10
REMARK    4  A    between atoms: N2_10  and  C5_12
REMARK    5  A    between atoms: C7_18  and  N5_19
REMARK    6  A    between atoms: N5_19  and  C8_21
ROOT
HETATM    1  C5  UNL     1      -0.449   7.308  21.124  1.00  0.00     0.698 A
HETATM    2  N3  UNL     1      -0.894   8.578  21.214  1.00  0.00    -0.187 N
ATOM      3  H3  UNL     1      -1.896   8.768  21.168  1.00  0.00     0.185 HD
HETATM    4  C6  UNL     1      -0.028   9.593  21.364  1.00  0.00     0.215 A
HETATM    5  N4  UNL     1       1.277   9.316  21.421  1.00  0.00    -0.187 N
ATOM      6  H4  UNL     1       1.937  10.085  21.535  1.00  0.00     0.185 HD
HETATM    7  C7  UNL     1       1.753   8.066  21.334  1.00  0.00     0.698 A
HETATM    8  N7  UNL     1       0.872   7.066  21.185  1.00  0.00    -0.022 N
ATOM      9  H7  UNL     1       1.209   6.106  21.117  1.00  0.00     0.203 HD
ENDROOT
BRANCH   1  10
HETATM   10  N2  UNL     1      -1.279   6.326  20.980  1.00  0.00    -0.191 N
ATOM     11  H2  UNL     1      -2.005   6.147  21.674  1.00  0.00     0.184 HD
BRANCH  10  12
HETATM   12  C4  UNL     1      -1.152   5.505  19.830  1.00  0.00     0.049 A
HETATM   13  C3  UNL     1      -1.635   5.952  18.627  1.00  0.00     0.031 A
HETATM   14  C2  UNL     1      -1.513   5.142  17.471  1.00  0.00     0.025 A
HETATM   15  C1  UNL     1      -0.918   3.972  17.652  1.00  0.00     0.052 A
HETATM   16  C14 UNL     1      -0.431   3.480  18.793  1.00  0.00     0.025 A
HETATM   17  C13 UNL     1      -0.548   4.282  19.953  1.00  0.00     0.031 A
BRANCH  15  18
HETATM   18  S1  UNL     1      -0.624   3.034  16.175  1.00  0.00     0.144 S
HETATM   19  O1  UNL     1      -1.227   4.381  15.607  1.00  0.00    -0.230 OA
BRANCH  18  20
HETATM   20  N1  UNL     1      -0.198   1.961  15.811  1.00  0.00    -0.346 N
ATOM     21  H12 UNL     1       0.172   1.495  14.983  1.00  0.00     0.166 HD
ATOM     22  H11 UNL     1      -0.008   1.021  16.157  1.00  0.00     0.166 HD
ENDBRANCH  18  20
ENDBRANCH  15  18
ENDBRANCH  10  12
ENDBRANCH   1  10
BRANCH   7  23
HETATM   23  N5  UNL     1       3.020   7.805  21.391  1.00  0.00    -0.190 N
ATOM     24  H5  UNL     1       3.525   7.941  22.267  1.00  0.00     0.184 HD
BRANCH  23  25
HETATM   25  C8  UNL     1       3.724   7.325  20.228  1.00  0.00     0.064 A
HETATM   26  C9  UNL     1       4.968   6.741  20.351  1.00  0.00     0.033 A
HETATM   27  C10 UNL     1       5.653   6.276  19.247  1.00  0.00     0.019 A
HETATM   28  C11 UNL     1       5.087   6.396  17.994  1.00  0.00     0.088 A
HETATM   29  N6  UNL     1       3.879   6.970  17.923  1.00  0.00    -0.373 N
HETATM   30  C12 UNL     1       3.185   7.432  18.970  1.00  0.00     0.117 A
ATOM     31  H6  UNL     1       3.456   7.062  17.000  1.00  0.00     0.164 HD
ENDBRANCH  23  25
ENDBRANCH   7  23
TORSDOF 6
ENDMDL