MODEL 3
REMARK VINA RESULT: -7.043116033      1.447      2.310
REMARK  6 active torsions:
REMARK  status: ('A' for Active; 'I' for Inactive)
REMARK    1  A    between atoms: N1_1  and  S1_4
REMARK    2  A    between atoms: S1_4  and  C1_6
REMARK    3  A    between atoms: C4_9  and  C5_10
REMARK    4  A    between atoms: C5_10  and  O3_12
REMARK    5  A    between atoms: O3_12  and  N2_13
REMARK    6  A    between atoms: N2_13  and  C6_15
ROOT
HETATM    1  N2  UNL     1      -1.828   8.717  18.967  1.00  0.00    -0.239 N
ATOM      2  H2  UNL     1      -2.546   8.792  18.246  1.00  0.00     0.196 HD
ENDROOT
BRANCH   1   3
HETATM    3  O3  UNL     1      -0.786   9.615  18.938  1.00  0.00    -0.193 OA
BRANCH   3   4
HETATM    4  C5  UNL     1       0.255   9.610  19.845  1.00  0.00     0.315 C
HETATM    5  O2  UNL     1       0.147  10.339  20.857  1.00  0.00    -0.257 OA
BRANCH   4   6
HETATM    6  C4  UNL     1       1.449   8.766  19.620  1.00  0.00     0.041 A
HETATM    7  C3  UNL     1       1.961   8.099  20.692  1.00  0.00     0.019 A
HETATM    8  C2  UNL     1       3.116   7.282  20.508  1.00  0.00     0.024 A
HETATM    9  C1  UNL     1       3.637   7.217  19.284  1.00  0.00     0.052 A
HETATM   10  C14 UNL     1       3.164   7.855  18.208  1.00  0.00     0.024 A
HETATM   11  C13 UNL     1       2.015   8.670  18.384  1.00  0.00     0.019 A
BRANCH   9  12
HETATM   12  S1  UNL     1       5.142   6.327  19.081  1.00  0.00     0.144 S
HETATM   13  O1  UNL     1       4.844   6.793  17.567  1.00  0.00    -0.230 OA
BRANCH  12  14
HETATM   14  N1  UNL     1       5.957   5.703  19.731  1.00  0.00    -0.346 N
ATOM     15  H12 UNL     1       6.127   4.761  20.082  1.00  0.00     0.166 HD
ATOM     16  H11 UNL     1       6.841   5.830  20.223  1.00  0.00     0.166 HD
ENDBRANCH  12  14
ENDBRANCH   9  12
ENDBRANCH   4   6
ENDBRANCH   3   4
ENDBRANCH   1   3
BRANCH   1  17
HETATM   17  C6  UNL     1      -1.950   7.795  19.840  1.00  0.00     0.156 A
HETATM   18  N3  UNL     1      -2.673   8.022  20.921  1.00  0.00    -0.335 N
HETATM   19  C7  UNL     1      -2.835   7.084  21.875  1.00  0.00     0.182 A
ATOM     20  H3  UNL     1      -3.119   8.932  21.038  1.00  0.00     0.168 HD
HETATM   21  N4  UNL     1      -2.237   5.901  21.697  1.00  0.00    -0.350 N
HETATM   22  C8  UNL     1      -1.493   5.618  20.618  1.00  0.00     0.064 A
ATOM     23  H4  UNL     1      -2.353   5.182  22.412  1.00  0.00     0.166 HD
HETATM   24  C9  UNL     1      -0.880   4.388  20.446  1.00  0.00     0.033 A
HETATM   25  C12 UNL     1      -1.325   6.582  19.637  1.00  0.00     0.105 A
HETATM   26  C10 UNL     1      -0.138   4.191  19.311  1.00  0.00     0.019 A
HETATM   27  C11 UNL     1       0.010   5.169  18.353  1.00  0.00     0.088 A
HETATM   28  N5  UNL     1      -0.582   6.350  18.522  1.00  0.00    -0.361 N
ATOM     29  H5  UNL     1      -0.478   7.080  17.817  1.00  0.00     0.165 HD
ENDBRANCH   1  17
TORSDOF 6
ENDMDL