MODEL 5
REMARK VINA RESULT: -6.735593975      2.157      5.314
REMARK  6 active torsions:
REMARK  status: ('A' for Active; 'I' for Inactive)
REMARK    1  A    between atoms: N1_2  and  C2_4
REMARK    2  A    between atoms: C6_11  and  C7_12
REMARK    3  A    between atoms: C7_12  and  N3_13
REMARK    4  A    between atoms: N3_13  and  N4_15
REMARK    5  A    between atoms: N4_15  and  C8_17
REMARK    6  A    between atoms: C11_22  and  C12_23
ROOT
HETATM    1  N4  UNL     1      -1.704   6.586  17.971  1.00  0.00    -0.286 N
ATOM      2  H4  UNL     1      -1.293   6.909  17.096  1.00  0.00     0.188 HD
ENDROOT
BRANCH   1   3
HETATM    3  N3  UNL     1      -1.450   5.296  18.399  1.00  0.00    -0.309 N
ATOM      4  H3  UNL     1      -2.248   4.674  18.529  1.00  0.00     0.186 HD
BRANCH   3   5
HETATM    5  C7  UNL     1      -0.278   4.827  18.645  1.00  0.00     0.124 C
BRANCH   5   6
HETATM    6  C6  UNL     1       0.712   5.694  19.260  1.00  0.00     0.051 C
HETATM    7  C5  UNL     1       0.508   6.038  20.575  1.00  0.00     0.257 C
HETATM    8  N2  UNL     1       1.308   6.740  21.411  1.00  0.00    -0.333 N
HETATM    9  O1  UNL     1      -0.580   5.632  21.039  1.00  0.00    -0.267 OA
HETATM   10  C4  UNL     1       2.576   7.148  21.232  1.00  0.00     0.093 C
ATOM     11  H2  UNL     1       0.888   6.996  22.305  1.00  0.00     0.168 HD
HETATM   12  C3  UNL     1       3.334   7.139  20.058  1.00  0.00     0.046 C
HETATM   13  C2  UNL     1       2.987   6.684  18.796  1.00  0.00     0.029 C
HETATM   14  C17 UNL     1       1.775   6.104  18.484  1.00  0.00     0.047 C
BRANCH  13  15
HETATM   15  N1  UNL     1       3.872   6.835  17.919  1.00  0.00    -0.394 N
HETATM   16  C1  UNL     1       5.279   6.746  18.011  1.00  0.00     0.146 C
ATOM     17  H1  UNL     1       3.517   7.057  16.988  1.00  0.00     0.159 HD
ENDBRANCH  13  15
ENDBRANCH   5   6
ENDBRANCH   3   5
ENDBRANCH   1   3
BRANCH   1  18
HETATM   18  C8  UNL     1      -2.448   7.390  18.652  1.00  0.00     0.122 A
HETATM   19  C9  UNL     1      -3.549   6.948  19.374  1.00  0.00     0.067 A
HETATM   20  C10 UNL     1      -4.337   7.813  20.096  1.00  0.00     0.093 A
HETATM   21  N5  UNL     1      -4.040   9.143  20.111  1.00  0.00    -0.351 N
HETATM   22  C11 UNL     1      -2.981   9.559  19.413  1.00  0.00     0.117 A
ATOM     23  H5  UNL     1      -4.611   9.801  20.641  1.00  0.00     0.166 HD
HETATM   24  N7  UNL     1      -2.194   8.702  18.694  1.00  0.00    -0.327 N
ATOM     25  H7  UNL     1      -1.396   9.072  18.177  1.00  0.00     0.169 HD
BRANCH  22  26
HETATM   26  C12 UNL     1      -2.631  10.974  19.403  1.00  0.00     0.011 A
HETATM   27  C13 UNL     1      -1.331  11.379  19.709  1.00  0.00     0.032 A
HETATM   28  C14 UNL     1      -1.012  12.715  19.697  1.00  0.00     0.088 A
HETATM   29  N6  UNL     1      -1.917  13.661  19.399  1.00  0.00    -0.375 N
HETATM   30  C15 UNL     1      -3.173  13.296  19.102  1.00  0.00     0.088 A
ATOM     31  H6  UNL     1      -1.652  14.646  19.397  1.00  0.00     0.164 HD
HETATM   32  C16 UNL     1      -3.543  11.947  19.102  1.00  0.00     0.032 A
ENDBRANCH  22  26
ENDBRANCH   1  18
TORSDOF 6
ENDMDL