MODEL 1
REMARK VINA RESULT: -7.000725720      0.000      0.000
REMARK  8 active torsions:
REMARK  status: ('A' for Active; 'I' for Inactive)
REMARK    1  A    between atoms: O1_1  and  C1_3
REMARK    2  A    between atoms: C1_3  and  C2_4
REMARK    3  A    between atoms: N1_6  and  O2_7
REMARK    4  A    between atoms: O2_7  and  C4_8
REMARK    5  A    between atoms: C4_8  and  C5_9
REMARK    6  A    between atoms: C5_9  and  C6_10
REMARK    7  A    between atoms: C6_10  and  N2_11
REMARK    8  A    between atoms: N2_11  and  C7_13
ROOT
HETATM    1  C5  UNL     1     -21.107   3.528  -7.476  1.00  0.00     0.073 C
ENDROOT
BRANCH   1   2
HETATM    2  C4  UNL     1     -22.594   3.602  -7.962  1.00  0.00     0.206 C
BRANCH   2   3
HETATM    3  O2  UNL     1     -22.679   2.745  -8.974  1.00  0.00    -0.282 OA
BRANCH   3   4
HETATM    4  N1  UNL     1     -23.360   1.687  -8.682  1.00  0.00    -0.290 N
HETATM    5  C3  UNL     1     -24.601   1.970  -8.010  1.00  0.00     0.183 C
HETATM    6  C2  UNL     1     -25.281   0.729  -7.603  1.00  0.00     0.164 C
HETATM    7  O3  UNL     1     -24.415  -0.269  -7.215  1.00  0.00    -0.380 OA
HETATM    8  C13 UNL     1     -23.613  -0.682  -8.285  1.00  0.00     0.190 C
HETATM    9  C12 UNL     1     -23.336   0.455  -9.286  1.00  0.00     0.175 C
BRANCH   6  10
HETATM   10  C1  UNL     1     -26.289   0.287  -8.636  1.00  0.00     0.197 C
BRANCH  10  11
HETATM   11  O1  UNL     1     -27.195  -0.651  -8.209  1.00  0.00    -0.398 OA
ATOM     12  H1  UNL     1     -27.233  -1.445  -8.729  1.00  0.00     0.209 HD
ENDBRANCH  10  11
ENDBRANCH   6  10
ENDBRANCH   3   4
ENDBRANCH   2   3
ENDBRANCH   1   2
BRANCH   1  13
HETATM   13  C6  UNL     1     -20.275   3.951  -8.609  1.00  0.00     0.059 C
BRANCH  13  14
HETATM   14  N2  UNL     1     -19.159   3.243  -9.105  1.00  0.00    -0.375 N
ATOM     15  H2  UNL     1     -18.200   3.383  -8.791  1.00  0.00     0.160 HD
BRANCH  14  16
HETATM   16  C7  UNL     1     -19.537   2.344 -10.063  1.00  0.00     0.283 C
HETATM   17  C8  UNL     1     -20.083   3.031 -11.319  1.00  0.00     0.054 C
HETATM   18  C9  UNL     1     -20.720   2.062 -12.232  1.00  0.00     0.005 C
HETATM   19  C10 UNL     1     -20.066   0.722 -12.283  1.00  0.00     0.028 C
HETATM   20  C11 UNL     1     -19.469   0.222 -11.015  1.00  0.00     0.235 C
HETATM   21  N3  UNL     1     -18.607   1.332 -10.487  1.00  0.00    -0.054 N
ATOM     22  H32 UNL     1     -17.904   1.663 -11.148  1.00  0.00     0.279 HD
ATOM     23  H31 UNL     1     -17.952   1.040  -9.762  1.00  0.00     0.279 HD
ENDBRANCH  14  16
ENDBRANCH  13  14
ENDBRANCH   1  13
TORSDOF 8
ENDMDL