MODEL 4
REMARK VINA RESULT: -6.024192517      1.976      6.187
REMARK  9 active torsions:
REMARK  status: ('A' for Active; 'I' for Inactive)
REMARK    1  A    between atoms: C2_2  and  C3_3
REMARK    2  A    between atoms: C3_3  and  C4_4
REMARK    3  A    between atoms: C4_4  and  C5_5
REMARK    4  A    between atoms: C5_5  and  N1_6
REMARK    5  A    between atoms: N2_9  and  C8_10
REMARK    6  A    between atoms: C8_10  and  C9_11
REMARK    7  A    between atoms: C9_11  and  C10_12
REMARK    8  A    between atoms: C12_14  and  N4_17
REMARK    9  A    between atoms: N4_17  and  N5_19
ROOT
HETATM    1  N1  UNL     1     -23.231   2.473  -7.432  1.00  0.00    -0.387 N
HETATM    2  C6  UNL     1     -22.993   1.968  -6.171  1.00  0.00     0.142 C
HETATM    3  C7  UNL     1     -24.339   1.878  -5.426  1.00  0.00     0.145 C
HETATM    4  N2  UNL     1     -25.251   1.030  -6.072  1.00  0.00    -0.352 N
HETATM    5  C12 UNL     1     -25.165   0.960  -7.479  1.00  0.00     0.226 C
HETATM    6  C13 UNL     1     -24.250  -0.185  -7.800  1.00  0.00     0.117 C
HETATM    7  N3  UNL     1     -23.550  -1.092  -8.068  1.00  0.00    -0.192 NA
HETATM    8  C14 UNL     1     -24.477   2.205  -8.057  1.00  0.00     0.193 C
ENDROOT
BRANCH   5   9
HETATM    9  N4  UNL     1     -26.298   0.769  -8.274  1.00  0.00    -0.300 N
ATOM     10  H4  UNL     1     -26.836   1.587  -8.562  1.00  0.00     0.183 HD
BRANCH   9  11
HETATM   11  N5  UNL     1     -26.710  -0.441  -8.674  1.00  0.00    -0.346 N
ATOM     12  H52 UNL     1     -26.180  -1.250  -8.351  1.00  0.00     0.176 HD
ATOM     13  H51 UNL     1     -27.519  -0.577  -9.280  1.00  0.00     0.176 HD
ENDBRANCH   9  11
ENDBRANCH   5   9
BRANCH   4  14
HETATM   14  C8  UNL     1     -26.225   0.335  -5.372  1.00  0.00     0.062 C
BRANCH  14  15
HETATM   15  C9  UNL     1     -25.848  -0.724  -4.406  1.00  0.00     0.044 C
BRANCH  15  16
HETATM   16  C10 UNL     1     -26.872  -1.513  -3.704  1.00  0.00     0.001 C
HETATM   17  C11 UNL     1     -28.130  -0.748  -3.337  1.00  0.00     0.005 C
ENDBRANCH  15  16
ENDBRANCH  14  15
ENDBRANCH   4  14
BRANCH   1  18
HETATM   18  C5  UNL     1     -22.440   3.464  -8.001  1.00  0.00     0.058 C
BRANCH  18  19
HETATM   19  C4  UNL     1     -21.068   3.702  -7.532  1.00  0.00     0.044 C
BRANCH  19  20
HETATM   20  C3  UNL     1     -20.021   3.716  -8.618  1.00  0.00     0.005 C
BRANCH  20  21
HETATM   21  C2  UNL     1     -20.580   2.999  -9.842  1.00  0.00    -0.004 C
HETATM   22  C1  UNL     1     -19.551   2.005 -10.326  1.00  0.00     0.005 C
ENDBRANCH  20  21
ENDBRANCH  19  20
ENDBRANCH  18  19
ENDBRANCH   1  18
TORSDOF 9
ENDMDL