MODEL 1
REMARK VINA RESULT: -7.035244351      0.000      0.000
REMARK  8 active torsions:
REMARK  status: ('A' for Active; 'I' for Inactive)
REMARK    1  A    between atoms: N1_1  and  C1_4
REMARK    2  A    between atoms: C3_8  and  C4_9
REMARK    3  A    between atoms: C4_9  and  C5_10
REMARK    4  A    between atoms: C5_10  and  C6_11
REMARK    5  A    between atoms: C6_11  and  O1_12
REMARK    6  A    between atoms: O1_12  and  C7_13
REMARK    7  A    between atoms: C7_13  and  C8_14
REMARK    8  A    between atoms: C8_14  and  N3_15
ROOT
HETATM    1  C1  UNL     1     -26.295  -1.115  -4.193  1.00  0.00     0.676 A
HETATM    2  N2  UNL     1     -27.233  -0.539  -4.966  1.00  0.00    -0.202 N
ATOM      3  H2  UNL     1     -28.180  -0.918  -4.957  1.00  0.00     0.183 HD
HETATM    4  C2  UNL     1     -26.965   0.519  -5.751  1.00  0.00     0.116 A
HETATM    5  C3  UNL     1     -25.694   1.064  -5.792  1.00  0.00    -0.000 A
HETATM    6  C13 UNL     1     -24.728   0.479  -5.001  1.00  0.00     0.139 A
HETATM    7  N4  UNL     1     -23.393   0.975  -4.979  1.00  0.00    -0.082 NA
HETATM    8  N5  UNL     1     -25.059  -0.588  -4.229  1.00  0.00    -0.179 N
ATOM      9  H5  UNL     1     -24.335  -1.011  -3.649  1.00  0.00     0.185 HD
ENDROOT
BRANCH   5  10
HETATM   10  C4  UNL     1     -25.346   2.225  -6.636  1.00  0.00     0.045 C
BRANCH  10  11
HETATM   11  C5  UNL     1     -24.667   1.763  -7.910  1.00  0.00     0.031 C
BRANCH  11  12
HETATM   12  C6  UNL     1     -25.674   1.559  -9.017  1.00  0.00     0.168 C
BRANCH  12  13
HETATM   13  O1  UNL     1     -25.016   1.356 -10.200  1.00  0.00    -0.389 OA
BRANCH  13  14
HETATM   14  C7  UNL     1     -23.954   0.478 -10.157  1.00  0.00     0.198 C
BRANCH  14  15
HETATM   15  C8  UNL     1     -22.860   0.929 -11.107  1.00  0.00     0.298 C
BRANCH  15  16
HETATM   16  N3  UNL     1     -21.541   0.749 -10.479  1.00  0.00     0.090 N
HETATM   17  C9  UNL     1     -20.990   2.023 -10.071  1.00  0.00     0.272 C
HETATM   18  C10 UNL     1     -19.554   2.063 -10.510  1.00  0.00     0.032 C
HETATM   19  C11 UNL     1     -19.299   0.633 -10.929  1.00  0.00     0.032 C
HETATM   20  C12 UNL     1     -20.643   0.243 -11.512  1.00  0.00     0.272 C
ENDBRANCH  15  16
ENDBRANCH  14  15
ENDBRANCH  13  14
ENDBRANCH  12  13
ENDBRANCH  11  12
ENDBRANCH  10  11
ENDBRANCH   5  10
BRANCH   1  21
HETATM   21  N1  UNL     1     -26.570  -2.138  -3.439  1.00  0.00    -0.234 N
ATOM     22  H12 UNL     1     -26.458  -2.093  -2.426  1.00  0.00     0.174 HD
ATOM     23  H11 UNL     1     -26.907  -3.016  -3.833  1.00  0.00     0.174 HD
ENDBRANCH   1  21
TORSDOF 8
ENDMDL