MODEL 3
REMARK VINA RESULT: -5.858969006      1.175      1.250
REMARK  8 active torsions:
REMARK  status: ('A' for Active; 'I' for Inactive)
REMARK    1  A    between atoms: S1_2  and  C2_3
REMARK    2  A    between atoms: C2_3  and  C3_4
REMARK    3  A    between atoms: C3_4  and  N1_5
REMARK    4  A    between atoms: N1_5  and  C4_7
REMARK    5  A    between atoms: C4_7  and  C5_8
REMARK    6  A    between atoms: C5_8  and  C6_9
REMARK    7  A    between atoms: C11_17  and  C12_18
REMARK    8  A    between atoms: C12_18  and  O1_19
ROOT
HETATM    1  C6  UNL     1     -23.220   2.640  -7.542  1.00  0.00     0.125 C
HETATM    2  C7  UNL     1     -23.788   2.567  -6.169  1.00  0.00     0.065 C
HETATM    3  C8  UNL     1     -23.714   1.251  -5.484  1.00  0.00     0.191 C
HETATM    4  C9  UNL     1     -24.983   0.501  -5.919  1.00  0.00     0.068 C
HETATM    5  C10 UNL     1     -24.070  -0.099  -6.921  1.00  0.00     0.219 C
HETATM    6  N2  UNL     1     -22.959   0.221  -6.070  1.00  0.00    -0.064 N
ATOM      7  H21 UNL     1     -22.537  -0.501  -5.485  1.00  0.00     0.278 HD
ATOM      8  H22 UNL     1     -22.045   0.423  -6.475  1.00  0.00     0.278 HD
HETATM    9  C11 UNL     1     -24.024   0.547  -8.254  1.00  0.00     0.176 C
HETATM   10  O2  UNL     1     -23.244   1.637  -8.387  1.00  0.00    -0.376 OA
ENDROOT
BRANCH   1  11
HETATM   11  C5  UNL     1     -21.830   3.247  -7.467  1.00  0.00     0.051 C
BRANCH  11  12
HETATM   12  C4  UNL     1     -21.265   3.623  -8.831  1.00  0.00     0.116 C
BRANCH  12  13
HETATM   13  N1  UNL     1     -20.698   2.407  -9.360  1.00  0.00    -0.420 N
ATOM     14  H1  UNL     1     -21.142   1.499  -9.223  1.00  0.00     0.153 HD
BRANCH  13  15
HETATM   15  C3  UNL     1     -19.484   2.550 -10.082  1.00  0.00     0.124 C
BRANCH  15  16
HETATM   16  C2  UNL     1     -19.250   1.221 -10.822  1.00  0.00     0.092 C
BRANCH  16  17
HETATM   17  S1  UNL     1     -20.783   0.641 -11.560  1.00  0.00    -0.172 SA
HETATM   18  C1  UNL     1     -20.665   0.864 -13.373  1.00  0.00     0.089 C
ENDBRANCH  16  17
ENDBRANCH  15  16
ENDBRANCH  13  15
ENDBRANCH  12  13
ENDBRANCH  11  12
ENDBRANCH   1  11
BRANCH   9  19
HETATM   19  C12 UNL     1     -25.429   0.893  -8.692  1.00  0.00     0.198 C
BRANCH  19  20
HETATM   20  O1  UNL     1     -25.516   1.619  -9.841  1.00  0.00    -0.398 OA
ATOM     21  H1  UNL     1     -26.337   1.536 -10.311  1.00  0.00     0.209 HD
ENDBRANCH  19  20
ENDBRANCH   9  19
TORSDOF 8
ENDMDL