MODEL 5
REMARK VINA RESULT: -7.245343061      1.535      1.917
REMARK  9 active torsions:
REMARK  status: ('A' for Active; 'I' for Inactive)
REMARK    1  A    between atoms: O1_1  and  C1_3
REMARK    2  A    between atoms: C1_3  and  C2_4
REMARK    3  A    between atoms: C3_9  and  N3_10
REMARK    4  A    between atoms: N3_10  and  C4_12
REMARK    5  A    between atoms: C4_12  and  C5_13
REMARK    6  A    between atoms: C5_13  and  C6_14
REMARK    7  A    between atoms: C6_14  and  C7_15
REMARK    8  A    between atoms: C7_15  and  C8_16
REMARK    9  A    between atoms: C8_16  and  N4_17
ROOT
HETATM    1  N3  UNL     1     -19.267   2.707  -9.656  1.00  0.00    -0.225 N
ATOM      2  H3  UNL     1     -18.367   2.877  -9.208  1.00  0.00     0.177 HD
ENDROOT
BRANCH   1   3
HETATM    3  C3  UNL     1     -19.384   1.727 -10.489  1.00  0.00     0.694 A
HETATM    4  N2  UNL     1     -18.776   0.550 -10.402  1.00  0.00    -0.131 N
HETATM    5  N1  UNL     1     -19.171  -0.155 -11.455  1.00  0.00    -0.272 N
ATOM      6  H2  UNL     1     -18.132   0.248  -9.671  1.00  0.00     0.205 HD
HETATM    7  C2  UNL     1     -20.013   0.567 -12.189  1.00  0.00     0.136 A
ATOM      8  H1  UNL     1     -18.874  -1.107 -11.668  1.00  0.00     0.189 HD
HETATM    9  N5  UNL     1     -20.159   1.756 -11.596  1.00  0.00    -0.176 N
ATOM     10  H5  UNL     1     -20.740   2.532 -11.915  1.00  0.00     0.185 HD
BRANCH   7  11
HETATM   11  C1  UNL     1     -20.693   0.160 -13.449  1.00  0.00     0.242 C
BRANCH  11  12
HETATM   12  O1  UNL     1     -20.353  -1.191 -13.658  1.00  0.00    -0.393 OA
ATOM     13  H1  UNL     1     -19.509  -1.317 -13.240  1.00  0.00     0.209 HD
ENDBRANCH  11  12
ENDBRANCH   7  11
ENDBRANCH   1   3
BRANCH   1  14
HETATM   14  C4  UNL     1     -20.384   3.562  -9.349  1.00  0.00     0.138 C
BRANCH  14  15
HETATM   15  C5  UNL     1     -20.314   3.886  -7.855  1.00  0.00     0.020 C
BRANCH  15  16
HETATM   16  C6  UNL     1     -21.626   3.450  -7.267  1.00  0.00     0.003 C
BRANCH  16  17
HETATM   17  C7  UNL     1     -22.480   2.713  -8.264  1.00  0.00     0.030 C
BRANCH  17  18
HETATM   18  C8  UNL     1     -23.351   1.766  -7.549  1.00  0.00     0.272 C
BRANCH  18  19
HETATM   19  N4  UNL     1     -24.205   2.313  -6.543  1.00  0.00     0.088 N
HETATM   20  C9  UNL     1     -24.129   1.692  -5.260  1.00  0.00     0.272 C
HETATM   21  C10 UNL     1     -24.810   0.363  -5.181  1.00  0.00     0.030 C
HETATM   22  C11 UNL     1     -26.220   0.490  -5.683  1.00  0.00     0.003 C
HETATM   23  C12 UNL     1     -26.136   0.988  -7.122  1.00  0.00     0.030 C
HETATM   24  C13 UNL     1     -25.546   2.370  -7.074  1.00  0.00     0.272 C
ENDBRANCH  18  19
ENDBRANCH  17  18
ENDBRANCH  16  17
ENDBRANCH  15  16
ENDBRANCH  14  15
ENDBRANCH   1  14
TORSDOF 9
ENDMDL