MODEL 3
REMARK VINA RESULT: -6.494545530      2.721      4.382
REMARK  9 active torsions:
REMARK  status: ('A' for Active; 'I' for Inactive)
REMARK    1  A    between atoms: N1_1  and  C1_5
REMARK    2  A    between atoms: C1_5  and  C2_6
REMARK    3  A    between atoms: C2_6  and  C3_7
REMARK    4  A    between atoms: C3_7  and  N2_8
REMARK    5  A    between atoms: N2_8  and  C4_10
REMARK    6  A    between atoms: C5_13  and  S1_14
REMARK    7  A    between atoms: S1_14  and  C6_15
REMARK    8  A    between atoms: C6_15  and  C7_16
REMARK    9  A    between atoms: C7_16  and  N4_17
ROOT
HETATM    1  C4  UNL     1     -23.568   0.286  -9.315  1.00  0.00     0.694 A
HETATM    2  N3  UNL     1     -24.635  -0.355  -8.814  1.00  0.00    -0.168 N
ATOM      3  H3  UNL     1     -24.646  -1.312  -8.460  1.00  0.00     0.186 HD
HETATM    4  C5  UNL     1     -25.693   0.484  -8.860  1.00  0.00     0.174 A
HETATM    5  N5  UNL     1     -25.235   1.613  -9.389  1.00  0.00    -0.265 N
ATOM      6  H5  UNL     1     -25.800   2.446  -9.556  1.00  0.00     0.189 HD
HETATM    7  N6  UNL     1     -23.927   1.510  -9.676  1.00  0.00    -0.130 N
ATOM      8  H6  UNL     1     -23.330   2.229 -10.087  1.00  0.00     0.205 HD
ENDROOT
BRANCH   1   9
HETATM    9  N2  UNL     1     -22.400  -0.233  -9.412  1.00  0.00    -0.225 N
ATOM     10  H2  UNL     1     -22.051  -0.763  -8.613  1.00  0.00     0.177 HD
BRANCH   9  11
HETATM   11  C3  UNL     1     -21.554  -0.124 -10.554  1.00  0.00     0.140 C
BRANCH  11  12
HETATM   12  C2  UNL     1     -20.762   1.160 -10.501  1.00  0.00     0.047 C
BRANCH  12  13
HETATM   13  C1  UNL     1     -19.392   0.902 -11.073  1.00  0.00     0.231 C
BRANCH  13  14
HETATM   14  N1  UNL     1     -18.883  -0.392 -10.706  1.00  0.00    -0.079 N
ATOM     15  H13 UNL     1     -19.067  -1.080 -11.436  1.00  0.00     0.274 HD
ATOM     16  H12 UNL     1     -17.863  -0.405 -10.725  1.00  0.00     0.274 HD
ATOM     17  H11 UNL     1     -19.239  -0.707  -9.804  1.00  0.00     0.274 HD
ENDBRANCH  13  14
ENDBRANCH  12  13
ENDBRANCH  11  12
ENDBRANCH   9  11
ENDBRANCH   1   9
BRANCH   4  18
HETATM   18  S1  UNL     1     -27.326   0.124  -8.305  1.00  0.00    -0.087 SA
BRANCH  18  19
HETATM   19  C6  UNL     1     -27.466  -0.019  -6.527  1.00  0.00     0.127 C
BRANCH  19  20
HETATM   20  C7  UNL     1     -26.951   1.216  -5.845  1.00  0.00     0.073 C
BRANCH  20  21
HETATM   21  N4  UNL     1     -25.582   1.221  -5.697  1.00  0.00    -0.373 N
HETATM   22  C8  UNL     1     -24.724   2.286  -5.903  1.00  0.00     0.063 C
HETATM   23  C9  UNL     1     -23.301   1.725  -5.933  1.00  0.00     0.046 C
HETATM   24  C10 UNL     1     -23.421   0.307  -5.502  1.00  0.00     0.025 C
HETATM   25  C11 UNL     1     -24.889   0.106  -5.168  1.00  0.00     0.127 C
ENDBRANCH  20  21
ENDBRANCH  19  20
ENDBRANCH  18  19
ENDBRANCH   4  18
TORSDOF 9
ENDMDL