MODEL 4
REMARK VINA RESULT: -5.949159790      1.633      2.055
REMARK  7 active torsions:
REMARK  status: ('A' for Active; 'I' for Inactive)
REMARK    1  A    between atoms: C2_2  and  C3_3
REMARK    2  A    between atoms: C3_3  and  O1_4
REMARK    3  A    between atoms: O1_4  and  C4_5
REMARK    4  A    between atoms: C6_8  and  N1_9
REMARK       I    between atoms: N1_9  and  C7_11
REMARK       I    between atoms: C7_11  and  N2_12
REMARK    5  A    between atoms: C8_16  and  O3_17
REMARK    6  A    between atoms: C10_19  and  N4_20
REMARK    7  A    between atoms: N4_20  and  N5_22
ROOT
HETATM    1  C4  UNL     1     -19.906   2.289 -12.861  1.00  0.00     0.286 C
HETATM    2  O2  UNL     1     -21.261   2.576 -12.759  1.00  0.00    -0.357 OA
HETATM    3  C5  UNL     1     -21.991   1.558 -12.160  1.00  0.00     0.199 C
HETATM    4  C6  UNL     1     -21.613   1.361 -10.707  1.00  0.00     0.139 C
HETATM    5  C8  UNL     1     -20.222   1.878 -10.458  1.00  0.00     0.174 C
HETATM    6  C10 UNL     1     -19.389   1.520 -11.672  1.00  0.00     0.186 C
ENDROOT
BRANCH   4   7
HETATM    7  N1  UNL     1     -22.585   1.902  -9.806  1.00  0.00    -0.356 N
HETATM    8  C7  UNL     1     -23.659   1.101  -9.358  1.00  0.00     0.182 C
HETATM    9  N2  UNL     1     -23.438   0.136  -8.501  1.00  0.00    -0.374 N
HETATM   10  N3  UNL     1     -24.996   1.275  -9.789  1.00  0.00    -0.064 NA
ATOM     11  H22 UNL     1     -22.475   0.010  -8.191  1.00  0.00     0.158 HD
ATOM     12  H21 UNL     1     -24.213  -0.443  -8.178  1.00  0.00     0.158 HD
ATOM     13  H1  UNL     1     -22.502   2.867  -9.487  1.00  0.00     0.162 HD
ENDBRANCH   4   7
BRANCH   5  14
HETATM   14  O3  UNL     1     -20.165   3.210 -10.141  1.00  0.00    -0.386 OA
HETATM   15  C9  UNL     1     -19.811   3.402  -8.786  1.00  0.00     0.202 C
ENDBRANCH   5  14
BRANCH   6  16
HETATM   16  N4  UNL     1     -18.017   1.810 -11.358  1.00  0.00    -0.310 N
ATOM     17  H4  UNL     1     -17.420   1.103 -10.929  1.00  0.00     0.182 HD
BRANCH  16  18
HETATM   18  N5  UNL     1     -17.577   2.934 -11.620  1.00  0.00    -0.253 N
HETATM   19  N6  UNL     1     -17.261   4.108 -11.345  1.00  0.00    -0.331 N
ATOM     20  H62 UNL     1     -17.511   4.140 -10.357  1.00  0.00     0.178 HD
ATOM     21  H61 UNL     1     -16.898   5.036 -11.561  1.00  0.00     0.178 HD
ATOM     22  H5  UNL     1     -17.341   2.860 -12.609  1.00  0.00     0.207 HD
ENDBRANCH  16  18
ENDBRANCH   6  16
BRANCH   1  23
HETATM   23  O1  UNL     1     -19.626   1.657 -14.063  1.00  0.00    -0.359 OA
BRANCH  23  24
HETATM   24  C3  UNL     1     -19.492   2.623 -15.053  1.00  0.00     0.170 C
BRANCH  24  25
HETATM   25  C2  UNL     1     -18.112   3.236 -15.058  1.00  0.00     0.022 C
HETATM   26  C1  UNL     1     -17.555   3.299 -16.475  1.00  0.00     0.007 C
ENDBRANCH  24  25
ENDBRANCH  23  24
ENDBRANCH   1  23
TORSDOF 7
ENDMDL