MODEL 2
REMARK VINA RESULT: -6.459894287      1.032      1.403
REMARK  9 active torsions:
REMARK  status: ('A' for Active; 'I' for Inactive)
REMARK    1  A    between atoms: N1_1  and  C1_5
REMARK    2  A    between atoms: C1_5  and  C2_6
REMARK    3  A    between atoms: C2_6  and  N2_7
REMARK    4  A    between atoms: N2_7  and  C3_8
REMARK    5  A    between atoms: N2_7  and  C9_20
REMARK    6  A    between atoms: C3_8  and  C4_9
REMARK    7  A    between atoms: C4_9  and  C5_10
REMARK    8  A    between atoms: C5_10  and  N3_11
REMARK    9  A    between atoms: N3_11  and  C6_13
ROOT
HETATM    1  N2  UNL     1     -26.180   1.146  -8.056  1.00  0.00    -0.387 N
ENDROOT
BRANCH   1   2
HETATM    2  C2  UNL     1     -26.929  -0.006  -8.296  1.00  0.00     0.085 C
BRANCH   2   3
HETATM    3  C1  UNL     1     -28.368   0.312  -8.621  1.00  0.00     0.274 C
BRANCH   3   4
HETATM    4  N1  UNL     1     -29.291  -0.064  -7.567  1.00  0.00    -0.075 N
ATOM      5  H13 UNL     1     -29.100  -1.011  -7.240  1.00  0.00     0.274 HD
ATOM      6  H12 UNL     1     -29.093   0.453  -6.710  1.00  0.00     0.274 HD
ATOM      7  H11 UNL     1     -30.270   0.037  -7.833  1.00  0.00     0.274 HD
ENDBRANCH   3   4
ENDBRANCH   2   3
ENDBRANCH   1   2
BRANCH   1   8
HETATM    8  C3  UNL     1     -25.257   1.400  -9.097  1.00  0.00     0.124 C
BRANCH   8   9
HETATM    9  C4  UNL     1     -24.475   0.226  -9.565  1.00  0.00     0.039 C
BRANCH   9  10
HETATM   10  C5  UNL     1     -23.089   0.238  -8.975  1.00  0.00     0.124 C
BRANCH  10  11
HETATM   11  N3  UNL     1     -22.199  -0.657  -9.675  1.00  0.00    -0.362 N
ATOM     12  H3  UNL     1     -22.292  -1.669  -9.588  1.00  0.00     0.162 HD
BRANCH  11  13
HETATM   13  C6  UNL     1     -21.171  -0.067 -10.504  1.00  0.00     0.171 C
HETATM   14  N4  UNL     1     -19.902  -0.242 -10.403  1.00  0.00    -0.361 N
HETATM   15  C7  UNL     1     -19.162   0.500 -11.399  1.00  0.00     0.142 C
ATOM     16  H4  UNL     1     -19.466  -0.838  -9.700  1.00  0.00     0.162 HD
HETATM   17  C8  UNL     1     -20.211   1.090 -12.303  1.00  0.00     0.142 C
HETATM   18  N5  UNL     1     -21.430   0.810 -11.573  1.00  0.00    -0.361 N
ATOM     19  H5  UNL     1     -22.347   1.193 -11.801  1.00  0.00     0.162 HD
ENDBRANCH  11  13
ENDBRANCH  10  11
ENDBRANCH   9  10
ENDBRANCH   8   9
ENDBRANCH   1   8
BRANCH   1  20
HETATM   20  C9  UNL     1     -25.949   1.629  -6.760  1.00  0.00     0.087 C
HETATM   21  C10 UNL     1     -24.746   2.516  -6.603  1.00  0.00     0.051 C
HETATM   22  C11 UNL     1     -23.630   1.919  -5.830  1.00  0.00     0.169 C
HETATM   23  O1  UNL     1     -24.002   1.168  -4.726  1.00  0.00    -0.391 OA
HETATM   24  C12 UNL     1     -24.780   0.087  -5.147  1.00  0.00     0.169 C
HETATM   25  C13 UNL     1     -26.076   0.612  -5.645  1.00  0.00     0.051 C
ENDBRANCH   1  20
TORSDOF 9
ENDMDL