MODEL 3
REMARK VINA RESULT: -6.434539822      2.230      6.302
REMARK  8 active torsions:
REMARK  status: ('A' for Active; 'I' for Inactive)
REMARK    1  A    between atoms: C4_4  and  N1_5
REMARK    2  A    between atoms: N1_5  and  C5_7
REMARK    3  A    between atoms: C5_7  and  C6_8
REMARK    4  A    between atoms: C6_8  and  C7_9
REMARK    5  A    between atoms: C7_9  and  N2_10
REMARK    6  A    between atoms: N2_10  and  C8_13
REMARK    7  A    between atoms: C8_13  and  C9_14
REMARK    8  A    between atoms: C9_14  and  N3_15
ROOT
HETATM    1  C7  UNL     1     -21.771   3.490  -8.581  1.00  0.00     0.237 C
ENDROOT
BRANCH   1   2
HETATM    2  C6  UNL     1     -20.346   3.858  -8.118  1.00  0.00     0.072 C
BRANCH   2   3
HETATM    3  C5  UNL     1     -19.667   4.401  -9.332  1.00  0.00     0.064 C
BRANCH   3   4
HETATM    4  N1  UNL     1     -18.755   3.530  -9.953  1.00  0.00    -0.360 N
ATOM      5  H1  UNL     1     -17.761   3.646  -9.756  1.00  0.00     0.166 HD
BRANCH   4   6
HETATM    6  C4  UNL     1     -19.151   2.499 -10.841  1.00  0.00     0.076 C
HETATM    7  C3  UNL     1     -19.780   2.737 -12.126  1.00  0.00     0.076 C
HETATM    8  C2  UNL     1     -20.264   1.499 -12.846  1.00  0.00     0.009 C
HETATM    9  C1  UNL     1     -20.488   0.358 -11.913  1.00  0.00     0.020 C
HETATM   10  C14 UNL     1     -19.170   0.131 -11.158  1.00  0.00     0.121 C
HETATM   11  N4  UNL     1     -18.887   1.317 -10.428  1.00  0.00    -0.380 N
ATOM     12  H4  UNL     1     -18.445   1.220  -9.514  1.00  0.00     0.160 HD
ENDBRANCH   4   6
ENDBRANCH   3   4
ENDBRANCH   2   3
ENDBRANCH   1   2
BRANCH   1  13
HETATM   13  N2  UNL     1     -22.214   2.312  -7.927  1.00  0.00    -0.073 N
ATOM     14  H22 UNL     1     -22.936   1.825  -8.457  1.00  0.00     0.277 HD
ATOM     15  H21 UNL     1     -21.507   1.577  -7.934  1.00  0.00     0.277 HD
BRANCH  13  16
HETATM   16  C8  UNL     1     -22.652   2.642  -6.575  1.00  0.00     0.262 C
BRANCH  16  17
HETATM   17  C9  UNL     1     -24.086   2.258  -6.374  1.00  0.00     0.300 C
BRANCH  17  18
HETATM   18  N3  UNL     1     -24.330   0.940  -6.902  1.00  0.00     0.094 N
HETATM   19  C10 UNL     1     -25.745   0.805  -7.255  1.00  0.00     0.298 C
HETATM   20  C11 UNL     1     -26.597   0.837  -6.043  1.00  0.00     0.198 C
HETATM   21  O1  UNL     1     -26.297  -0.299  -5.255  1.00  0.00    -0.388 OA
HETATM   22  C12 UNL     1     -25.001  -0.086  -4.772  1.00  0.00     0.198 C
HETATM   23  C13 UNL     1     -23.994  -0.055  -5.896  1.00  0.00     0.298 C
ENDBRANCH  17  18
ENDBRANCH  16  17
ENDBRANCH  13  16
ENDBRANCH   1  13
TORSDOF 8
ENDMDL