MODEL 1
REMARK VINA RESULT: -6.676941542      0.000      0.000
REMARK  8 active torsions:
REMARK  status: ('A' for Active; 'I' for Inactive)
REMARK    1  A    between atoms: N1_3  and  C4_5
REMARK    2  A    between atoms: C4_5  and  C5_6
REMARK    3  A    between atoms: C5_6  and  N2_7
REMARK    4  A    between atoms: N2_7  and  C7_9
REMARK    5  A    between atoms: C7_9  and  C8_10
REMARK    6  A    between atoms: C8_10  and  C9_11
REMARK    7  A    between atoms: C9_11  and  N3_12
REMARK    8  A    between atoms: C11_19  and  N6_20
ROOT
HETATM    1  C1  UNL     1     -22.235   2.980  -6.884  1.00  0.00     0.037 C
HETATM    2  C2  UNL     1     -22.917   2.061  -6.509  1.00  0.00    -0.004 C
HETATM    3  N1  UNL     1     -23.729   1.019  -6.077  1.00  0.00    -0.345 N
HETATM    4  C3  UNL     1     -23.307  -0.350  -6.271  1.00  0.00     0.160 C
ENDROOT
BRANCH   3   5
HETATM    5  C4  UNL     1     -25.031   1.228  -5.440  1.00  0.00     0.151 C
BRANCH   5   6
HETATM    6  C5  UNL     1     -26.122   1.580  -6.378  1.00  0.00     0.141 C
BRANCH   6   7
HETATM    7  N2  UNL     1     -26.822   0.505  -6.996  1.00  0.00    -0.396 N
HETATM    8  C6  UNL     1     -27.942   0.084  -6.286  1.00  0.00     0.148 C
BRANCH   7   9
HETATM    9  C7  UNL     1     -26.652   0.411  -8.355  1.00  0.00     0.059 C
BRANCH   9  10
HETATM   10  C8  UNL     1     -25.637   1.301  -9.046  1.00  0.00     0.064 C
BRANCH  10  11
HETATM   11  C9  UNL     1     -24.492   0.534  -9.657  1.00  0.00     0.127 C
BRANCH  11  12
HETATM   12  N3  UNL     1     -23.427   1.388 -10.069  1.00  0.00    -0.369 N
HETATM   13  C10 UNL     1     -22.205   1.027 -10.199  1.00  0.00     0.162 A
HETATM   14  N4  UNL     1     -21.591  -0.140 -10.013  1.00  0.00    -0.278 N
HETATM   15  S1  UNL     1     -20.882   2.023 -10.712  1.00  0.00    -0.016 SA
HETATM   16  N5  UNL     1     -20.337  -0.235 -10.230  1.00  0.00    -0.278 N
ATOM     17  H4  UNL     1     -22.119  -0.954  -9.698  1.00  0.00     0.189 HD
HETATM   18  C11 UNL     1     -19.665   0.836 -10.638  1.00  0.00     0.160 A
ATOM     19  H5  UNL     1     -19.855  -1.124 -10.093  1.00  0.00     0.189 HD
ATOM     20  H3  UNL     1     -23.656   2.361 -10.275  1.00  0.00     0.161 HD
BRANCH  18  21
HETATM   21  N6  UNL     1     -18.385   0.940 -10.911  1.00  0.00    -0.379 N
ATOM     22  H62 UNL     1     -17.842   0.488 -11.647  1.00  0.00     0.158 HD
ATOM     23  H61 UNL     1     -17.679   1.498 -10.431  1.00  0.00     0.158 HD
ENDBRANCH  18  21
ENDBRANCH  11  12
ENDBRANCH  10  11
ENDBRANCH   9  10
ENDBRANCH   7   9
ENDBRANCH   6   7
ENDBRANCH   5   6
ENDBRANCH   3   5
TORSDOF 8
ENDMDL