MODEL 3
REMARK VINA RESULT: -9.287859776      1.612      2.062
REMARK  17 active torsions:
REMARK  status: ('A' for Active; 'I' for Inactive)
REMARK    1  A    between atoms: O1_2  and  C2_3
REMARK    2  A    between atoms: C2_3  and  C3_5
REMARK    3  A    between atoms: C5_7  and  O3_8
REMARK    4  A    between atoms: N1_18  and  C12_19
REMARK    5  A    between atoms: C12_19  and  C13_20
REMARK    6  A    between atoms: C13_20  and  C14_21
REMARK    7  A    between atoms: C14_21  and  N2_22
REMARK    8  A    between atoms: N2_22  and  C15_25
REMARK    9  A    between atoms: C15_25  and  C16_26
REMARK   10  A    between atoms: C16_26  and  C17_27
REMARK   11  A    between atoms: C17_27  and  N3_28
REMARK       I    between atoms: N3_28  and  C18_30
REMARK   12  A    between atoms: C18_30  and  C19_32
REMARK   13  A    between atoms: C22_38  and  O7_39
REMARK   14  A    between atoms: C24_42  and  O8_43
REMARK   15  A    between atoms: C24_42  and  C25_45
REMARK   16  A    between atoms: C25_45  and  O9_46
REMARK   17  A    between atoms: C27_50  and  O10_51
ROOT
HETATM    1  C3  UNL     1     117.075  42.146  91.941  1.00  0.00     0.043 A
HETATM    2  C4  UNL     1     116.442  41.030  91.438  1.00  0.00     0.055 A
HETATM    3  C5  UNL     1     115.097  40.997  91.163  1.00  0.00     0.082 A
HETATM    4  C6  UNL     1     114.305  42.121  91.390  1.00  0.00     0.065 A
HETATM    5  C7  UNL     1     112.975  42.035  91.097  1.00  0.00     0.202 A
HETATM    6  O4  UNL     1     112.551  40.917  90.635  1.00  0.00    -0.286 OA
HETATM    7  C8  UNL     1     112.028  43.026  91.245  1.00  0.00     0.084 A
HETATM    8  C9  UNL     1     112.258  44.281  91.716  1.00  0.00     0.094 A
HETATM    9  S1  UNL     1     113.895  44.572  92.139  1.00  0.00    -0.070 SA
HETATM   10  C10 UNL     1     114.922  43.235  91.889  1.00  0.00     0.025 A
HETATM   11  C11 UNL     1     116.279  43.245  92.158  1.00  0.00     0.037 A
HETATM   12  N1  UNL     1     111.230  45.310  91.856  1.00  0.00    -0.337 N
HETATM   13  C23 UNL     1     109.919  45.009  91.482  1.00  0.00     0.094 A
HETATM   14  C24 UNL     1     108.946  45.858  91.409  1.00  0.00     0.095 C
HETATM   15  C26 UNL     1     109.665  43.620  90.967  1.00  0.00     0.110 A
HETATM   16  N6  UNL     1     108.331  43.257  90.581  1.00  0.00    -0.097 NA
HETATM   17  C27 UNL     1     110.635  42.740  90.867  1.00  0.00     0.109 A
ENDROOT
BRANCH  12  18
HETATM   18  C12 UNL     1     111.723  46.466  92.547  1.00  0.00     0.132 C
BRANCH  18  19
HETATM   19  C13 UNL     1     111.793  46.392  94.023  1.00  0.00     0.048 C
BRANCH  19  20
HETATM   20  C14 UNL     1     110.544  46.295  94.811  1.00  0.00     0.234 C
BRANCH  20  21
HETATM   21  N2  UNL     1     110.110  44.905  94.987  1.00  0.00    -0.075 N
ATOM     22  H22 UNL     1     110.433  44.281  94.246  1.00  0.00     0.277 HD
ATOM     23  H21 UNL     1     110.574  44.428  95.760  1.00  0.00     0.277 HD
BRANCH  21  24
HETATM   24  C15 UNL     1     108.671  44.949  95.117  1.00  0.00     0.234 C
BRANCH  24  25
HETATM   25  C16 UNL     1     108.162  45.914  96.131  1.00  0.00     0.047 C
BRANCH  25  26
HETATM   26  C17 UNL     1     107.637  45.289  97.396  1.00  0.00     0.124 C
BRANCH  26  27
HETATM   27  N3  UNL     1     108.430  44.144  97.759  1.00  0.00    -0.355 N
HETATM   28  C18 UNL     1     107.812  42.907  98.164  1.00  0.00     0.278 C
HETATM   29  O5  UNL     1     106.561  42.849  98.196  1.00  0.00    -0.265 OA
ATOM     30  H3  UNL     1     109.448  44.210  97.730  1.00  0.00     0.162 HD
BRANCH  28  31
HETATM   31  C19 UNL     1     108.646  41.772  98.520  1.00  0.00     0.180 A
HETATM   32  O6  UNL     1     109.841  41.842  99.036  1.00  0.00    -0.285 OA
HETATM   33  C20 UNL     1     110.364  40.675  99.257  1.00  0.00     0.185 A
HETATM   34  N4  UNL     1     111.641  40.383  99.807  1.00  0.00    -0.072 NA
HETATM   35  C21 UNL     1     109.445  39.751  98.858  1.00  0.00     0.130 A
HETATM   36  N5  UNL     1     109.582  38.337  98.909  1.00  0.00    -0.095 NA
HETATM   37  C22 UNL     1     108.327  40.440  98.378  1.00  0.00     0.133 A
BRANCH  37  38
HETATM   38  O7  UNL     1     107.184  39.855  97.884  1.00  0.00    -0.356 OA
ATOM     39  H7  UNL     1     106.965  38.936  97.784  1.00  0.00     0.218 HD
ENDBRANCH  37  38
ENDBRANCH  28  31
ENDBRANCH  26  27
ENDBRANCH  25  26
ENDBRANCH  24  25
ENDBRANCH  21  24
ENDBRANCH  20  21
ENDBRANCH  19  20
ENDBRANCH  18  19
ENDBRANCH  12  18
BRANCH  14  40
HETATM   40  O8  UNL     1     107.651  45.294  90.998  1.00  0.00    -0.360 OA
ATOM     41  H8  UNL     1     107.006  45.212  91.691  1.00  0.00     0.217 HD
ENDBRANCH  14  40
BRANCH  14  42
HETATM   42  C25 UNL     1     108.789  47.278  91.629  1.00  0.00     0.230 C
BRANCH  42  43
HETATM   43  O9  UNL     1     108.164  47.558  92.872  1.00  0.00    -0.394 OA
ATOM     44  H9  UNL     1     108.255  48.470  93.118  1.00  0.00     0.209 HD
ENDBRANCH  42  43
ENDBRANCH  14  42
BRANCH  17  45
HETATM   45  O10 UNL     1     110.296  41.480  90.376  1.00  0.00    -0.358 OA
ATOM     46  H10 UNL     1     110.962  40.934  89.976  1.00  0.00     0.217 HD
ENDBRANCH  17  45
BRANCH   3  47
HETATM   47  O3  UNL     1     114.551  39.833  90.663  1.00  0.00    -0.360 OA
ATOM     48  H3  UNL     1     114.052  39.873  89.855  1.00  0.00     0.217 HD
ENDBRANCH   3  47
BRANCH   1  49
HETATM   49  C2  UNL     1     118.490  42.150  92.216  1.00  0.00     0.293 C
HETATM   50  O2  UNL     1     119.190  43.154  91.855  1.00  0.00    -0.259 OA
BRANCH  49  51
HETATM   51  O1  UNL     1     119.155  41.121  92.856  1.00  0.00    -0.323 OA
HETATM   52  C1  UNL     1     118.752  40.730  94.171  1.00  0.00     0.213 C
ENDBRANCH  49  51
ENDBRANCH   1  49
TORSDOF 17
ENDMDL