MODEL 4
REMARK VINA RESULT: -8.914513337      2.141      3.184
REMARK  20 active torsions:
REMARK  status: ('A' for Active; 'I' for Inactive)
REMARK    1  A    between atoms: N1_1  and  N2_4
REMARK    2  A    between atoms: N2_4  and  N3_5
REMARK    3  A    between atoms: C1_6  and  S1_7
REMARK    4  A    between atoms: S1_7  and  S2_8
REMARK    5  A    between atoms: S2_8  and  C2_9
REMARK    6  A    between atoms: C3_12  and  S3_13
REMARK    7  A    between atoms: S3_13  and  C4_14
REMARK    8  A    between atoms: C5_15  and  C6_16
REMARK    9  A    between atoms: C6_16  and  O1_17
REMARK   10  A    between atoms: C6_16  and  N5_19
REMARK       I    between atoms: N5_19  and  C7_21
REMARK   11  A    between atoms: C7_21  and  C8_23
REMARK   12  A    between atoms: C8_23  and  C9_24
REMARK   13  A    between atoms: C8_23  and  C10_29
REMARK   14  A    between atoms: C9_24  and  N6_25
REMARK   15  A    between atoms: C10_29  and  N7_30
REMARK   16  A    between atoms: N7_30  and  C11_32
REMARK   17  A    between atoms: C15_36  and  O3_37
REMARK   18  A    between atoms: C17_42  and  C18_43
REMARK   19  A    between atoms: C19_46  and  O6_47
REMARK   20  A    between atoms: N9_49  and  C20_50
ROOT
HETATM    1  C2  UNL     1     111.375  42.080  91.164  1.00  0.00     0.117 A
HETATM    2  N4  UNL     1     112.612  42.444  91.686  1.00  0.00    -0.328 N
ATOM      3  H4  UNL     1     113.398  41.808  91.821  1.00  0.00     0.168 HD
HETATM    4  C3  UNL     1     112.620  43.730  91.982  1.00  0.00     0.150 A
HETATM    5  N8  UNL     1     111.424  44.200  91.666  1.00  0.00    -0.329 N
ATOM      6  H8  UNL     1     111.133  45.170  91.783  1.00  0.00     0.168 HD
HETATM    7  C17 UNL     1     110.629  43.203  91.159  1.00  0.00     0.146 A
ENDROOT
BRANCH   4   8
HETATM    8  S3  UNL     1     113.970  44.702  92.682  1.00  0.00    -0.066 SA
BRANCH   8   9
HETATM    9  C4  UNL     1     113.420  46.342  92.976  1.00  0.00     0.057 C
HETATM   10  C5  UNL     1     112.371  46.909  93.379  1.00  0.00     0.063 C
BRANCH  10  11
HETATM   11  C6  UNL     1     111.081  46.602  93.814  1.00  0.00     0.142 C
BRANCH  11  12
HETATM   12  O1  UNL     1     110.208  46.484  92.728  1.00  0.00    -0.346 OA
ATOM     13  H1  UNL     1     109.348  46.818  92.952  1.00  0.00     0.219 HD
ENDBRANCH  11  12
BRANCH  11  14
HETATM   14  N5  UNL     1     110.385  46.375  94.948  1.00  0.00    -0.307 N
HETATM   15  C7  UNL     1     109.423  45.511  95.430  1.00  0.00     0.231 C
HETATM   16  O2  UNL     1     108.843  44.553  94.908  1.00  0.00    -0.273 OA
ATOM     17  H5  UNL     1     110.651  47.047  95.668  1.00  0.00     0.171 HD
BRANCH  15  18
HETATM   18  C8  UNL     1     108.969  45.778  96.888  1.00  0.00     0.121 C
BRANCH  18  19
HETATM   19  C9  UNL     1     108.637  44.474  97.526  1.00  0.00     0.245 C
BRANCH  19  20
HETATM   20  N6  UNL     1     109.793  43.640  97.750  1.00  0.00    -0.078 N
ATOM     21  H63 UNL     1     110.371  44.014  98.502  1.00  0.00     0.274 HD
ATOM     22  H62 UNL     1     109.524  42.751  98.172  1.00  0.00     0.274 HD
ATOM     23  H61 UNL     1     110.348  43.489  96.907  1.00  0.00     0.274 HD
ENDBRANCH  19  20
ENDBRANCH  18  19
BRANCH  18  24
HETATM   24  C10 UNL     1     107.784  46.696  96.769  1.00  0.00     0.135 C
BRANCH  24  25
HETATM   25  N7  UNL     1     107.840  47.541  95.618  1.00  0.00    -0.389 N
ATOM     26  H7  UNL     1     108.666  48.118  95.457  1.00  0.00     0.159 HD
BRANCH  25  27
HETATM   27  C11 UNL     1     106.763  47.589  94.697  1.00  0.00     0.030 A
HETATM   28  C12 UNL     1     106.831  47.075  93.420  1.00  0.00     0.029 A
HETATM   29  C13 UNL     1     105.772  47.138  92.544  1.00  0.00     0.005 A
HETATM   30  C14 UNL     1     104.591  47.735  92.941  1.00  0.00     0.036 A
HETATM   31  C15 UNL     1     104.488  48.262  94.216  1.00  0.00     0.067 A
HETATM   32  C16 UNL     1     105.561  48.188  95.077  1.00  0.00     0.065 A
BRANCH  31  33
HETATM   33  O3  UNL     1     103.291  48.870  94.622  1.00  0.00    -0.361 OA
ATOM     34  H3  UNL     1     102.942  48.691  95.487  1.00  0.00     0.217 HD
ENDBRANCH  31  33
ENDBRANCH  25  27
ENDBRANCH  24  25
ENDBRANCH  18  24
ENDBRANCH  15  18
ENDBRANCH  11  14
ENDBRANCH  10  11
ENDBRANCH   8   9
ENDBRANCH   4   8
BRANCH   1  35
HETATM   35  S2  UNL     1     111.051  40.415  90.720  1.00  0.00    -0.030 SA
BRANCH  35  36
HETATM   36  S1  UNL     1     112.123  39.646  89.150  1.00  0.00    -0.025 SA
BRANCH  36  37
HETATM   37  C1  UNL     1     113.809  40.175  89.201  1.00  0.00     0.189 A
HETATM   38  N3  UNL     1     114.380  40.904  88.194  1.00  0.00     0.012 N
HETATM   39  C21 UNL     1     115.660  41.146  88.527  1.00  0.00     0.721 A
HETATM   40  N9  UNL     1     115.935  40.593  89.724  1.00  0.00    -0.098 N
HETATM   41  N11 UNL     1     116.530  41.806  87.833  1.00  0.00    -0.231 N
HETATM   42  C19 UNL     1     114.768  39.989  90.133  1.00  0.00     0.204 A
ATOM     43 2H11 UNL     1     116.323  42.224  86.926  1.00  0.00     0.174 HD
ATOM     44 1H11 UNL     1     117.501  41.989  88.085  1.00  0.00     0.174 HD
BRANCH  38  45
HETATM   45  N2  UNL     1     113.762  41.310  87.061  1.00  0.00    -0.220 NA
BRANCH  45  46
HETATM   46  N1  UNL     1     113.254  41.663  86.105  1.00  0.00    -0.259 N
ATOM     47  H12 UNL     1     114.116  41.751  86.643  1.00  0.00     0.193 HD
ATOM     48  H11 UNL     1     112.787  41.970  85.253  1.00  0.00     0.193 HD
ENDBRANCH  45  46
ENDBRANCH  38  45
BRANCH  40  49
HETATM   49  C20 UNL     1     117.160  40.611  90.443  1.00  0.00     0.209 C
HETATM   50  N10 UNL     1     117.583  41.768  91.105  1.00  0.00    -0.069 NA
HETATM   51  S4  UNL     1     118.071  39.262  90.488  1.00  0.00    -0.043 SA
ENDBRANCH  40  49
BRANCH  42  52
HETATM   52  O6  UNL     1     114.650  39.307  91.328  1.00  0.00    -0.343 OA
ATOM     53  H6  UNL     1     114.523  38.373  91.447  1.00  0.00     0.219 HD
ENDBRANCH  42  52
ENDBRANCH  36  37
ENDBRANCH  35  36
ENDBRANCH   1  35
BRANCH   7  54
HETATM   54  C18 UNL     1     109.274  43.468  90.794  1.00  0.00     0.229 C
HETATM   55  O4  UNL     1     108.740  43.078  89.759  1.00  0.00    -0.643 OA
HETATM   56  O5  UNL     1     108.421  44.225  91.633  1.00  0.00    -0.643 OA
ENDBRANCH   7  54
TORSDOF 20
ENDMDL