MODEL 3
REMARK VINA RESULT: -8.488188937      2.088      2.565
REMARK  19 active torsions:
REMARK  status: ('A' for Active; 'I' for Inactive)
REMARK    1  A    between atoms: S1_2  and  C2_3
REMARK    2  A    between atoms: C2_3  and  C3_8
REMARK    3  A    between atoms: N1_4  and  O1_6
REMARK       I    between atoms: C3_8  and  N2_10
REMARK    4  A    between atoms: N2_10  and  C4_12
REMARK    5  A    between atoms: C7_15  and  S2_16
REMARK    6  A    between atoms: S2_16  and  N3_19
REMARK    7  A    between atoms: N3_19  and  C8_21
REMARK    8  A    between atoms: C8_21  and  C9_25
REMARK    9  A    between atoms: C9_25  and  N5_26
REMARK   10  A    between atoms: C9_25  and  C10_30
REMARK   11  A    between atoms: C10_30  and  S3_31
REMARK   12  A    between atoms: S3_31  and  S4_32
REMARK   13  A    between atoms: S4_32  and  C11_33
REMARK   14  A    between atoms: C11_33  and  C12_34
REMARK   15  A    between atoms: C15_42  and  C16_43
REMARK   16  A    between atoms: C16_43  and  O5_44
REMARK   17  A    between atoms: C16_43  and  N8_46
REMARK   18  A    between atoms: N8_46  and  O6_48
REMARK   19  A    between atoms: C18_53  and  N10_54
ROOT
HETATM    1  C8  UNL     1     113.632  44.126  91.986  1.00  0.00     0.116 C
HETATM    2  N4  UNL     1     114.686  44.690  91.525  1.00  0.00    -0.387 N
ATOM      3  H41 UNL     1     115.510  44.136  91.296  1.00  0.00     0.157 HD
ATOM      4  H42 UNL     1     114.743  45.698  91.378  1.00  0.00     0.157 HD
ENDROOT
BRANCH   1   5
HETATM    5  N3  UNL     1     112.504  44.884  92.299  1.00  0.00    -0.268 N
ATOM      6  H3  UNL     1     111.620  44.381  92.387  1.00  0.00     0.180 HD
BRANCH   5   7
HETATM    7  S2  UNL     1     112.457  46.586  92.551  1.00  0.00     0.264 S
HETATM    8  O3  UNL     1     113.348  46.994  93.683  1.00  0.00    -0.200 OA
HETATM    9  O4  UNL     1     112.812  47.283  91.262  1.00  0.00    -0.200 OA
BRANCH   7  10
HETATM   10  C7  UNL     1     110.810  47.038  92.988  1.00  0.00     0.082 A
HETATM   11  C6  UNL     1     110.161  47.906  92.180  1.00  0.00     0.028 A
HETATM   12  C5  UNL     1     108.864  48.310  92.447  1.00  0.00     0.034 A
HETATM   13  C4  UNL     1     108.189  47.834  93.557  1.00  0.00     0.068 A
HETATM   14  C18 UNL     1     108.887  46.932  94.377  1.00  0.00     0.131 A
HETATM   15  C17 UNL     1     110.183  46.543  94.091  1.00  0.00     0.063 A
BRANCH  13  16
HETATM   16  N2  UNL     1     106.889  48.280  93.938  1.00  0.00    -0.319 N
HETATM   17  C3  UNL     1     105.664  48.014  93.313  1.00  0.00     0.281 C
HETATM   18  O2  UNL     1     105.646  47.263  92.275  1.00  0.00    -0.265 OA
ATOM     19  H2  UNL     1     106.846  48.867  94.770  1.00  0.00     0.169 HD
BRANCH  17  20
HETATM   20  C2  UNL     1     104.400  48.523  93.751  1.00  0.00     0.158 C
HETATM   21  N1  UNL     1     104.290  48.762  95.066  1.00  0.00    -0.257 N
ATOM     22  H1  UNL     1     103.398  49.102  95.423  1.00  0.00     0.195 HD
BRANCH  20  23
HETATM   23  S1  UNL     1     102.923  48.856  92.882  1.00  0.00    -0.109 SA
HETATM   24  C1  UNL     1     101.588  47.717  92.950  1.00  0.00     0.097 C
ENDBRANCH  20  23
BRANCH  21  25
HETATM   25  O1  UNL     1     105.299  48.577  95.938  1.00  0.00    -0.289 OA
ATOM     26  H1  UNL     1     105.500  47.736  96.331  1.00  0.00     0.244 HD
ENDBRANCH  21  25
ENDBRANCH  17  20
ENDBRANCH  13  16
BRANCH  14  27
HETATM   27  N10 UNL     1     108.312  46.350  95.527  1.00  0.00    -0.113 N
HETATM   28  O7  UNL     1     108.277  45.129  95.758  1.00  0.00    -0.532 OA
HETATM   29  O8  UNL     1     107.798  47.229  96.495  1.00  0.00    -0.532 OA
ENDBRANCH  14  27
ENDBRANCH   7  10
ENDBRANCH   5   7
ENDBRANCH   1   5
BRANCH   1  30
HETATM   30  C9  UNL     1     113.546  42.642  92.203  1.00  0.00     0.260 C
BRANCH  30  31
HETATM   31  N5  UNL     1     114.761  42.262  92.876  1.00  0.00    -0.067 N
ATOM     32  H53 UNL     1     115.296  41.551  92.377  1.00  0.00     0.275 HD
ATOM     33  H52 UNL     1     115.476  42.989  92.863  1.00  0.00     0.275 HD
ATOM     34  H51 UNL     1     114.490  41.977  93.817  1.00  0.00     0.275 HD
ENDBRANCH  30  31
BRANCH  30  35
HETATM   35  C10 UNL     1     113.393  41.934  90.880  1.00  0.00     0.127 C
BRANCH  35  36
HETATM   36  S3  UNL     1     111.670  41.706  90.479  1.00  0.00    -0.095 SA
BRANCH  36  37
HETATM   37  S4  UNL     1     111.460  41.500  88.376  1.00  0.00    -0.091 SA
BRANCH  37  38
HETATM   38  C11 UNL     1     112.192  39.942  87.882  1.00  0.00     0.143 C
BRANCH  38  39
HETATM   39  C12 UNL     1     113.570  40.029  87.395  1.00  0.00     0.024 A
HETATM   40  C13 UNL     1     113.918  39.364  86.262  1.00  0.00     0.073 A
HETATM   41  C14 UNL     1     115.206  39.447  85.798  1.00  0.00     0.102 A
HETATM   42  N6  UNL     1     115.564  38.830  84.735  1.00  0.00    -0.385 N
HETATM   43  N7  UNL     1     116.103  40.176  86.459  1.00  0.00    -0.325 N
ATOM     44  H62 UNL     1     114.877  38.271  84.229  1.00  0.00     0.157 HD
ATOM     45  H61 UNL     1     116.521  38.891  84.390  1.00  0.00     0.157 HD
HETATM   46  C15 UNL     1     115.776  40.840  87.580  1.00  0.00     0.161 A
ATOM     47  H7  UNL     1     117.058  40.232  86.106  1.00  0.00     0.169 HD
HETATM   48  N9  UNL     1     114.516  40.766  88.046  1.00  0.00    -0.342 N
ATOM     49  H9  UNL     1     114.265  41.268  88.898  1.00  0.00     0.167 HD
BRANCH  46  50
HETATM   50  C16 UNL     1     116.764  41.622  88.272  1.00  0.00     0.205 C
BRANCH  50  51
HETATM   51  O5  UNL     1     118.110  41.345  88.112  1.00  0.00    -0.342 OA
ATOM     52  H5  UNL     1     118.691  41.994  87.731  1.00  0.00     0.219 HD
ENDBRANCH  50  51
BRANCH  50  53
HETATM   53  N8  UNL     1     116.454  42.590  89.049  1.00  0.00    -0.244 N
ATOM     54  H8  UNL     1     116.926  42.684  89.949  1.00  0.00     0.196 HD
BRANCH  53  55
HETATM   55  O6  UNL     1     115.495  43.504  88.690  1.00  0.00    -0.288 OA
ATOM     56  H6  UNL     1     115.518  44.392  89.025  1.00  0.00     0.244 HD
ENDBRANCH  53  55
ENDBRANCH  50  53
ENDBRANCH  46  50
ENDBRANCH  38  39
ENDBRANCH  37  38
ENDBRANCH  36  37
ENDBRANCH  35  36
ENDBRANCH  30  35
ENDBRANCH   1  30
TORSDOF 19
ENDMDL