MODEL 5
REMARK VINA RESULT: -9.165923331      2.386      4.407
REMARK  17 active torsions:
REMARK  status: ('A' for Active; 'I' for Inactive)
REMARK    1  A    between atoms: C6_9  and  C7_10
REMARK    2  A    between atoms: C8_11  and  O2_12
REMARK    3  A    between atoms: C11_16  and  N3_17
REMARK    4  A    between atoms: N4_19  and  N5_21
REMARK       I    between atoms: N5_21  and  C12_23
REMARK       I    between atoms: C12_23  and  N7_27
REMARK    5  A    between atoms: N7_27  and  C13_29
REMARK    6  A    between atoms: C13_29  and  C14_30
REMARK    7  A    between atoms: C14_30  and  S1_31
REMARK    8  A    between atoms: S1_31  and  S2_32
REMARK    9  A    between atoms: S2_32  and  C15_33
REMARK   10  A    between atoms: C15_33  and  C16_34
REMARK   11  A    between atoms: C16_34  and  N8_35
REMARK       I    between atoms: N8_35  and  C17_37
REMARK   12  A    between atoms: C17_37  and  C18_39
REMARK   13  A    between atoms: C19_40  and  N9_41
REMARK   14  A    between atoms: N9_41  and  O4_43
REMARK   15  A    between atoms: O4_43  and  C20_44
REMARK   16  A    between atoms: C20_44  and  N10_45
REMARK   17  A    between atoms: C22_50  and  N11_51
ROOT
HETATM    1  C1  UNL     1     114.635  40.103  85.369  1.00  0.00     0.077 C
HETATM    2  C2  UNL     1     115.671  39.573  86.290  1.00  0.00     0.065 A
HETATM    3  O1  UNL     1     116.366  38.500  85.910  1.00  0.00    -0.301 OA
HETATM    4  C3  UNL     1     117.220  38.159  86.767  1.00  0.00     0.180 A
HETATM    5  C4  UNL     1     118.176  37.063  86.752  1.00  0.00     0.127 C
HETATM    6  N1  UNL     1     118.945  36.187  86.719  1.00  0.00    -0.189 NA
HETATM    7  C5  UNL     1     117.100  39.071  87.830  1.00  0.00     0.106 A
HETATM    8  N2  UNL     1     117.811  38.935  89.032  1.00  0.00    -0.098 NA
HETATM    9  C6  UNL     1     116.086  40.002  87.518  1.00  0.00     0.051 A
ENDROOT
BRANCH   9  10
HETATM   10  C7  UNL     1     115.414  40.932  88.437  1.00  0.00     0.084 A
HETATM   11  C8  UNL     1     115.979  41.961  89.145  1.00  0.00     0.106 A
HETATM   12  C9  UNL     1     115.060  42.409  90.092  1.00  0.00     0.031 A
HETATM   13  C10 UNL     1     115.162  43.380  91.051  1.00  0.00     0.047 A
HETATM   14  C23 UNL     1     113.910  41.667  89.982  1.00  0.00     0.081 A
HETATM   15  C11 UNL     1     114.133  43.644  91.923  1.00  0.00     0.052 A
HETATM   16  C21 UNL     1     112.989  42.919  91.818  1.00  0.00     0.069 A
HETATM   17  C22 UNL     1     112.841  41.898  90.827  1.00  0.00     0.132 A
HETATM   18  N12 UNL     1     114.159  40.784  88.986  1.00  0.00    -0.345 N
HETATM   19  C24 UNL     1     113.299  39.641  88.750  1.00  0.00     0.156 C
BRANCH  11  20
HETATM   20  O2  UNL     1     117.228  42.543  89.018  1.00  0.00    -0.357 OA
ATOM     21  H2  UNL     1     117.850  42.800  89.688  1.00  0.00     0.217 HD
ENDBRANCH  11  20
BRANCH  15  22
HETATM   22  N3  UNL     1     114.265  44.662  92.933  1.00  0.00    -0.286 N
HETATM   23  N4  UNL     1     113.426  45.623  92.930  1.00  0.00    -0.228 N
ATOM     24  H4  UNL     1     113.523  46.343  93.646  1.00  0.00     0.209 HD
ATOM     25  H3  UNL     1     115.008  44.616  93.630  1.00  0.00     0.188 HD
BRANCH  23  26
HETATM   26  N5  UNL     1     112.387  45.752  92.012  1.00  0.00    -0.118 N
HETATM   27  C12 UNL     1     111.010  45.615  92.319  1.00  0.00     0.687 C
HETATM   28  N6  UNL     1     110.271  44.807  91.621  1.00  0.00    -0.234 N
HETATM   29  N7  UNL     1     110.464  46.368  93.391  1.00  0.00    -0.224 N
ATOM     30  H62 UNL     1     110.664  44.265  90.851  1.00  0.00     0.174 HD
ATOM     31  H61 UNL     1     109.280  44.708  91.842  1.00  0.00     0.174 HD
ATOM     32  H7  UNL     1     110.087  45.881  94.204  1.00  0.00     0.177 HD
ATOM     33  H5  UNL     1     112.635  45.963  91.045  1.00  0.00     0.207 HD
BRANCH  29  34
HETATM   34  C13 UNL     1     110.430  47.815  93.354  1.00  0.00     0.149 C
BRANCH  34  35
HETATM   35  C14 UNL     1     108.992  48.236  93.112  1.00  0.00     0.106 C
BRANCH  35  36
HETATM   36  S1  UNL     1     107.838  46.995  93.735  1.00  0.00    -0.096 SA
BRANCH  36  37
HETATM   37  S2  UNL     1     106.566  47.834  95.241  1.00  0.00    -0.096 SA
BRANCH  37  38
HETATM   38  C15 UNL     1     107.188  47.352  96.887  1.00  0.00     0.105 C
BRANCH  38  39
HETATM   39  C16 UNL     1     108.270  46.331  96.745  1.00  0.00     0.134 C
BRANCH  39  40
HETATM   40  N8  UNL     1     107.948  45.114  97.436  1.00  0.00    -0.349 N
HETATM   41  C17 UNL     1     108.957  44.172  97.742  1.00  0.00     0.298 C
HETATM   42  O3  UNL     1     110.170  44.311  97.446  1.00  0.00    -0.258 OA
ATOM     43  H8  UNL     1     106.983  44.929  97.709  1.00  0.00     0.163 HD
BRANCH  41  44
HETATM   44  C18 UNL     1     108.629  42.937  98.448  1.00  0.00     0.019 C
HETATM   45  C19 UNL     1     108.370  41.903  99.010  1.00  0.00     0.042 C
BRANCH  45  46
HETATM   46  N9  UNL     1     108.095  40.687  99.643  1.00  0.00    -0.221 N
ATOM     47  H9  UNL     1     107.132  40.399  99.820  1.00  0.00     0.205 HD
BRANCH  46  48
HETATM   48  O4  UNL     1     109.144  39.887 100.023  1.00  0.00    -0.245 OA
BRANCH  48  49
HETATM   49  C20 UNL     1     109.619  39.265  98.875  1.00  0.00     0.430 C
BRANCH  49  50
HETATM   50  N10 UNL     1     110.354  38.069  99.154  1.00  0.00    -0.056 N
ATOM     51 3H10 UNL     1     111.352  38.211  99.004  1.00  0.00     0.276 HD
ATOM     52 2H10 UNL     1     110.362  37.871 100.154  1.00  0.00     0.276 HD
ATOM     53 1H10 UNL     1     110.017  37.265  98.625  1.00  0.00     0.276 HD
ENDBRANCH  49  50
ENDBRANCH  48  49
ENDBRANCH  46  48
ENDBRANCH  45  46
ENDBRANCH  41  44
ENDBRANCH  39  40
ENDBRANCH  38  39
ENDBRANCH  37  38
ENDBRANCH  36  37
ENDBRANCH  35  36
ENDBRANCH  34  35
ENDBRANCH  29  34
ENDBRANCH  23  26
ENDBRANCH  15  22
BRANCH  17  54
HETATM   54  N11 UNL     1     111.607  41.269  90.799  1.00  0.00    -0.113 N
HETATM   55  O5  UNL     1     110.614  42.026  90.457  1.00  0.00    -0.532 OA
HETATM   56  O6  UNL     1     111.238  40.015  91.070  1.00  0.00    -0.532 OA
ENDBRANCH  17  54
ENDBRANCH   9  10
TORSDOF 17
ENDMDL