MODEL 3
REMARK VINA RESULT: -9.390852039      1.253      1.679
REMARK  18 active torsions:
REMARK  status: ('A' for Active; 'I' for Inactive)
REMARK    1  A    between atoms: C2_2  and  O2_4
REMARK    2  A    between atoms: O2_4  and  C3_5
REMARK    3  A    between atoms: C6_8  and  C7_9
REMARK       I    between atoms: C7_9  and  N1_11
REMARK    4  A    between atoms: N1_11  and  C8_13
REMARK    5  A    between atoms: C8_13  and  C9_14
REMARK    6  A    between atoms: C9_14  and  C10_15
REMARK    7  A    between atoms: C10_15  and  O4_16
REMARK    8  A    between atoms: C10_15  and  N2_18
REMARK    9  A    between atoms: N2_18  and  N3_20
REMARK   10  A    between atoms: N3_20  and  C11_21
REMARK   11  A    between atoms: C11_21  and  O5_22
REMARK   12  A    between atoms: C11_21  and  C12_24
REMARK   13  A    between atoms: C12_24  and  C13_25
REMARK   14  A    between atoms: C15_29  and  N5_30
REMARK   15  A    between atoms: C16_34  and  O6_35
REMARK   16  A    between atoms: C21_43  and  N7_44
REMARK   17  A    between atoms: C22_47  and  O9_48
REMARK   18  A    between atoms: C23_50  and  N8_51
ROOT
HETATM    1  C3  UNL     1     112.729  42.344  90.822  1.00  0.00     0.106 A
HETATM    2  C4  UNL     1     111.456  42.878  90.987  1.00  0.00     0.027 A
HETATM    3  C5  UNL     1     111.144  43.690  92.040  1.00  0.00     0.036 A
HETATM    4  C6  UNL     1     109.885  44.238  92.254  1.00  0.00     0.066 A
HETATM    5  C16 UNL     1     108.882  43.947  91.345  1.00  0.00     0.083 A
HETATM    6  C17 UNL     1     109.174  43.127  90.270  1.00  0.00     0.067 A
HETATM    7  C18 UNL     1     110.436  42.597  90.088  1.00  0.00     0.048 A
HETATM    8  N6  UNL     1     110.700  41.800  89.065  1.00  0.00    -0.355 N
ATOM      9  H6  UNL     1     109.949  41.595  88.406  1.00  0.00     0.166 HD
HETATM   10  C19 UNL     1     111.911  41.245  88.847  1.00  0.00     0.050 A
HETATM   11  C20 UNL     1     112.101  40.417  87.775  1.00  0.00     0.069 A
HETATM   12  C21 UNL     1     113.334  39.802  87.519  1.00  0.00     0.140 A
HETATM   13  C22 UNL     1     114.347  40.059  88.384  1.00  0.00     0.133 A
HETATM   14  C23 UNL     1     114.135  40.916  89.483  1.00  0.00     0.153 A
HETATM   15  C24 UNL     1     112.952  41.526  89.752  1.00  0.00     0.061 A
ENDROOT
BRANCH   4  16
HETATM   16  C7  UNL     1     109.647  45.086  93.392  1.00  0.00     0.254 C
HETATM   17  O3  UNL     1     109.830  44.530  94.539  1.00  0.00    -0.268 OA
HETATM   18  N1  UNL     1     109.249  46.419  93.435  1.00  0.00    -0.357 N
ATOM     19  H1  UNL     1     109.099  46.907  92.552  1.00  0.00     0.162 HD
BRANCH  18  20
HETATM   20  C8  UNL     1     109.036  47.157  94.681  1.00  0.00     0.127 C
BRANCH  20  21
HETATM   21  C9  UNL     1     107.631  47.137  95.182  1.00  0.00     0.074 C
BRANCH  21  22
HETATM   22  C10 UNL     1     107.678  46.914  96.698  1.00  0.00     0.231 C
BRANCH  22  23
HETATM   23  O4  UNL     1     106.417  46.756  97.217  1.00  0.00    -0.376 OA
ATOM     24  H4  UNL     1     105.815  46.418  96.564  1.00  0.00     0.212 HD
ENDBRANCH  22  23
BRANCH  22  25
HETATM   25  N2  UNL     1     108.485  45.825  97.091  1.00  0.00    -0.309 N
ATOM     26  H2  UNL     1     109.503  45.893  97.071  1.00  0.00     0.178 HD
BRANCH  25  27
HETATM   27  N3  UNL     1     107.866  44.675  97.501  1.00  0.00    -0.111 NA
BRANCH  27  28
HETATM   28  C11 UNL     1     108.860  43.599  97.676  1.00  0.00     0.235 C
BRANCH  28  29
HETATM   29  O5  UNL     1     110.108  44.137  97.504  1.00  0.00    -0.378 OA
ATOM     30  H5  UNL     1     110.296  44.694  98.250  1.00  0.00     0.211 HD
ENDBRANCH  28  29
BRANCH  28  31
HETATM   31  C12 UNL     1     108.666  42.953  99.026  1.00  0.00     0.098 C
BRANCH  31  32
HETATM   32  C13 UNL     1     109.118  41.519  98.961  1.00  0.00     0.005 A
HETATM   33  C14 UNL     1     108.342  40.402  98.815  1.00  0.00     0.105 A
HETATM   34  N4  UNL     1     108.934  39.245  98.795  1.00  0.00    -0.346 N
HETATM   35  C15 UNL     1     110.263  39.205  98.918  1.00  0.00     0.142 A
ATOM     36  H4  UNL     1     108.395  38.386  98.687  1.00  0.00     0.167 HD
HETATM   37  S1  UNL     1     110.686  40.851  99.066  1.00  0.00    -0.058 SA
BRANCH  35  38
HETATM   38  N5  UNL     1     111.025  38.133  98.919  1.00  0.00    -0.380 N
ATOM     39  H52 UNL     1     111.973  38.000  98.567  1.00  0.00     0.158 HD
ATOM     40  H51 UNL     1     110.787  37.212  99.288  1.00  0.00     0.158 HD
ENDBRANCH  35  38
ENDBRANCH  31  32
ENDBRANCH  28  31
ENDBRANCH  27  28
ENDBRANCH  25  27
ENDBRANCH  22  25
ENDBRANCH  21  22
ENDBRANCH  20  21
ENDBRANCH  18  20
ENDBRANCH   4  16
BRANCH   5  41
HETATM   41  O6  UNL     1     107.599  44.442  91.462  1.00  0.00    -0.360 OA
ATOM     42  H6  UNL     1     106.853  43.895  91.676  1.00  0.00     0.217 HD
ENDBRANCH   5  41
BRANCH   1  43
HETATM   43  O2  UNL     1     113.706  42.658  91.729  1.00  0.00    -0.277 OA
BRANCH  43  44
HETATM   44  C2  UNL     1     114.363  43.917  91.664  1.00  0.00     0.260 C
HETATM   45  C1  UNL     1     115.206  44.307  92.821  1.00  0.00     0.126 C
HETATM   46  O1  UNL     1     114.194  44.621  90.645  1.00  0.00    -0.265 OA
ENDBRANCH  43  44
ENDBRANCH   1  43
BRANCH  14  47
HETATM   47  N8  UNL     1     115.257  41.079  90.316  1.00  0.00    -0.112 N
HETATM   48  O10 UNL     1     116.119  41.921  90.012  1.00  0.00    -0.532 OA
HETATM   49  O11 UNL     1     115.451  40.302  91.421  1.00  0.00    -0.532 OA
ENDBRANCH  14  47
BRANCH  13  50
HETATM   50  O9  UNL     1     115.600  39.493  88.214  1.00  0.00    -0.356 OA
ATOM     51  H9  UNL     1     115.999  38.963  88.894  1.00  0.00     0.218 HD
ENDBRANCH  13  50
BRANCH  12  52
HETATM   52  N7  UNL     1     113.449  38.957  86.374  1.00  0.00    -0.113 N
HETATM   53  O7  UNL     1     114.275  39.064  85.496  1.00  0.00    -0.532 OA
HETATM   54  O8  UNL     1     112.502  37.943  86.273  1.00  0.00    -0.532 OA
ENDBRANCH  12  52
TORSDOF 18
ENDMDL