MODEL 1
REMARK VINA RESULT: -8.810909809      0.000      0.000
REMARK  22 active torsions:
REMARK  status: ('A' for Active; 'I' for Inactive)
REMARK    1  A    between atoms: C2_2  and  O2_4
REMARK    2  A    between atoms: O2_4  and  C3_5
REMARK    3  A    between atoms: C3_5  and  O3_7
REMARK    4  A    between atoms: O3_7  and  C5_8
REMARK    5  A    between atoms: C5_8  and  C6_10
REMARK    6  A    between atoms: C7_11  and  C8_12
REMARK    7  A    between atoms: C8_12  and  O5_13
REMARK    8  A    between atoms: C8_12  and  O6_15
REMARK    9  A    between atoms: O6_15  and  C9_16
REMARK   10  A    between atoms: C9_16  and  C10_17
REMARK   11  A    between atoms: C10_17  and  O7_18
REMARK   12  A    between atoms: C10_17  and  C19_42
REMARK   13  A    between atoms: O7_18  and  C11_19
REMARK   14  A    between atoms: C11_19  and  C12_21
REMARK   15  A    between atoms: C13_23  and  C14_24
REMARK   16  A    between atoms: C16_30  and  N3_31
REMARK   17  A    between atoms: C17_36  and  O10_37
REMARK   18  A    between atoms: C18_39  and  O11_40
REMARK   19  A    between atoms: C19_42  and  O13_44
REMARK   20  A    between atoms: O13_44  and  C20_45
REMARK   21  A    between atoms: C24_51  and  O14_52
REMARK   22  A    between atoms: C25_54  and  O15_55
ROOT
HETATM    1  C10 UNL     1     110.905  43.924  91.904  1.00  0.00     0.256 C
ENDROOT
BRANCH   1   2
HETATM    2  C9  UNL     1     110.981  42.840  90.841  1.00  0.00     0.214 C
BRANCH   2   3
HETATM    3  O6  UNL     1     111.412  41.629  91.307  1.00  0.00    -0.353 OA
BRANCH   3   4
HETATM    4  C8  UNL     1     111.796  40.810  90.245  1.00  0.00     0.309 C
BRANCH   4   5
HETATM    5  C7  UNL     1     113.082  41.267  89.678  1.00  0.00     0.086 A
HETATM    6  C6  UNL     1     113.465  41.409  88.379  1.00  0.00     0.104 A
HETATM    7  C25 UNL     1     114.792  41.827  88.373  1.00  0.00     0.135 A
HETATM    8  C24 UNL     1     115.201  41.938  89.712  1.00  0.00     0.175 A
HETATM    9  N5  UNL     1     114.160  41.597  90.469  1.00  0.00    -0.333 N
ATOM     10  H5  UNL     1     114.160  41.583  91.489  1.00  0.00     0.168 HD
BRANCH   6  11
HETATM   11  C5  UNL     1     112.621  41.173  87.205  1.00  0.00     0.300 C
HETATM   12  O4  UNL     1     112.428  42.002  86.280  1.00  0.00    -0.259 OA
BRANCH  11  13
HETATM   13  O3  UNL     1     111.932  39.966  87.005  1.00  0.00    -0.285 OA
BRANCH  13  14
HETATM   14  C3  UNL     1     112.501  38.832  86.392  1.00  0.00     0.275 C
HETATM   15  C4  UNL     1     111.572  37.616  86.556  1.00  0.00     0.071 C
BRANCH  14  16
HETATM   16  O2  UNL     1     113.796  38.537  86.796  1.00  0.00    -0.290 OA
BRANCH  16  17
HETATM   17  C2  UNL     1     114.866  38.903  85.976  1.00  0.00     0.257 C
HETATM   18  C1  UNL     1     116.272  38.759  86.433  1.00  0.00     0.126 C
HETATM   19  O1  UNL     1     114.668  39.364  84.825  1.00  0.00    -0.266 OA
ENDBRANCH  16  17
ENDBRANCH  14  16
ENDBRANCH  13  14
ENDBRANCH  11  13
ENDBRANCH   6  11
BRANCH   7  20
HETATM   20  O15 UNL     1     115.583  42.093  87.275  1.00  0.00    -0.356 OA
ATOM     21  H15 UNL     1     116.280  41.553  86.920  1.00  0.00     0.218 HD
ENDBRANCH   7  20
BRANCH   8  22
HETATM   22  O14 UNL     1     116.462  42.330  90.118  1.00  0.00    -0.344 OA
ATOM     23  H14 UNL     1     116.717  43.138  90.549  1.00  0.00     0.219 HD
ENDBRANCH   8  22
ENDBRANCH   4   5
BRANCH   4  24
HETATM   24  O5  UNL     1     111.846  39.521  90.792  1.00  0.00    -0.366 OA
ATOM     25  H5  UNL     1     111.327  38.883  90.317  1.00  0.00     0.213 HD
ENDBRANCH   4  24
ENDBRANCH   3   4
ENDBRANCH   2   3
ENDBRANCH   1   2
BRANCH   1  26
HETATM   26  O7  UNL     1     110.004  44.949  91.450  1.00  0.00    -0.298 OA
BRANCH  26  27
HETATM   27  C11 UNL     1     108.688  44.954  91.872  1.00  0.00     0.321 C
HETATM   28  O8  UNL     1     107.951  44.006  91.458  1.00  0.00    -0.257 OA
BRANCH  27  29
HETATM   29  C12 UNL     1     108.125  45.963  92.742  1.00  0.00     0.187 A
HETATM   30  O9  UNL     1     106.899  46.485  92.648  1.00  0.00    -0.296 OA
HETATM   31  C13 UNL     1     106.691  47.368  93.573  1.00  0.00     0.143 A
HETATM   32  C17 UNL     1     107.811  47.484  94.362  1.00  0.00     0.138 A
HETATM   33  C18 UNL     1     108.720  46.577  93.815  1.00  0.00     0.142 A
BRANCH  31  34
HETATM   34  C14 UNL     1     105.471  48.163  93.805  1.00  0.00     0.116 A
HETATM   35  N1  UNL     1     105.250  49.062  94.771  1.00  0.00    -0.347 N
HETATM   36  C15 UNL     1     104.000  49.560  94.618  1.00  0.00     0.182 A
ATOM     37  H1  UNL     1     105.912  49.328  95.501  1.00  0.00     0.167 HD
HETATM   38  N2  UNL     1     103.418  48.984  93.557  1.00  0.00    -0.336 N
HETATM   39  C16 UNL     1     104.305  48.125  93.047  1.00  0.00     0.150 A
ATOM     40  H2  UNL     1     102.478  49.166  93.206  1.00  0.00     0.168 HD
BRANCH  39  41
HETATM   41  N3  UNL     1     104.145  47.277  91.914  1.00  0.00    -0.290 N
HETATM   42  N4  UNL     1     104.584  47.629  90.768  1.00  0.00    -0.344 N
ATOM     43  H42 UNL     1     105.052  48.531  90.680  1.00  0.00     0.176 HD
ATOM     44  H41 UNL     1     104.470  47.021  89.957  1.00  0.00     0.176 HD
ATOM     45  H3  UNL     1     103.675  46.377  92.019  1.00  0.00     0.188 HD
ENDBRANCH  39  41
ENDBRANCH  31  34
BRANCH  32  46
HETATM   46  O10 UNL     1     108.070  48.284  95.460  1.00  0.00    -0.356 OA
ATOM     47  H10 UNL     1     107.550  48.472  96.232  1.00  0.00     0.218 HD
ENDBRANCH  32  46
BRANCH  33  48
HETATM   48  O11 UNL     1     109.983  46.353  94.284  1.00  0.00    -0.355 OA
ATOM     49  H11 UNL     1     110.280  46.454  95.181  1.00  0.00     0.218 HD
ENDBRANCH  33  48
ENDBRANCH  27  29
ENDBRANCH  26  27
ENDBRANCH   1  26
BRANCH   1  50
HETATM   50  C19 UNL     1     112.202  44.576  92.171  1.00  0.00     0.295 C
HETATM   51  O12 UNL     1     112.264  45.818  92.375  1.00  0.00    -0.262 OA
BRANCH  50  52
HETATM   52  O13 UNL     1     113.382  43.874  92.209  1.00  0.00    -0.289 OA
BRANCH  52  53
HETATM   53  C20 UNL     1     114.574  44.539  92.416  1.00  0.00     0.147 C
HETATM   54  C21 UNL     1     115.580  43.961  93.041  1.00  0.00    -0.065 C
HETATM   55  C22 UNL     1     116.833  44.716  93.237  1.00  0.00     0.045 C
HETATM   56  C23 UNL     1     115.464  42.577  93.541  1.00  0.00     0.045 C
ENDBRANCH  52  53
ENDBRANCH  50  52
ENDBRANCH   1  50
TORSDOF 22
ENDMDL