MODEL 4
REMARK VINA RESULT: -8.401274791      1.867      3.553
REMARK  14 active torsions:
REMARK  status: ('A' for Active; 'I' for Inactive)
REMARK    1  A    between atoms: C2_2  and  N1_3
REMARK    2  A    between atoms: C2_2  and  S4_53
REMARK    3  A    between atoms: C4_8  and  N3_9
REMARK    4  A    between atoms: N4_11  and  C5_13
REMARK    5  A    between atoms: C5_13  and  C6_14
REMARK    6  A    between atoms: C5_13  and  C10_24
REMARK    7  A    between atoms: C6_14  and  C7_15
REMARK       I    between atoms: C10_24  and  N7_26
REMARK    8  A    between atoms: N7_26  and  C11_28
REMARK    9  A    between atoms: C11_28  and  C12_29
REMARK   10  A    between atoms: C11_28  and  C15_41
REMARK   11  A    between atoms: C13_34  and  N10_35
REMARK   12  A    between atoms: N10_35  and  O2_37
REMARK   13  A    between atoms: C17_44  and  N12_45
REMARK   14  A    between atoms: C18_50  and  O3_51
ROOT
HETATM    1  C5  UNL     1     111.928  43.311  91.878  1.00  0.00     0.197 C
ENDROOT
BRANCH   1   2
HETATM    2  N4  UNL     1     110.920  42.880  90.969  1.00  0.00    -0.321 N
HETATM    3  N3  UNL     1     111.038  41.954  90.185  1.00  0.00    -0.285 N
ATOM      4  H3  UNL     1     110.204  41.797  89.619  1.00  0.00     0.188 HD
ATOM      5  H4  UNL     1     110.034  43.383  90.975  1.00  0.00     0.181 HD
BRANCH   3   6
HETATM    6  C4  UNL     1     112.072  41.065  89.901  1.00  0.00     0.174 A
HETATM    7  N2  UNL     1     112.948  40.442  90.720  1.00  0.00    -0.317 N
HETATM    8  C3  UNL     1     113.767  39.684  89.979  1.00  0.00     0.162 A
ATOM      9  H2  UNL     1     112.981  40.534  91.736  1.00  0.00     0.169 HD
HETATM   10  N1  UNL     1     113.454  39.792  88.697  1.00  0.00    -0.283 N
HETATM   11  S1  UNL     1     115.119  38.646  90.577  1.00  0.00    -0.013 SA
HETATM   12  C18 UNL     1     112.412  40.637  88.608  1.00  0.00     0.192 A
BRANCH  10  13
HETATM   13  C2  UNL     1     114.048  39.175  87.524  1.00  0.00     0.234 C
HETATM   14  C1  UNL     1     113.048  38.388  86.712  1.00  0.00     0.052 C
BRANCH  13  15
HETATM   15  S4  UNL     1     114.835  40.349  86.453  1.00  0.00     0.125 S
HETATM   16  O4  UNL     1     113.859  40.830  85.417  1.00  0.00    -0.594 OA
HETATM   17  O5  UNL     1     115.400  41.519  87.235  1.00  0.00    -0.594 OA
HETATM   18  O6  UNL     1     116.114  39.592  85.698  1.00  0.00    -0.594 OA
ENDBRANCH  13  15
ENDBRANCH  10  13
BRANCH  12  19
HETATM   19  O3  UNL     1     111.736  41.059  87.467  1.00  0.00    -0.343 OA
ATOM     20  H3  UNL     1     111.894  41.834  86.940  1.00  0.00     0.219 HD
ENDBRANCH  12  19
ENDBRANCH   3   6
ENDBRANCH   1   2
BRANCH   1  21
HETATM   21  C6  UNL     1     113.196  43.746  91.207  1.00  0.00     0.093 C
BRANCH  21  22
HETATM   22  C7  UNL     1     114.385  43.415  92.100  1.00  0.00     0.020 A
HETATM   23  C8  UNL     1     115.298  44.343  92.519  1.00  0.00     0.078 A
HETATM   24  S2  UNL     1     116.344  43.416  93.498  1.00  0.00    -0.064 SA
HETATM   25  C9  UNL     1     115.573  41.911  93.323  1.00  0.00     0.142 A
HETATM   26  N5  UNL     1     115.918  40.756  93.857  1.00  0.00    -0.380 N
HETATM   27  N6  UNL     1     114.552  42.173  92.528  1.00  0.00    -0.340 N
ATOM     28  H52 UNL     1     116.707  40.554  94.471  1.00  0.00     0.158 HD
ATOM     29  H51 UNL     1     115.456  39.853  93.753  1.00  0.00     0.158 HD
ATOM     30  H6  UNL     1     113.905  41.434  92.250  1.00  0.00     0.167 HD
ENDBRANCH  21  22
ENDBRANCH   1  21
BRANCH   1  31
HETATM   31  C10 UNL     1     111.371  44.502  92.626  1.00  0.00     0.243 C
HETATM   32  O1  UNL     1     112.099  45.471  92.961  1.00  0.00    -0.271 OA
HETATM   33  N7  UNL     1     109.997  44.541  92.965  1.00  0.00    -0.342 N
ATOM     34  H7  UNL     1     109.392  43.764  92.697  1.00  0.00     0.163 HD
BRANCH  33  35
HETATM   35  C11 UNL     1     109.438  45.663  93.683  1.00  0.00     0.204 C
BRANCH  35  36
HETATM   36  C12 UNL     1     108.123  46.067  93.105  1.00  0.00     0.127 A
HETATM   37  N8  UNL     1     107.559  45.558  91.973  1.00  0.00    -0.284 N
HETATM   38  N9  UNL     1     106.392  46.141  91.750  1.00  0.00    -0.273 N
ATOM     39  H8  UNL     1     107.975  44.834  91.385  1.00  0.00     0.188 HD
HETATM   40  C13 UNL     1     106.175  47.026  92.714  1.00  0.00     0.199 A
ATOM     41  H9  UNL     1     105.766  45.943  90.969  1.00  0.00     0.189 HD
HETATM   42  N11 UNL     1     107.236  46.977  93.539  1.00  0.00    -0.316 N
ATOM     43  H11 UNL     1     107.350  47.549  94.376  1.00  0.00     0.170 HD
BRANCH  40  44
HETATM   44  N10 UNL     1     105.039  47.846  92.826  1.00  0.00    -0.136 NA
HETATM   45  C14 UNL     1     104.883  48.321  94.189  1.00  0.00     0.153 C
BRANCH  44  46
HETATM   46  O2  UNL     1     103.888  47.194  92.519  1.00  0.00    -0.306 OA
ATOM     47  H2  UNL     1     103.148  47.490  93.036  1.00  0.00     0.237 HD
ENDBRANCH  44  46
ENDBRANCH  40  44
ENDBRANCH  35  36
BRANCH  35  48
HETATM   48  C15 UNL     1     109.165  45.255  95.127  1.00  0.00     0.048 A
HETATM   49  C16 UNL     1     109.812  45.880  96.154  1.00  0.00     0.081 A
HETATM   50  S3  UNL     1     109.177  45.079  97.518  1.00  0.00    -0.064 SA
HETATM   51  C17 UNL     1     108.132  44.002  96.709  1.00  0.00     0.142 A
HETATM   52  N13 UNL     1     108.316  44.305  95.426  1.00  0.00    -0.338 N
ATOM     53  H13 UNL     1     107.807  43.808  94.694  1.00  0.00     0.168 HD
BRANCH  51  54
HETATM   54  N12 UNL     1     107.327  43.083  97.201  1.00  0.00    -0.380 N
ATOM     55 2H12 UNL     1     106.731  43.164  98.025  1.00  0.00     0.158 HD
ATOM     56 1H12 UNL     1     107.142  42.136  96.871  1.00  0.00     0.158 HD
ENDBRANCH  51  54
ENDBRANCH  35  48
ENDBRANCH  33  35
ENDBRANCH   1  31
TORSDOF 14
ENDMDL