MODEL 5
REMARK VINA RESULT: -8.270348791      4.889      8.866
REMARK  20 active torsions:
REMARK  status: ('A' for Active; 'I' for Inactive)
REMARK    1  A    between atoms: C2_2  and  C3_3
REMARK    2  A    between atoms: C3_3  and  C4_4
REMARK    3  A    between atoms: C4_4  and  C5_5
REMARK    4  A    between atoms: C5_5  and  C6_6
REMARK    5  A    between atoms: C6_6  and  N1_7
REMARK       I    between atoms: N1_7  and  C7_9
REMARK       I    between atoms: C7_9  and  N2_11
REMARK    6  A    between atoms: N2_11  and  C8_13
REMARK    7  A    between atoms: C9_15  and  C10_16
REMARK    8  A    between atoms: C10_16  and  O2_17
REMARK    9  A    between atoms: C10_16  and  O3_19
REMARK   10  A    between atoms: O3_19  and  C11_20
REMARK   11  A    between atoms: C11_20  and  O4_21
REMARK   12  A    between atoms: O4_21  and  C12_22
REMARK   13  A    between atoms: C14_25  and  N3_26
REMARK   14  A    between atoms: N3_26  and  C15_28
REMARK   15  A    between atoms: C15_28  and  O6_29
REMARK   16  A    between atoms: C15_28  and  C16_31
REMARK   17  A    between atoms: N5_38  and  C19_39
REMARK   18  A    between atoms: C23_44  and  O9_45
REMARK   19  A    between atoms: C24_47  and  O10_48
REMARK   20  A    between atoms: C25_50  and  O11_51
ROOT
HETATM    1  C8  UNL     1     109.696  46.221  92.018  1.00  0.00     0.115 A
HETATM    2  S1  UNL     1     109.579  44.619  91.395  1.00  0.00    -0.062 SA
HETATM    3  C9  UNL     1     111.028  43.703  91.578  1.00  0.00     0.094 A
HETATM    4  C14 UNL     1     112.036  44.399  92.199  1.00  0.00     0.089 A
HETATM    5  C24 UNL     1     111.995  45.685  92.646  1.00  0.00     0.130 A
HETATM    6  C25 UNL     1     110.912  46.529  92.562  1.00  0.00     0.135 A
ENDROOT
BRANCH   4   7
HETATM    7  N3  UNL     1     113.186  43.601  92.610  1.00  0.00    -0.356 N
ATOM      8  H3  UNL     1     113.133  42.766  93.194  1.00  0.00     0.162 HD
BRANCH   7   9
HETATM    9  C15 UNL     1     114.423  44.158  92.070  1.00  0.00     0.262 C
BRANCH   9  10
HETATM   10  O6  UNL     1     115.337  44.126  93.164  1.00  0.00    -0.372 OA
ATOM     11  H6  UNL     1     114.979  44.743  93.792  1.00  0.00     0.212 HD
ENDBRANCH   9  10
BRANCH   9  12
HETATM   12  C16 UNL     1     115.088  43.306  91.048  1.00  0.00     0.067 A
HETATM   13  S2  UNL     1     115.571  43.687  89.464  1.00  0.00    -0.068 SA
HETATM   14  C17 UNL     1     116.133  42.150  88.963  1.00  0.00     0.097 A
HETATM   15  N4  UNL     1     116.660  41.633  87.795  1.00  0.00    -0.301 N
HETATM   16  C22 UNL     1     115.928  41.382  90.054  1.00  0.00     0.100 A
HETATM   17  C18 UNL     1     116.984  40.313  87.741  1.00  0.00     0.330 A
ATOM     18  H4  UNL     1     116.804  42.234  86.984  1.00  0.00     0.171 HD
HETATM   19  O7  UNL     1     117.470  39.873  86.635  1.00  0.00    -0.246 OA
HETATM   20  N5  UNL     1     116.798  39.543  88.787  1.00  0.00    -0.266 N
HETATM   21  C21 UNL     1     116.286  40.027  89.925  1.00  0.00     0.267 A
HETATM   22  O8  UNL     1     116.147  39.200  90.868  1.00  0.00    -0.267 OA
HETATM   23  C23 UNL     1     115.384  41.977  91.145  1.00  0.00     0.101 A
BRANCH  20  24
HETATM   24  C19 UNL     1     117.137  38.102  88.724  1.00  0.00     0.132 C
HETATM   25  C20 UNL     1     115.923  37.316  88.312  1.00  0.00     0.027 C
ENDBRANCH  20  24
BRANCH  23  26
HETATM   26  O9  UNL     1     115.112  41.276  92.365  1.00  0.00    -0.358 OA
ATOM     27  H9  UNL     1     115.227  40.333  92.401  1.00  0.00     0.217 HD
ENDBRANCH  23  26
ENDBRANCH   9  12
ENDBRANCH   7   9
ENDBRANCH   4   7
BRANCH   3  28
HETATM   28  C10 UNL     1     111.132  42.377  90.942  1.00  0.00     0.200 C
BRANCH  28  29
HETATM   29  O2  UNL     1     111.992  41.554  91.600  1.00  0.00    -0.340 OA
ATOM     30  H2  UNL     1     111.683  40.657  91.629  1.00  0.00     0.220 HD
ENDBRANCH  28  29
BRANCH  28  31
HETATM   31  O3  UNL     1     111.152  42.305  89.582  1.00  0.00    -0.303 OA
BRANCH  31  32
HETATM   32  C11 UNL     1     112.290  41.539  89.250  1.00  0.00     0.357 C
BRANCH  32  33
HETATM   33  O4  UNL     1     112.675  41.796  87.898  1.00  0.00    -0.295 OA
BRANCH  33  34
HETATM   34  C12 UNL     1     113.182  40.754  87.120  1.00  0.00     0.256 C
HETATM   35  C13 UNL     1     112.994  39.325  87.401  1.00  0.00     0.126 C
HETATM   36  O5  UNL     1     113.855  41.131  86.094  1.00  0.00    -0.266 OA
ENDBRANCH  33  34
ENDBRANCH  32  33
ENDBRANCH  31  32
ENDBRANCH  28  31
ENDBRANCH   3  28
BRANCH   5  37
HETATM   37  O10 UNL     1     113.137  46.263  93.254  1.00  0.00    -0.356 OA
ATOM     38  H10 UNL     1     113.397  47.149  93.034  1.00  0.00     0.218 HD
ENDBRANCH   5  37
BRANCH   6  39
HETATM   39  O11 UNL     1     111.008  47.841  93.064  1.00  0.00    -0.356 OA
ATOM     40  H11 UNL     1     111.192  47.892  93.995  1.00  0.00     0.218 HD
ENDBRANCH   6  39
BRANCH   1  41
HETATM   41  N2  UNL     1     108.724  47.049  91.980  1.00  0.00    -0.300 N
HETATM   42  C7  UNL     1     107.632  47.012  92.889  1.00  0.00     0.321 C
HETATM   43  N1  UNL     1     107.329  48.144  93.674  1.00  0.00    -0.343 N
HETATM   44  O1  UNL     1     106.962  45.978  92.989  1.00  0.00    -0.247 OA
ATOM     45  H1  UNL     1     107.866  49.006  93.574  1.00  0.00     0.164 HD
ATOM     46  H2  UNL     1     108.732  47.773  91.261  1.00  0.00     0.171 HD
BRANCH  43  47
HETATM   47  C6  UNL     1     106.229  48.057  94.633  1.00  0.00     0.124 C
BRANCH  47  48
HETATM   48  C5  UNL     1     105.131  49.035  94.422  1.00  0.00     0.020 C
BRANCH  48  49
HETATM   49  C4  UNL     1     103.862  48.366  93.968  1.00  0.00     0.002 C
BRANCH  49  50
HETATM   50  C3  UNL     1     103.351  48.839  92.650  1.00  0.00    -0.000 C
BRANCH  50  51
HETATM   51  C2  UNL     1     102.279  47.912  92.092  1.00  0.00    -0.005 C
HETATM   52  C1  UNL     1     101.340  47.513  93.189  1.00  0.00     0.005 C
ENDBRANCH  50  51
ENDBRANCH  49  50
ENDBRANCH  48  49
ENDBRANCH  47  48
ENDBRANCH  43  47
ENDBRANCH   1  41
TORSDOF 20
ENDMDL