MODEL 2
REMARK VINA RESULT: -9.359823230      3.348      9.752
REMARK  16 active torsions:
REMARK  status: ('A' for Active; 'I' for Inactive)
REMARK    1  A    between atoms: O1_2  and  C2_3
REMARK    2  A    between atoms: C3_4  and  O2_5
REMARK    3  A    between atoms: C5_8  and  C6_9
REMARK    4  A    between atoms: C6_9  and  N7_27
REMARK    5  A    between atoms: N1_10  and  N2_12
REMARK    6  A    between atoms: C7_14  and  C9_16
REMARK    7  A    between atoms: N7_27  and  C12_29
REMARK    8  A    between atoms: C12_29  and  C13_30
REMARK    9  A    between atoms: C13_30  and  C14_31
REMARK   10  A    between atoms: C14_31  and  N8_32
REMARK   11  A    between atoms: N8_32  and  C15_34
REMARK   12  A    between atoms: C15_34  and  C16_35
REMARK   13  A    between atoms: C16_35  and  N9_36
REMARK   14  A    between atoms: N9_36  and  C17_38
REMARK   15  A    between atoms: C22_46  and  O4_47
REMARK   16  A    between atoms: C27_56  and  N11_57
ROOT
HETATM    1  C6  UNL     1     109.698  45.933  93.713  1.00  0.00     0.126 C
HETATM    2  N1  UNL     1     108.725  45.785  94.465  1.00  0.00    -0.285 N
ATOM      3  H1  UNL     1     108.306  44.866  94.321  1.00  0.00     0.188 HD
ENDROOT
BRANCH   1   4
HETATM    4  C5  UNL     1     110.030  44.786  92.804  1.00  0.00     0.014 A
HETATM    5  C4  UNL     1     111.195  44.074  92.932  1.00  0.00     0.054 A
HETATM    6  C3  UNL     1     111.472  43.016  92.080  1.00  0.00     0.102 A
HETATM    7  C2  UNL     1     110.568  42.671  91.090  1.00  0.00     0.134 A
HETATM    8  C27 UNL     1     109.381  43.363  90.928  1.00  0.00     0.139 A
HETATM    9  C26 UNL     1     109.153  44.407  91.801  1.00  0.00     0.054 A
BRANCH   6  10
HETATM   10  O2  UNL     1     112.636  42.271  92.175  1.00  0.00    -0.358 OA
ATOM     11  H2  UNL     1     112.620  41.495  92.724  1.00  0.00     0.217 HD
ENDBRANCH   6  10
BRANCH   7  12
HETATM   12  O1  UNL     1     110.843  41.604  90.229  1.00  0.00    -0.351 OA
HETATM   13  C1  UNL     1     110.937  40.284  90.686  1.00  0.00     0.210 C
ENDBRANCH   7  12
BRANCH   8  14
HETATM   14  N11 UNL     1     108.472  42.987  89.915  1.00  0.00    -0.113 N
HETATM   15  O8  UNL     1     108.675  43.225  88.714  1.00  0.00    -0.532 OA
HETATM   16  O9  UNL     1     107.323  42.336  90.268  1.00  0.00    -0.532 OA
ENDBRANCH   8  14
ENDBRANCH   1   4
BRANCH   1  17
HETATM   17  N7  UNL     1     110.515  47.082  93.639  1.00  0.00    -0.374 N
ATOM     18  H7  UNL     1     110.606  47.641  94.487  1.00  0.00     0.161 HD
BRANCH  17  19
HETATM   19  C12 UNL     1     111.230  47.537  92.477  1.00  0.00     0.123 C
BRANCH  19  20
HETATM   20  C13 UNL     1     112.673  47.332  92.398  1.00  0.00     0.039 C
BRANCH  20  21
HETATM   21  C14 UNL     1     113.339  46.201  93.074  1.00  0.00     0.120 C
BRANCH  21  22
HETATM   22  N8  UNL     1     114.061  45.254  92.304  1.00  0.00    -0.401 N
ATOM     23  H8  UNL     1     113.771  45.049  91.348  1.00  0.00     0.158 HD
BRANCH  22  24
HETATM   24  C15 UNL     1     115.170  44.598  92.854  1.00  0.00     0.075 C
BRANCH  24  25
HETATM   25  C16 UNL     1     115.836  43.512  92.082  1.00  0.00     0.165 C
BRANCH  25  26
HETATM   26  N9  UNL     1     115.780  43.609  90.671  1.00  0.00    -0.369 N
ATOM     27  H9  UNL     1     115.172  44.339  90.300  1.00  0.00     0.161 HD
BRANCH  26  28
HETATM   28  C17 UNL     1     116.451  42.833  89.720  1.00  0.00     0.138 A
HETATM   29  N10 UNL     1     117.751  42.676  89.457  1.00  0.00    -0.244 N
HETATM   30  O3  UNL     1     117.969  41.859  88.481  1.00  0.00    -0.235 OA
ATOM     31  H10 UNL     1     118.492  43.149  89.973  1.00  0.00     0.196 HD
HETATM   32  C18 UNL     1     116.842  41.405  88.014  1.00  0.00     0.116 A
HETATM   33  C19 UNL     1     116.533  40.515  86.985  1.00  0.00     0.059 A
HETATM   34  C23 UNL     1     115.832  41.992  88.765  1.00  0.00     0.079 A
HETATM   35  C20 UNL     1     115.236  40.182  86.670  1.00  0.00     0.061 A
HETATM   36  C21 UNL     1     114.242  40.768  87.419  1.00  0.00     0.090 A
HETATM   37  C25 UNL     1     114.674  39.294  85.659  1.00  0.00     0.302 A
HETATM   38  C22 UNL     1     114.532  41.668  88.459  1.00  0.00     0.100 A
HETATM   39  C24 UNL     1     112.999  40.249  86.884  1.00  0.00     0.304 A
HETATM   40  O5  UNL     1     111.844  40.547  87.301  1.00  0.00    -0.259 OA
HETATM   41  O6  UNL     1     113.282  39.364  85.825  1.00  0.00    -0.237 OA
HETATM   42  O7  UNL     1     115.290  38.598  84.804  1.00  0.00    -0.259 OA
BRANCH  38  43
HETATM   43  O4  UNL     1     113.508  42.236  89.185  1.00  0.00    -0.358 OA
ATOM     44  H4  UNL     1     112.955  42.900  88.790  1.00  0.00     0.217 HD
ENDBRANCH  38  43
ENDBRANCH  26  28
ENDBRANCH  25  26
ENDBRANCH  24  25
ENDBRANCH  22  24
ENDBRANCH  21  22
ENDBRANCH  20  21
ENDBRANCH  19  20
ENDBRANCH  17  19
ENDBRANCH   1  17
BRANCH   2  45
HETATM   45  N2  UNL     1     108.058  46.451  95.401  1.00  0.00    -0.301 N
HETATM   46  C7  UNL     1     107.693  46.168  96.586  1.00  0.00     0.052 C
HETATM   47  C8  UNL     1     106.940  47.223  97.325  1.00  0.00     0.072 C
ATOM     48  H2  UNL     1     107.780  47.388  95.107  1.00  0.00     0.186 HD
BRANCH  46  49
HETATM   49  C9  UNL     1     107.959  44.886  97.272  1.00  0.00     0.114 A
HETATM   50  N3  UNL     1     107.078  43.979  97.687  1.00  0.00    -0.187 N
HETATM   51  C10 UNL     1     107.690  42.939  98.266  1.00  0.00     0.677 A
ATOM     52  H3  UNL     1     106.067  44.065  97.578  1.00  0.00     0.184 HD
HETATM   53  N4  UNL     1     107.118  41.872  98.783  1.00  0.00    -0.234 N
HETATM   54  N5  UNL     1     109.001  43.201  98.213  1.00  0.00    -0.177 N
ATOM     55  H42 UNL     1     106.119  41.673  98.823  1.00  0.00     0.174 HD
ATOM     56  H41 UNL     1     107.584  41.080  99.224  1.00  0.00     0.174 HD
HETATM   57  C11 UNL     1     109.214  44.390  97.609  1.00  0.00     0.161 A
ATOM     58  H5  UNL     1     109.734  42.591  98.575  1.00  0.00     0.185 HD
HETATM   59  N6  UNL     1     110.466  45.023  97.362  1.00  0.00    -0.080 NA
ENDBRANCH  46  49
ENDBRANCH   2  45
TORSDOF 16
ENDMDL