MODEL 4
REMARK VINA RESULT: -7.440685165      1.973      4.200
REMARK  23 active torsions:
REMARK  status: ('A' for Active; 'I' for Inactive)
REMARK    1  A    between atoms: O1_1  and  C1_3
REMARK    2  A    between atoms: C1_3  and  C2_4
REMARK    3  A    between atoms: C1_3  and  O3_8
REMARK    4  A    between atoms: C2_4  and  C3_5
REMARK    5  A    between atoms: C3_5  and  O2_6
REMARK    6  A    between atoms: O3_8  and  C4_9
REMARK    7  A    between atoms: C4_9  and  C5_10
REMARK    8  A    between atoms: C6_11  and  N1_12
REMARK    9  A    between atoms: N1_12  and  C7_14
REMARK   10  A    between atoms: C7_14  and  O4_15
REMARK   11  A    between atoms: N2_17  and  O5_19
REMARK   12  A    between atoms: C8_22  and  C9_23
REMARK   13  A    between atoms: C9_23  and  C10_25
REMARK   14  A    between atoms: C11_27  and  O8_28
REMARK   15  A    between atoms: O8_28  and  C12_29
REMARK   16  A    between atoms: C18_35  and  O9_36
REMARK   17  A    between atoms: C19_38  and  O10_39
REMARK   18  A    between atoms: O10_39  and  C20_40
REMARK   19  A    between atoms: C21_42  and  C22_43
REMARK   20  A    between atoms: C22_43  and  O12_44
REMARK   21  A    between atoms: C23_46  and  O13_47
REMARK   22  A    between atoms: C24_49  and  O14_50
REMARK   23  A    between atoms: C25_52  and  O15_53
ROOT
HETATM    1  C10 UNL     1     114.349  44.026  92.271  1.00  0.00     0.166 A
HETATM    2  O7  UNL     1     113.793  45.191  92.626  1.00  0.00    -0.279 OA
HETATM    3  C11 UNL     1     112.534  45.175  92.364  1.00  0.00     0.224 A
HETATM    4  C18 UNL     1     112.201  43.956  91.803  1.00  0.00     0.161 A
HETATM    5  C19 UNL     1     113.400  43.221  91.754  1.00  0.00     0.148 A
ENDROOT
BRANCH   1   6
HETATM    6  C9  UNL     1     115.771  43.871  92.491  1.00  0.00     0.228 C
HETATM    7  O6  UNL     1     116.550  44.833  92.730  1.00  0.00    -0.284 OA
BRANCH   6   8
HETATM    8  C8  UNL     1     116.405  42.515  92.417  1.00  0.00     0.093 A
HETATM    9  S1  UNL     1     116.392  41.309  93.610  1.00  0.00    -0.065 SA
HETATM   10  C6  UNL     1     117.350  40.098  92.802  1.00  0.00     0.089 A
HETATM   11  C5  UNL     1     117.635  40.714  91.625  1.00  0.00     0.034 A
HETATM   12  C25 UNL     1     117.151  41.950  91.429  1.00  0.00     0.098 A
BRANCH  10  13
HETATM   13  N1  UNL     1     117.671  38.863  93.430  1.00  0.00    -0.314 N
ATOM     14  H1  UNL     1     118.389  38.981  94.144  1.00  0.00     0.170 HD
BRANCH  13  15
HETATM   15  C7  UNL     1     117.268  37.549  93.327  1.00  0.00     0.242 C
HETATM   16  N2  UNL     1     117.527  36.448  93.845  1.00  0.00    -0.233 N
ATOM     17  H2  UNL     1     118.246  36.473  94.568  1.00  0.00     0.198 HD
BRANCH  15  18
HETATM   18  O4  UNL     1     116.213  37.382  92.292  1.00  0.00    -0.331 OA
ATOM     19  H4  UNL     1     116.349  37.970  91.558  1.00  0.00     0.221 HD
ENDBRANCH  15  18
BRANCH  16  20
HETATM   20  O5  UNL     1     117.003  35.218  93.600  1.00  0.00    -0.287 OA
ATOM     21  H5  UNL     1     117.429  34.370  93.544  1.00  0.00     0.244 HD
ENDBRANCH  16  20
ENDBRANCH  13  15
ENDBRANCH  10  13
BRANCH  11  22
HETATM   22  C4  UNL     1     118.568  40.001  90.635  1.00  0.00     0.215 C
BRANCH  22  23
HETATM   23  O3  UNL     1     117.937  39.994  89.418  1.00  0.00    -0.357 OA
BRANCH  23  24
HETATM   24  C1  UNL     1     117.162  39.156  88.763  1.00  0.00     0.259 C
BRANCH  24  25
HETATM   25  O1  UNL     1     116.729  38.130  89.482  1.00  0.00    -0.371 OA
ATOM     26  H1  UNL     1     117.192  37.310  89.356  1.00  0.00     0.212 HD
ENDBRANCH  24  25
BRANCH  24  27
HETATM   27  C2  UNL     1     116.700  39.206  87.377  1.00  0.00     0.086 C
BRANCH  27  28
HETATM   28  C3  UNL     1     116.139  40.596  87.078  1.00  0.00     0.169 C
BRANCH  28  29
HETATM   29  O2  UNL     1     117.047  41.586  87.414  1.00  0.00    -0.401 OA
ATOM     30  H2  UNL     1     116.666  42.212  88.018  1.00  0.00     0.209 HD
ENDBRANCH  28  29
ENDBRANCH  27  28
ENDBRANCH  24  27
ENDBRANCH  23  24
ENDBRANCH  22  23
ENDBRANCH  11  22
BRANCH  12  31
HETATM   31  O15 UNL     1     117.353  42.745  90.240  1.00  0.00    -0.358 OA
ATOM     32  H15 UNL     1     116.743  43.389  89.900  1.00  0.00     0.217 HD
ENDBRANCH  12  31
ENDBRANCH   6   8
ENDBRANCH   1   6
BRANCH   5  33
HETATM   33  O10 UNL     1     113.462  41.973  91.265  1.00  0.00    -0.312 OA
BRANCH  33  34
HETATM   34  C20 UNL     1     114.061  41.406  90.161  1.00  0.00     0.298 C
HETATM   35  O11 UNL     1     113.495  41.917  88.992  1.00  0.00    -0.348 OA
HETATM   36  C21 UNL     1     112.223  41.343  88.902  1.00  0.00     0.179 C
HETATM   37  C23 UNL     1     112.219  40.079  89.731  1.00  0.00     0.182 C
HETATM   38  C24 UNL     1     113.725  39.914  89.919  1.00  0.00     0.205 C
BRANCH  36  39
HETATM   39  C22 UNL     1     112.023  40.894  87.474  1.00  0.00     0.198 C
BRANCH  39  40
HETATM   40  O12 UNL     1     112.466  41.834  86.572  1.00  0.00    -0.398 OA
ATOM     41  H12 UNL     1     113.241  41.542  86.107  1.00  0.00     0.209 HD
ENDBRANCH  39  40
ENDBRANCH  36  39
BRANCH  37  42
HETATM   42  O13 UNL     1     111.740  38.982  89.011  1.00  0.00    -0.390 OA
ATOM     43  H13 UNL     1     110.946  39.188  88.533  1.00  0.00     0.210 HD
ENDBRANCH  37  42
BRANCH  38  44
HETATM   44  O14 UNL     1     114.173  39.056  90.838  1.00  0.00    -0.388 OA
ATOM     45  H14 UNL     1     113.540  38.427  91.164  1.00  0.00     0.210 HD
ENDBRANCH  38  44
ENDBRANCH  33  34
ENDBRANCH   5  33
BRANCH   3  46
HETATM   46  O8  UNL     1     111.579  46.172  92.576  1.00  0.00    -0.323 OA
BRANCH  46  47
HETATM   47  C12 UNL     1     110.413  46.106  93.310  1.00  0.00     0.131 C
HETATM   48  C13 UNL     1     110.660  46.210  94.805  1.00  0.00     0.032 C
HETATM   49  C14 UNL     1     109.370  45.972  95.526  1.00  0.00     0.002 C
HETATM   50  C15 UNL     1     108.375  47.049  95.137  1.00  0.00     0.000 C
HETATM   51  C16 UNL     1     108.989  48.023  94.154  1.00  0.00     0.002 C
HETATM   52  C17 UNL     1     109.585  47.345  92.952  1.00  0.00     0.032 C
ENDBRANCH  46  47
ENDBRANCH   3  46
BRANCH   4  53
HETATM   53  O9  UNL     1     110.941  43.573  91.380  1.00  0.00    -0.354 OA
ATOM     54  H9  UNL     1     110.740  42.816  90.842  1.00  0.00     0.218 HD
ENDBRANCH   4  53
TORSDOF 23
ENDMDL