MODEL 5
REMARK VINA RESULT: -6.385167089      2.216      3.484
REMARK  4 active torsions:
REMARK  status: ('A' for Active; 'I' for Inactive)
REMARK    1  A    between atoms: C2_2  and  C3_4
REMARK    2  A    between atoms: C3_4  and  N2_8
REMARK    3  A    between atoms: N2_8  and  N3_10
REMARK       I    between atoms: N3_10  and  C4_12
REMARK    4  A    between atoms: C4_12  and  C5_14
ROOT
HETATM    1  N3  UNL     1      33.932  -2.774 -77.725  1.00  0.00    -0.268 N
ATOM      2  H3  UNL     1      32.973  -3.011 -77.470  1.00  0.00     0.190 HD
HETATM    3  C4  UNL     1      34.299  -1.445 -77.985  1.00  0.00     0.244 C
HETATM    4  O1  UNL     1      35.536  -1.237 -78.305  1.00  0.00    -0.271 OA
ENDROOT
BRANCH   3   5
HETATM    5  C5  UNL     1      33.413  -0.258 -77.931  1.00  0.00     0.043 C
HETATM    6  C6  UNL     1      31.988  -0.765 -78.040  1.00  0.00     0.020 C
HETATM    7  C7  UNL     1      31.002   0.019 -77.254  1.00  0.00     0.006 C
HETATM    8  C8  UNL     1      31.017   1.492 -77.592  1.00  0.00    -0.014 C
HETATM    9  C9  UNL     1      31.773   2.178 -76.500  1.00  0.00     0.009 C
HETATM   10  C13 UNL     1      31.523   1.759 -78.978  1.00  0.00     0.009 C
HETATM   11  C10 UNL     1      33.248   1.973 -76.740  1.00  0.00    -0.013 C
HETATM   12  C11 UNL     1      33.579   2.712 -78.002  1.00  0.00     0.009 C
HETATM   13  C15 UNL     1      33.686   0.548 -76.708  1.00  0.00     0.024 C
HETATM   14  C12 UNL     1      32.988   1.886 -79.138  1.00  0.00    -0.013 C
HETATM   15  C14 UNL     1      33.757   0.591 -79.156  1.00  0.00     0.024 C
ENDBRANCH   3   5
BRANCH   1  16
HETATM   16  N2  UNL     1      34.909  -3.759 -77.823  1.00  0.00    -0.285 N
ATOM     17  H2  UNL     1      35.458  -3.948 -76.984  1.00  0.00     0.188 HD
BRANCH  16  18
HETATM   18  C3  UNL     1      35.214  -4.525 -78.971  1.00  0.00     0.107 C
HETATM   19  N1  UNL     1      36.112  -4.112 -79.787  1.00  0.00    -0.387 N
ATOM     20  H12 UNL     1      36.333  -4.665 -80.616  1.00  0.00     0.157 HD
ATOM     21  H11 UNL     1      36.597  -3.244 -79.559  1.00  0.00     0.157 HD
BRANCH  18  22
HETATM   22  C2  UNL     1      34.508  -5.791 -79.304  1.00  0.00     0.146 C
HETATM   23  C1  UNL     1      35.423  -6.962 -79.020  1.00  0.00     0.034 C
HETATM   24 CL1  UNL     1      33.030  -6.031 -78.348  1.00  0.00    -0.117 Cl
ENDBRANCH  18  22
ENDBRANCH  16  18
ENDBRANCH   1  16
TORSDOF 4
ENDMDL