MODEL 5
REMARK VINA RESULT: -5.321098719      8.034      9.311
REMARK  3 active torsions:
REMARK  status: ('A' for Active; 'I' for Inactive)
REMARK    1  A    between atoms: C2_2  and  C3_3
REMARK    2  A    between atoms: C3_3  and  O1_5
REMARK    3  A    between atoms: C3_3  and  C5_7
ROOT
HETATM    1  C5  UNL     1      42.220   3.278 -76.985  1.00  0.00     0.016 C
HETATM    2  C6  UNL     1      41.947   4.760 -77.136  1.00  0.00     0.023 C
HETATM    3  C7  UNL     1      41.261   2.593 -77.946  1.00  0.00     0.022 C
HETATM    4  C8  UNL     1      40.778   1.355 -77.253  1.00  0.00     0.044 C
HETATM    5  C9  UNL     1      40.947   1.682 -75.822  1.00  0.00    -0.006 A
HETATM    6  C10 UNL     1      41.763   2.796 -75.665  1.00  0.00    -0.018 A
HETATM    7  C11 UNL     1      41.977   3.206 -74.373  1.00  0.00     0.034 A
HETATM    8 BR1  UNL     1      43.051   4.736 -73.954  1.00  0.00    -0.049 Br
HETATM    9  C12 UNL     1      41.407   2.535 -73.320  1.00  0.00     0.109 A
HETATM   10  N1  UNL     1      40.638   1.480 -73.502  1.00  0.00    -0.351 N
ATOM     11  H1  UNL     1      40.232   1.008 -72.694  1.00  0.00     0.166 HD
HETATM   12  C13 UNL     1      40.380   1.019 -74.738  1.00  0.00     0.105 A
HETATM   13  N2  UNL     1      39.618  -0.026 -74.913  1.00  0.00    -0.385 N
ATOM     14  H21 UNL     1      39.203  -0.512 -74.119  1.00  0.00     0.157 HD
ATOM     15  H22 UNL     1      39.423  -0.376 -75.852  1.00  0.00     0.157 HD
ENDROOT
BRANCH   1  16
HETATM   16  C3  UNL     1      43.646   2.991 -77.315  1.00  0.00     0.065 C
HETATM   17  C4  UNL     1      44.506   4.265 -77.213  1.00  0.00     0.047 C
BRANCH  16  18
HETATM   18  C2  UNL     1      43.889   2.465 -78.698  1.00  0.00     0.034 C
HETATM   19  C1  UNL     1      44.890   3.395 -79.396  1.00  0.00     0.008 C
ENDBRANCH  16  18
BRANCH  16  20
HETATM   20  O1  UNL     1      44.243   2.098 -76.432  1.00  0.00    -0.389 OA
ATOM     21  H1  UNL     1      44.620   1.401 -76.957  1.00  0.00     0.210 HD
ENDBRANCH  16  20
ENDBRANCH   1  16
TORSDOF 3
ENDMDL