MODEL 5
REMARK VINA RESULT: -5.491307034      1.610      2.357
REMARK  5 active torsions:
REMARK  status: ('A' for Active; 'I' for Inactive)
REMARK    1  A    between atoms: C2_2  and  N1_5
REMARK    2  A    between atoms: N1_5  and  C5_7
REMARK    3  A    between atoms: C5_7  and  N2_9
REMARK    4  A    between atoms: N2_9  and  C6_11
REMARK    5  A    between atoms: C6_11  and  C7_12
ROOT
HETATM    1  N2  UNL     1      35.163  -3.512 -78.195  1.00  0.00    -0.360 N
ATOM      2  H2  UNL     1      35.341  -3.930 -77.282  1.00  0.00     0.162 HD
ENDROOT
BRANCH   1   3
HETATM    3  C5  UNL     1      34.498  -2.267 -78.215  1.00  0.00     0.168 C
HETATM    4  S1  UNL     1      32.887  -2.233 -77.991  1.00  0.00    -0.041 SA
BRANCH   3   5
HETATM    5  N1  UNL     1      35.169  -1.035 -78.413  1.00  0.00    -0.359 N
ATOM      6  H1  UNL     1      35.368  -0.739 -79.369  1.00  0.00     0.162 HD
BRANCH   5   7
HETATM    7  C2  UNL     1      35.583  -0.177 -77.327  1.00  0.00     0.021 C
HETATM    8  C1  UNL     1      34.492   0.832 -77.034  1.00  0.00     0.037 C
HETATM    9  C3  UNL     1      36.796   0.584 -77.805  1.00  0.00     0.037 C
HETATM   10  C4  UNL     1      35.910  -0.914 -76.078  1.00  0.00     0.037 C
ENDBRANCH   5   7
ENDBRANCH   3   5
ENDBRANCH   1   3
BRANCH   1  11
HETATM   11  C6  UNL     1      35.606  -4.236 -79.338  1.00  0.00     0.198 C
BRANCH  11  12
HETATM   12  C7  UNL     1      35.448  -5.726 -79.178  1.00  0.00     0.100 A
HETATM   13  N3  UNL     1      36.364  -6.677 -79.432  1.00  0.00    -0.338 N
HETATM   14  C8  UNL     1      35.890  -7.894 -79.181  1.00  0.00     0.096 A
ATOM     15  H3  UNL     1      37.306  -6.489 -79.773  1.00  0.00     0.168 HD
HETATM   16 BR1  UNL     1      36.884  -9.502 -79.416  1.00  0.00    -0.030 Br
HETATM   17  C9  UNL     1      34.600  -7.711 -78.744  1.00  0.00     0.127 A
HETATM   18  N4  UNL     1      34.361  -6.386 -78.753  1.00  0.00    -0.352 N
ATOM     19  H4  UNL     1      33.482  -5.949 -78.476  1.00  0.00     0.166 HD
ENDBRANCH  11  12
ENDBRANCH   1  11
TORSDOF 5
ENDMDL