MODEL 2
REMARK VINA RESULT: -5.788704656      8.321      9.629
REMARK  4 active torsions:
REMARK  status: ('A' for Active; 'I' for Inactive)
REMARK    1  A    between atoms: C8_9  and  N1_10
REMARK    2  A    between atoms: N1_10  and  C9_12
REMARK    3  A    between atoms: C9_12  and  N2_14
REMARK    4  A    between atoms: N2_14  and  C10_16
ROOT
HETATM    1  N1  UNL     1      34.677  -3.430 -77.256  1.00  0.00    -0.358 N
ATOM      2  H1  UNL     1      35.075  -3.844 -76.413  1.00  0.00     0.162 HD
ENDROOT
BRANCH   1   3
HETATM    3  C8  UNL     1      34.806  -2.009 -77.351  1.00  0.00     0.036 C
HETATM    4  C7  UNL     1      35.514  -1.431 -76.175  1.00  0.00     0.035 C
HETATM    5  C5  UNL     1      35.644   0.077 -76.320  1.00  0.00    -0.009 C
HETATM    6  C4  UNL     1      36.434   0.355 -77.566  1.00  0.00     0.009 C
HETATM    7  C6  UNL     1      34.270   0.664 -76.364  1.00  0.00     0.048 C
HETATM    8  C3  UNL     1      35.646  -0.124 -78.751  1.00  0.00    -0.009 C
HETATM    9  C2  UNL     1      34.263   0.479 -78.824  1.00  0.00     0.048 C
HETATM   10  C14 UNL     1      35.479  -1.626 -78.633  1.00  0.00     0.035 C
HETATM   11  C1  UNL     1      33.528   0.097 -77.564  1.00  0.00     0.106 C
HETATM   12  F1  UNL     1      32.266   0.691 -77.551  1.00  0.00    -0.243 F
HETATM   13  C15 UNL     1      33.396  -1.378 -77.383  1.00  0.00     0.074 C
ENDBRANCH   1   3
BRANCH   1  14
HETATM   14  C9  UNL     1      34.089  -4.340 -78.140  1.00  0.00     0.168 C
HETATM   15  S1  UNL     1      32.525  -4.762 -77.995  1.00  0.00    -0.041 SA
BRANCH  14  16
HETATM   16  N2  UNL     1      34.895  -4.909 -79.194  1.00  0.00    -0.361 N
ATOM     17  H2  UNL     1      34.678  -4.699 -80.169  1.00  0.00     0.162 HD
BRANCH  16  18
HETATM   18  C10 UNL     1      35.992  -5.759 -78.878  1.00  0.00     0.111 C
HETATM   19  C11 UNL     1      37.244  -5.410 -79.657  1.00  0.00     0.054 C
HETATM   20  C12 UNL     1      38.056  -6.670 -79.409  1.00  0.00     0.234 C
HETATM   21  N3  UNL     1      37.082  -7.688 -79.767  1.00  0.00    -0.073 N
HETATM   22  C13 UNL     1      35.792  -7.196 -79.343  1.00  0.00     0.257 C
ATOM     23  H32 UNL     1      37.110  -7.942 -80.754  1.00  0.00     0.277 HD
ATOM     24  H31 UNL     1      37.305  -8.609 -79.390  1.00  0.00     0.277 HD
ENDBRANCH  16  18
ENDBRANCH  14  16
ENDBRANCH   1  14
TORSDOF 4
ENDMDL