MODEL 5
REMARK VINA RESULT: -7.201928789      5.402     10.530
REMARK  4 active torsions:
REMARK  status: ('A' for Active; 'I' for Inactive)
REMARK    1  A    between atoms: O1_1  and  C1_3
REMARK    2  A    between atoms: C5_7  and  N1_8
REMARK    3  A    between atoms: C7_13  and  N3_14
REMARK    4  A    between atoms: N3_14  and  C8_16
ROOT
HETATM    1  N1  UNL     1      33.299  -2.267 -77.892  1.00  0.00    -0.367 N
ATOM      2  H1  UNL     1      32.449  -2.442 -78.429  1.00  0.00     0.161 HD
HETATM    3  C6  UNL     1      33.442  -1.029 -77.713  1.00  0.00     0.140 A
HETATM    4  N2  UNL     1      32.500  -0.160 -78.231  1.00  0.00    -0.175 N
ATOM      5  H2  UNL     1      31.714  -0.556 -78.746  1.00  0.00     0.186 HD
HETATM    6  C7  UNL     1      32.560   1.162 -78.097  1.00  0.00     0.679 A
HETATM    7  N4  UNL     1      33.564   1.754 -77.433  1.00  0.00    -0.200 N
ATOM      8  H4  UNL     1      33.602   2.768 -77.335  1.00  0.00     0.183 HD
HETATM    9  C13 UNL     1      34.515   0.974 -76.903  1.00  0.00     0.133 A
HETATM   10  C14 UNL     1      34.466  -0.414 -77.034  1.00  0.00     0.094 A
HETATM   11 CL1  UNL     1      35.749  -1.376 -76.313  1.00  0.00    -0.079 Cl
ENDROOT
BRANCH   1  12
HETATM   12  C5  UNL     1      33.916  -3.460 -77.599  1.00  0.00     0.111 C
HETATM   13  C1  UNL     1      32.862  -4.565 -77.555  1.00  0.00     0.140 C
HETATM   14  C2  UNL     1      33.241  -5.582 -78.606  1.00  0.00     0.034 C
HETATM   15  C3  UNL     1      34.731  -5.346 -78.846  1.00  0.00     0.005 C
HETATM   16  C4  UNL     1      34.855  -3.862 -78.770  1.00  0.00     0.028 C
BRANCH  13  17
HETATM   17  O1  UNL     1      31.591  -4.080 -77.873  1.00  0.00    -0.394 OA
ATOM     18  H1  UNL     1      31.269  -4.581 -78.613  1.00  0.00     0.210 HD
ENDBRANCH  13  17
ENDBRANCH   1  12
BRANCH   6  19
HETATM   19  N3  UNL     1      31.652   1.885 -78.605  1.00  0.00    -0.221 N
ATOM     20  H3  UNL     1      31.737   2.089 -79.600  1.00  0.00     0.178 HD
BRANCH  19  21
HETATM   21  C8  UNL     1      30.523   2.449 -77.934  1.00  0.00     0.099 C
HETATM   22  C9  UNL     1      30.116   1.740 -76.698  1.00  0.00     0.026 C
HETATM   23  C10 UNL     1      30.052   2.767 -75.595  1.00  0.00     0.002 C
HETATM   24  C11 UNL     1      30.760   3.985 -76.094  1.00  0.00     0.002 C
HETATM   25  C12 UNL     1      30.684   3.909 -77.621  1.00  0.00     0.026 C
ENDBRANCH  19  21
ENDBRANCH   6  19
TORSDOF 4
ENDMDL