MODEL 3
REMARK VINA RESULT: -7.121073050      0.877      1.456
REMARK  4 active torsions:
REMARK  status: ('A' for Active; 'I' for Inactive)
REMARK    1  A    between atoms: C1_2  and  N1_3
REMARK    2  A    between atoms: C1_2  and  N2_12
REMARK    3  A    between atoms: N1_3  and  C2_5
REMARK    4  A    between atoms: N2_12  and  C8_14
ROOT
HETATM    1  N2  UNL     1      35.166  -2.349 -77.231  1.00  0.00    -0.362 N
ATOM      2  H2  UNL     1      36.056  -2.579 -76.790  1.00  0.00     0.162 HD
ENDROOT
BRANCH   1   3
HETATM    3  C1  UNL     1      34.480  -3.349 -78.016  1.00  0.00     0.172 C
HETATM    4  S1  UNL     1      32.954  -3.780 -77.606  1.00  0.00    -0.041 SA
BRANCH   3   5
HETATM    5  N1  UNL     1      35.071  -3.913 -79.150  1.00  0.00    -0.333 N
ATOM      6  H1  UNL     1      35.170  -3.327 -79.979  1.00  0.00     0.168 HD
BRANCH   5   7
HETATM    7  C2  UNL     1      35.539  -5.240 -79.218  1.00  0.00     0.034 A
HETATM    8  C3  UNL     1      34.724  -6.331 -79.122  1.00  0.00     0.031 A
HETATM    9  C4  UNL     1      35.174  -7.647 -79.223  1.00  0.00     0.026 A
HETATM   10  C5  UNL     1      36.519  -7.828 -79.430  1.00  0.00     0.034 A
HETATM   11 CL1  UNL     1      37.094  -9.489 -79.558  1.00  0.00    -0.084 Cl
HETATM   12  C6  UNL     1      37.379  -6.761 -79.532  1.00  0.00     0.026 A
HETATM   13  C7  UNL     1      36.896  -5.492 -79.428  1.00  0.00     0.031 A
ENDBRANCH   5   7
ENDBRANCH   3   5
ENDBRANCH   1   3
BRANCH   1  14
HETATM   14  C8  UNL     1      34.620  -1.053 -77.068  1.00  0.00     0.087 C
HETATM   15  C9  UNL     1      34.393  -0.379 -78.438  1.00  0.00     0.058 C
HETATM   16  C10 UNL     1      34.242   1.106 -78.273  1.00  0.00     0.188 C
HETATM   17  C11 UNL     1      35.555   1.848 -78.304  1.00  0.00     0.035 C
HETATM   18  N3  UNL     1      33.687   1.332 -76.931  1.00  0.00    -0.067 N
HETATM   19  C12 UNL     1      35.754   2.301 -76.852  1.00  0.00     0.035 C
HETATM   20  C13 UNL     1      34.924   1.225 -76.135  1.00  0.00     0.188 C
HETATM   21  C14 UNL     1      35.598  -0.095 -76.361  1.00  0.00     0.058 C
ATOM     22  H32 UNL     1      33.148   2.190 -76.807  1.00  0.00     0.278 HD
ATOM     23  H31 UNL     1      32.921   0.719 -76.653  1.00  0.00     0.278 HD
ENDBRANCH   1  14
TORSDOF 4
ENDMDL