MODEL 5
REMARK VINA RESULT: -6.653798400      3.971      5.336
REMARK  5 active torsions:
REMARK  status: ('A' for Active; 'I' for Inactive)
REMARK       I    between atoms: C1_2  and  N1_3
REMARK    1  A    between atoms: C1_2  and  C7_18
REMARK    2  A    between atoms: N1_3  and  C2_5
REMARK    3  A    between atoms: C2_5  and  N2_7
REMARK    4  A    between atoms: N2_7  and  C3_9
REMARK    5  A    between atoms: C5_15  and  C6_16
ROOT
HETATM    1  C2  UNL     1      35.449   0.326 -76.502  1.00  0.00     0.180 C
HETATM    2  S1  UNL     1      34.407   1.521 -76.837  1.00  0.00    -0.040 SA
ENDROOT
BRANCH   1   3
HETATM    3  N1  UNL     1      35.037  -1.024 -76.399  1.00  0.00    -0.303 N
HETATM    4  C1  UNL     1      35.145  -1.863 -77.543  1.00  0.00     0.228 C
HETATM    5  O1  UNL     1      35.594  -1.442 -78.640  1.00  0.00    -0.273 OA
ATOM      6  H1  UNL     1      34.668  -1.388 -75.521  1.00  0.00     0.171 HD
BRANCH   4   7
HETATM    7  C7  UNL     1      34.709  -3.267 -77.414  1.00  0.00     0.078 C
HETATM    8  C8  UNL     1      33.292  -3.361 -77.943  1.00  0.00     0.014 C
HETATM    9  C9  UNL     1      32.846  -4.789 -77.945  1.00  0.00     0.001 C
HETATM   10  C10 UNL     1      33.681  -5.572 -78.909  1.00  0.00     0.000 C
HETATM   11  C11 UNL     1      34.944  -4.890 -79.305  1.00  0.00     0.001 C
HETATM   12  C12 UNL     1      35.622  -4.238 -78.126  1.00  0.00     0.014 C
ENDBRANCH   4   7
ENDBRANCH   1   3
BRANCH   1  13
HETATM   13  N2  UNL     1      36.824   0.626 -76.302  1.00  0.00    -0.318 N
ATOM     14  H2  UNL     1      37.213   0.541 -75.363  1.00  0.00     0.170 HD
BRANCH  13  15
HETATM   15  C3  UNL     1      37.598   1.002 -77.263  1.00  0.00     0.131 A
HETATM   16  N3  UNL     1      37.405   0.942 -78.573  1.00  0.00    -0.285 N
HETATM   17  N4  UNL     1      38.463   1.437 -79.179  1.00  0.00    -0.310 N
ATOM     18  H3  UNL     1      36.574   0.573 -79.035  1.00  0.00     0.188 HD
HETATM   19  C4  UNL     1      39.376   1.835 -78.278  1.00  0.00     0.119 A
ATOM     20  H4  UNL     1      38.573   1.509 -80.191  1.00  0.00     0.186 HD
HETATM   21  C5  UNL     1      38.834   1.560 -77.046  1.00  0.00     0.018 A
BRANCH  21  22
HETATM   22  C6  UNL     1      39.467   1.822 -75.733  1.00  0.00     0.158 C
HETATM   23 CL1  UNL     1      40.050   0.314 -75.000  1.00  0.00    -0.125 Cl
ENDBRANCH  21  22
ENDBRANCH  13  15
ENDBRANCH   1  13
TORSDOF 5
ENDMDL