MODEL 4
REMARK VINA RESULT: -7.134102492      2.578      3.450
REMARK  4 active torsions:
REMARK  status: ('A' for Active; 'I' for Inactive)
REMARK    1  A    between atoms: C1_2  and  N1_3
REMARK    2  A    between atoms: C1_2  and  N2_12
REMARK    3  A    between atoms: N1_3  and  C2_5
REMARK    4  A    between atoms: N2_12  and  C8_14
ROOT
HETATM    1  N2  UNL     1      34.466  -3.101 -77.682  1.00  0.00    -0.362 N
ATOM      2  H2  UNL     1      34.853  -3.143 -76.739  1.00  0.00     0.162 HD
ENDROOT
BRANCH   1   3
HETATM    3  C1  UNL     1      34.090  -4.330 -78.322  1.00  0.00     0.172 C
HETATM    4  S1  UNL     1      32.603  -4.874 -77.990  1.00  0.00    -0.041 SA
BRANCH   3   5
HETATM    5  N1  UNL     1      34.954  -4.982 -79.201  1.00  0.00    -0.333 N
ATOM      6  H1  UNL     1      35.249  -4.424 -80.002  1.00  0.00     0.168 HD
BRANCH   5   7
HETATM    7  C2  UNL     1      35.487  -6.288 -79.163  1.00  0.00     0.034 A
HETATM    8  C3  UNL     1      34.802  -7.391 -78.751  1.00  0.00     0.031 A
HETATM    9  C4  UNL     1      35.369  -8.672 -78.763  1.00  0.00     0.026 A
HETATM   10  C5  UNL     1      36.655  -8.830 -79.204  1.00  0.00     0.034 A
HETATM   11 CL1  UNL     1      37.353 -10.441 -79.215  1.00  0.00    -0.084 Cl
HETATM   12  C6  UNL     1      37.379  -7.738 -79.628  1.00  0.00     0.026 A
HETATM   13  C7  UNL     1      36.801  -6.507 -79.604  1.00  0.00     0.031 A
ENDBRANCH   5   7
ENDBRANCH   3   5
ENDBRANCH   1   3
BRANCH   1  14
HETATM   14  C8  UNL     1      34.322  -1.801 -78.309  1.00  0.00     0.084 C
HETATM   15  C9  UNL     1      35.550  -0.952 -78.067  1.00  0.00     0.032 C
HETATM   16  C10 UNL     1      35.123   0.210 -77.229  1.00  0.00     0.019 C
HETATM   17  C11 UNL     1      35.738   1.516 -77.699  1.00  0.00     0.237 C
HETATM   18  C13 UNL     1      33.685   0.389 -77.704  1.00  0.00     0.019 C
HETATM   19  N3  UNL     1      34.938   1.998 -78.786  1.00  0.00    -0.074 N
HETATM   20  C12 UNL     1      33.885   1.039 -79.029  1.00  0.00     0.237 C
ATOM     21  H32 UNL     1      34.584   2.940 -78.626  1.00  0.00     0.277 HD
ATOM     22  H31 UNL     1      35.488   2.198 -79.622  1.00  0.00     0.277 HD
HETATM   23  C14 UNL     1      33.175  -1.003 -77.763  1.00  0.00     0.032 C
ENDBRANCH   1  14
TORSDOF 4
ENDMDL