MODEL 5
REMARK VINA RESULT: -7.066194111      6.552      9.730
REMARK  4 active torsions:
REMARK  status: ('A' for Active; 'I' for Inactive)
REMARK    1  A    between atoms: C3_3  and  N1_4
REMARK    2  A    between atoms: N1_4  and  C4_6
REMARK    3  A    between atoms: C5_9  and  N3_10
REMARK    4  A    between atoms: N3_10  and  C6_12
ROOT
HETATM    1  C1  UNL     1      32.848   2.428 -81.050  1.00  0.00     0.014 C
HETATM    2  C2  UNL     1      33.445   2.032 -80.080  1.00  0.00    -0.098 C
HETATM    3  C3  UNL     1      34.171   1.560 -78.870  1.00  0.00     0.214 C
ENDROOT
BRANCH   3   4
HETATM    4  N1  UNL     1      33.252   1.479 -77.777  1.00  0.00    -0.365 N
ATOM      5  H1  UNL     1      33.290   2.188 -77.046  1.00  0.00     0.162 HD
BRANCH   4   6
HETATM    6  C4  UNL     1      32.392   0.550 -77.690  1.00  0.00     0.133 A
HETATM    7  N2  UNL     1      32.747  -0.736 -77.577  1.00  0.00    -0.176 N
HETATM    8  C5  UNL     1      31.846  -1.725 -77.484  1.00  0.00     0.681 A
ATOM      9  H2  UNL     1      33.739  -0.972 -77.560  1.00  0.00     0.186 HD
HETATM   10  N4  UNL     1      30.511  -1.438 -77.504  1.00  0.00    -0.176 N
HETATM   11  C12 UNL     1      30.071  -0.162 -77.616  1.00  0.00     0.136 A
ATOM     12  H4  UNL     1      29.834  -2.198 -77.433  1.00  0.00     0.186 HD
HETATM   13  N5  UNL     1      28.880   0.429 -77.662  1.00  0.00    -0.349 N
HETATM   14  C15 UNL     1      31.027   0.810 -77.706  1.00  0.00     0.076 A
HETATM   15  C13 UNL     1      29.053   1.748 -77.781  1.00  0.00     0.114 A
ATOM     16  H5  UNL     1      27.980  -0.049 -77.615  1.00  0.00     0.166 HD
HETATM   17  C14 UNL     1      30.398   2.011 -77.810  1.00  0.00     0.067 A
HETATM   18 CL1  UNL     1      31.150   3.593 -77.955  1.00  0.00    -0.082 Cl
BRANCH   8  19
HETATM   19  N3  UNL     1      32.130  -2.957 -77.376  1.00  0.00    -0.221 N
ATOM     20  H3  UNL     1      31.668  -3.507 -76.651  1.00  0.00     0.178 HD
BRANCH  19  21
HETATM   21  C6  UNL     1      33.077  -3.602 -78.236  1.00  0.00     0.099 C
HETATM   22  C7  UNL     1      32.910  -5.098 -78.121  1.00  0.00     0.026 C
HETATM   23  C8  UNL     1      33.868  -5.847 -79.013  1.00  0.00     0.002 C
HETATM   24  C9  UNL     1      35.099  -5.030 -79.335  1.00  0.00     0.000 C
HETATM   25  C10 UNL     1      35.519  -4.166 -78.142  1.00  0.00     0.002 C
HETATM   26  C11 UNL     1      34.455  -3.162 -77.774  1.00  0.00     0.026 C
ENDBRANCH  19  21
ENDBRANCH   8  19
ENDBRANCH   4   6
ENDBRANCH   3   4
TORSDOF 4
ENDMDL