MODEL 3
REMARK VINA RESULT: -6.874880779      1.792      2.601
REMARK  3 active torsions:
REMARK  status: ('A' for Active; 'I' for Inactive)
REMARK    1  A    between atoms: C8_13  and  N3_14
REMARK    2  A    between atoms: N3_14  and  C9_16
REMARK    3  A    between atoms: C9_16  and  C10_17
ROOT
HETATM    1 CL1  UNL     1      34.566   4.149 -75.385  1.00  0.00    -0.124 Cl
HETATM    2  C1  UNL     1      34.167   2.436 -75.766  1.00  0.00     0.092 C
HETATM    3  C2  UNL     1      32.713   2.298 -76.017  1.00  0.00     0.021 C
HETATM    4  C3  UNL     1      32.339   1.449 -77.187  1.00  0.00     0.006 C
HETATM    5  C4  UNL     1      33.180   1.650 -78.405  1.00  0.00    -0.009 C
HETATM    6  C5  UNL     1      33.670   0.301 -78.894  1.00  0.00     0.049 C
HETATM    7  C6  UNL     1      34.517  -0.270 -77.809  1.00  0.00     0.012 A
HETATM    8  C7  UNL     1      35.152   0.540 -76.890  1.00  0.00     0.041 A
HETATM    9  N1  UNL     1      35.834  -0.253 -76.044  1.00  0.00    -0.302 N
ATOM     10  H1  UNL     1      36.400   0.065 -75.257  1.00  0.00     0.186 HD
HETATM   11  N2  UNL     1      35.647  -1.517 -76.402  1.00  0.00    -0.285 N
ATOM     12  H2  UNL     1      36.051  -2.325 -75.930  1.00  0.00     0.188 HD
HETATM   13  C8  UNL     1      34.842  -1.573 -77.486  1.00  0.00     0.124 A
HETATM   14  C15 UNL     1      35.050   2.021 -76.900  1.00  0.00     0.056 C
HETATM   15  C16 UNL     1      34.392   2.509 -78.174  1.00  0.00     0.017 C
ENDROOT
BRANCH  13  16
HETATM   16  N3  UNL     1      34.422  -2.608 -78.136  1.00  0.00    -0.374 N
ATOM     17  H3  UNL     1      33.653  -2.542 -78.804  1.00  0.00     0.161 HD
BRANCH  16  18
HETATM   18  C9  UNL     1      35.089  -3.865 -77.878  1.00  0.00     0.126 C
BRANCH  18  19
HETATM   19  C10 UNL     1      35.303  -4.672 -79.132  1.00  0.00     0.006 C
HETATM   20  C11 UNL     1      36.497  -5.570 -78.946  1.00  0.00     0.034 C
HETATM   21  C12 UNL     1      36.142  -6.973 -79.369  1.00  0.00     0.232 C
HETATM   22  N4  UNL     1      35.079  -7.534 -78.563  1.00  0.00    -0.075 N
HETATM   23  C13 UNL     1      33.931  -6.664 -78.471  1.00  0.00     0.232 C
ATOM     24  H42 UNL     1      34.811  -8.458 -78.902  1.00  0.00     0.277 HD
ATOM     25  H41 UNL     1      35.419  -7.790 -77.636  1.00  0.00     0.277 HD
HETATM   26  C14 UNL     1      34.046  -5.467 -79.387  1.00  0.00     0.034 C
ENDBRANCH  18  19
ENDBRANCH  16  18
ENDBRANCH  13  16
TORSDOF 3
ENDMDL