MODEL 3
REMARK VINA RESULT: -5.391450740      1.297      2.465
REMARK  4 active torsions:
REMARK  status: ('A' for Active; 'I' for Inactive)
REMARK    1  A    between atoms: C2_2  and  C3_3
REMARK    2  A    between atoms: C3_3  and  N1_4
REMARK    3  A    between atoms: N1_4  and  C4_7
REMARK    4  A    between atoms: C4_7  and  C5_8
ROOT
HETATM    1  C4  UNL     1      24.620  39.524  60.739  1.00  0.00     0.237 C
ENDROOT
BRANCH   1   2
HETATM    2  N1  UNL     1      23.286  39.306  60.257  1.00  0.00    -0.072 N
ATOM      3  H12 UNL     1      23.265  38.583  59.538  1.00  0.00     0.277 HD
ATOM      4  H11 UNL     1      22.959  40.095  59.701  1.00  0.00     0.277 HD
BRANCH   2   5
HETATM    5  C3  UNL     1      22.364  39.003  61.340  1.00  0.00     0.259 C
BRANCH   5   6
HETATM    6  C2  UNL     1      21.610  37.787  60.974  1.00  0.00    -0.010 C
HETATM    7  C1  UNL     1      21.964  36.544  61.107  1.00  0.00     0.008 C
ENDBRANCH   5   6
ENDBRANCH   2   5
ENDBRANCH   1   2
BRANCH   1   8
HETATM    8  C5  UNL     1      25.608  38.752  59.911  1.00  0.00     0.016 C
HETATM    9  C6  UNL     1      24.857  37.745  59.010  1.00  0.00     0.011 C
HETATM   10  C7  UNL     1      25.547  36.492  59.432  1.00  0.00    -0.013 C
HETATM   11  C8  UNL     1      25.541  36.619  60.953  1.00  0.00     0.010 C
HETATM   12  C10 UNL     1      27.012  36.907  59.539  1.00  0.00     0.010 C
HETATM   13  C9  UNL     1      26.465  37.810  60.663  1.00  0.00    -0.008 C
ENDBRANCH   1   8
TORSDOF 4
ENDMDL