MODEL 5
REMARK VINA RESULT: -4.847492841      1.740      4.127
REMARK  4 active torsions:
REMARK  status: ('A' for Active; 'I' for Inactive)
REMARK    1  A    between atoms: C2_2  and  C3_3
REMARK    2  A    between atoms: C3_3  and  N1_4
REMARK    3  A    between atoms: N1_4  and  C4_7
REMARK    4  A    between atoms: C4_7  and  C5_8
ROOT
HETATM    1  C4  UNL     1      24.669  38.080  62.476  1.00  0.00     0.289 C
ENDROOT
BRANCH   1   2
HETATM    2  N1  UNL     1      25.480  37.012  61.959  1.00  0.00    -0.067 N
ATOM      3  H12 UNL     1      24.927  36.224  61.622  1.00  0.00     0.277 HD
ATOM      4  H11 UNL     1      25.993  36.515  62.688  1.00  0.00     0.277 HD
BRANCH   2   5
HETATM    5  C3  UNL     1      26.350  37.570  60.938  1.00  0.00     0.259 C
BRANCH   5   6
HETATM    6  C2  UNL     1      26.081  36.929  59.623  1.00  0.00    -0.010 C
HETATM    7  C1  UNL     1      25.369  37.495  58.667  1.00  0.00     0.008 C
ENDBRANCH   5   6
ENDBRANCH   2   5
ENDBRANCH   1   2
BRANCH   1   8
HETATM    8  C5  UNL     1      23.367  38.169  61.752  1.00  0.00     0.034 A
HETATM    9  C6  UNL     1      22.597  37.120  61.298  1.00  0.00     0.028 A
HETATM   10  C7  UNL     1      21.462  37.632  60.666  1.00  0.00     0.019 A
HETATM   11  C8  UNL     1      21.584  39.000  60.762  1.00  0.00     0.088 A
HETATM   12  N2  UNL     1      22.730  39.285  61.414  1.00  0.00    -0.368 N
ATOM     13  H2  UNL     1      23.061  40.228  61.620  1.00  0.00     0.165 HD
ENDBRANCH   1   8
TORSDOF 4
ENDMDL