MODEL 2
REMARK VINA RESULT: -4.934801728      1.039      1.863
REMARK  4 active torsions:
REMARK  status: ('A' for Active; 'I' for Inactive)
REMARK    1  A    between atoms: C2_2  and  C3_3
REMARK    2  A    between atoms: C3_3  and  N1_4
REMARK    3  A    between atoms: N1_4  and  C4_6
REMARK    4  A    between atoms: C4_6  and  C5_7
ROOT
HETATM    1  C4  UNL     1      23.244  36.530  60.800  1.00  0.00     0.118 C
ENDROOT
BRANCH   1   2
HETATM    2  N1  UNL     1      24.568  36.039  60.886  1.00  0.00    -0.418 N
ATOM      3  H1  UNL     1      24.964  35.697  61.761  1.00  0.00     0.153 HD
BRANCH   2   4
HETATM    4  C3  UNL     1      25.310  36.056  59.674  1.00  0.00     0.140 C
BRANCH   4   5
HETATM    5  C2  UNL     1      26.499  36.965  59.723  1.00  0.00    -0.018 C
HETATM    6  C1  UNL     1      26.476  38.121  59.155  1.00  0.00     0.008 C
ENDBRANCH   4   5
ENDBRANCH   2   4
ENDBRANCH   1   2
BRANCH   1   7
HETATM    7  C5  UNL     1      22.979  37.824  61.539  1.00  0.00     0.003 C
HETATM    8  C6  UNL     1      23.030  38.904  60.444  1.00  0.00     0.006 C
HETATM    9  C7  UNL     1      23.624  40.120  61.070  1.00  0.00     0.000 C
HETATM   10  C8  UNL     1      24.489  39.630  62.212  1.00  0.00     0.000 C
HETATM   11  C9  UNL     1      24.160  38.186  62.403  1.00  0.00     0.006 C
ENDBRANCH   1   7
TORSDOF 4
ENDMDL