MODEL 5
REMARK VINA RESULT: -4.964373864      1.088      1.295
REMARK  4 active torsions:
REMARK  status: ('A' for Active; 'I' for Inactive)
REMARK    1  A    between atoms: C2_2  and  C3_3
REMARK    2  A    between atoms: C3_3  and  C4_4
REMARK    3  A    between atoms: C4_4  and  N1_5
REMARK    4  A    between atoms: N1_5  and  C5_7
ROOT
HETATM    1  N1  UNL     1      24.032  36.925  61.637  1.00  0.00    -0.394 N
ATOM      2  H1  UNL     1      23.459  36.122  61.898  1.00  0.00     0.159 HD
ENDROOT
BRANCH   1   3
HETATM    3  C4  UNL     1      25.276  36.720  61.023  1.00  0.00     0.060 C
BRANCH   3   4
HETATM    4  C3  UNL     1      25.254  36.176  59.619  1.00  0.00     0.070 C
BRANCH   4   5
HETATM    5  C2  UNL     1      25.437  37.337  58.692  1.00  0.00    -0.032 C
HETATM    6  C1  UNL     1      26.477  38.151  58.743  1.00  0.00     0.007 C
ENDBRANCH   4   5
ENDBRANCH   3   4
ENDBRANCH   1   3
BRANCH   1   7
HETATM    7  C5  UNL     1      23.569  38.223  61.895  1.00  0.00     0.109 C
HETATM    8  C6  UNL     1      24.401  39.412  61.563  1.00  0.00     0.034 C
HETATM    9  C7  UNL     1      23.131  40.026  60.991  1.00  0.00     0.038 C
HETATM   10  C8  UNL     1      22.622  38.643  60.790  1.00  0.00    -0.067 C
HETATM   11  C9  UNL     1      21.746  38.005  60.022  1.00  0.00     0.016 C
ENDBRANCH   1   7
TORSDOF 4
ENDMDL