MODEL 2
REMARK VINA RESULT: -4.689032287      1.832      2.341
REMARK  4 active torsions:
REMARK  status: ('A' for Active; 'I' for Inactive)
REMARK    1  A    between atoms: C2_2  and  C3_3
REMARK    2  A    between atoms: C3_3  and  O1_4
REMARK    3  A    between atoms: O1_4  and  C4_5
REMARK    4  A    between atoms: C4_5  and  C5_6
ROOT
HETATM    1  C5  UNL     1      24.571  37.093  60.966  1.00  0.00    -0.018 A
HETATM    2  C6  UNL     1      25.784  37.380  60.338  1.00  0.00     0.027 A
HETATM    3  C7  UNL     1      26.095  36.375  59.457  1.00  0.00     0.088 A
HETATM    4  N1  UNL     1      25.100  35.466  59.522  1.00  0.00    -0.375 N
ATOM      5  H1  UNL     1      25.047  34.603  58.981  1.00  0.00     0.164 HD
HETATM    6  C8  UNL     1      24.181  35.890  60.426  1.00  0.00     0.096 A
ENDROOT
BRANCH   1   7
HETATM    7  C4  UNL     1      23.906  37.929  61.988  1.00  0.00     0.208 C
BRANCH   7   8
HETATM    8  O1  UNL     1      23.819  39.260  61.619  1.00  0.00    -0.383 OA
BRANCH   8   9
HETATM    9  C3  UNL     1      22.833  39.552  60.707  1.00  0.00     0.194 C
BRANCH   9  10
HETATM   10  C2  UNL     1      21.518  38.956  61.127  1.00  0.00    -0.011 C
HETATM   11  C1  UNL     1      20.652  38.518  60.237  1.00  0.00     0.009 C
ENDBRANCH   9  10
ENDBRANCH   8   9
ENDBRANCH   7   8
ENDBRANCH   1   7
TORSDOF 4
ENDMDL