MODEL 5
REMARK VINA RESULT: -5.352378141      1.279      2.076
REMARK  4 active torsions:
REMARK  status: ('A' for Active; 'I' for Inactive)
REMARK    1  A    between atoms: C2_2  and  C3_3
REMARK    2  A    between atoms: C3_3  and  N1_4
REMARK    3  A    between atoms: N1_4  and  C4_7
REMARK    4  A    between atoms: C4_7  and  C5_8
ROOT
HETATM    1  C4  UNL     1      24.876  37.850  61.655  1.00  0.00     0.238 C
ENDROOT
BRANCH   1   2
HETATM    2  N1  UNL     1      23.495  37.821  62.048  1.00  0.00    -0.072 N
ATOM      3  H12 UNL     1      23.395  37.603  63.039  1.00  0.00     0.277 HD
ATOM      4  H11 UNL     1      23.015  37.010  61.658  1.00  0.00     0.277 HD
BRANCH   2   5
HETATM    5  C3  UNL     1      22.807  39.062  61.705  1.00  0.00     0.259 C
BRANCH   5   6
HETATM    6  C2  UNL     1      21.422  38.779  61.259  1.00  0.00    -0.010 C
HETATM    7  C1  UNL     1      21.260  38.090  60.136  1.00  0.00     0.008 C
ENDBRANCH   5   6
ENDBRANCH   2   5
ENDBRANCH   1   2
BRANCH   1   8
HETATM    8  C5  UNL     1      25.057  38.266  60.262  1.00  0.00     0.019 C
HETATM    9  C6  UNL     1      26.423  38.294  59.644  1.00  0.00    -0.008 C
HETATM   10  C7  UNL     1      26.934  36.884  59.742  1.00  0.00     0.005 C
HETATM   11  C10 UNL     1      25.660  38.190  58.300  1.00  0.00     0.010 C
HETATM   12  C8  UNL     1      25.609  36.147  59.453  1.00  0.00     0.005 C
HETATM   13  C9  UNL     1      24.723  37.313  59.159  1.00  0.00    -0.008 C
ENDBRANCH   1   8
TORSDOF 4
ENDMDL