MODEL 5
REMARK VINA RESULT: -5.324790451      0.716      4.014
REMARK  4 active torsions:
REMARK  status: ('A' for Active; 'I' for Inactive)
REMARK    1  A    between atoms: C3_3  and  C4_4
REMARK    2  A    between atoms: C4_4  and  N1_5
REMARK    3  A    between atoms: N1_5  and  C5_8
REMARK    4  A    between atoms: C5_8  and  C6_9
ROOT
HETATM    1  N1  UNL     1      23.552  35.703  60.122  1.00  0.00    -0.071 N
ATOM      2  H11 UNL     1      23.400  36.017  59.163  1.00  0.00     0.277 HD
ATOM      3  H12 UNL     1      23.505  34.694  59.981  1.00  0.00     0.277 HD
ENDROOT
BRANCH   1   4
HETATM    4  C4  UNL     1      22.468  36.154  60.991  1.00  0.00     0.270 C
BRANCH   4   5
HETATM    5  C3  UNL     1      22.161  37.607  60.862  1.00  0.00    -0.033 A
HETATM    6  C2  UNL     1      22.629  38.880  61.369  1.00  0.00     0.009 A
HETATM    7  C1  UNL     1      21.712  39.570  60.694  1.00  0.00     0.001 A
HETATM    8  C9  UNL     1      21.220  38.297  60.167  1.00  0.00     0.009 A
ENDBRANCH   4   5
ENDBRANCH   1   4
BRANCH   1   9
HETATM    9  C5  UNL     1      24.852  36.090  60.579  1.00  0.00     0.237 C
BRANCH   9  10
HETATM   10  C6  UNL     1      25.641  36.586  59.358  1.00  0.00     0.011 A
HETATM   11  C7  UNL     1      26.308  37.920  59.465  1.00  0.00     0.007 A
HETATM   12  C8  UNL     1      25.092  37.739  58.579  1.00  0.00     0.007 A
ENDBRANCH   9  10
ENDBRANCH   1   9
TORSDOF 4
ENDMDL