MODEL 1
REMARK VINA RESULT: -5.130057044      0.000      0.000
REMARK  5 active torsions:
REMARK  status: ('A' for Active; 'I' for Inactive)
REMARK    1  A    between atoms: C2_2  and  C3_3
REMARK    2  A    between atoms: C3_3  and  N1_4
REMARK    3  A    between atoms: N1_4  and  C4_7
REMARK    4  A    between atoms: C4_7  and  C5_8
REMARK    5  A    between atoms: C7_10  and  C8_11
ROOT
HETATM    1  N1  UNL     1      23.345  35.725  60.289  1.00  0.00    -0.072 N
ATOM      2  H11 UNL     1      23.298  34.726  60.487  1.00  0.00     0.277 HD
ATOM      3  H12 UNL     1      23.213  35.676  59.279  1.00  0.00     0.277 HD
ENDROOT
BRANCH   1   4
HETATM    4  C3  UNL     1      24.623  36.302  60.652  1.00  0.00     0.259 C
BRANCH   4   5
HETATM    5  C2  UNL     1      25.438  36.364  59.398  1.00  0.00    -0.010 C
HETATM    6  C1  UNL     1      25.407  37.413  58.631  1.00  0.00     0.008 C
ENDBRANCH   4   5
ENDBRANCH   1   4
BRANCH   1   7
HETATM    7  C4  UNL     1      22.275  36.482  60.960  1.00  0.00     0.237 C
BRANCH   7   8
HETATM    8  C5  UNL     1      22.127  37.820  60.219  1.00  0.00     0.019 A
HETATM    9  C6  UNL     1      20.938  38.665  60.624  1.00  0.00     0.016 A
HETATM   10  C7  UNL     1      22.282  39.042  61.069  1.00  0.00     0.013 A
BRANCH  10  11
HETATM   11  C8  UNL     1      22.993  40.238  60.575  1.00  0.00    -0.032 C
HETATM   12  C9  UNL     1      24.315  40.319  60.610  1.00  0.00     0.007 C
ENDBRANCH  10  11
ENDBRANCH   7   8
ENDBRANCH   1   7
TORSDOF 5
ENDMDL