MODEL 5
REMARK VINA RESULT: -2.483082160      3.142      4.906
REMARK  4 active torsions:
REMARK  status: ('A' for Active; 'I' for Inactive)
REMARK    1  A    between atoms: N1_2  and  C2_4
REMARK    2  A    between atoms: C2_4  and  O1_5
REMARK    3  A    between atoms: C2_4  and  N2_7
REMARK    4  A    between atoms: N5_24  and  C13_25
ROOT
HETATM    1  N2  UNL     1      55.036   0.774   3.245  1.00  0.00    -0.257 N
HETATM    2  C3  UNL     1      55.318  -0.153   4.376  1.00  0.00     0.358 C
HETATM    3  F1  UNL     1      54.149  -0.464   4.997  1.00  0.00    -0.177 F
HETATM    4  F2  UNL     1      55.947  -1.296   3.870  1.00  0.00    -0.177 F
HETATM    5  C4  UNL     1      56.244   0.570   5.239  1.00  0.00     0.045 A
HETATM    6  C5  UNL     1      57.030   0.170   6.300  1.00  0.00     0.016 A
HETATM    7  C6  UNL     1      57.849   1.045   6.981  1.00  0.00     0.001 A
HETATM    8  C7  UNL     1      57.878   2.364   6.584  1.00  0.00     0.001 A
HETATM    9  C8  UNL     1      57.098   2.816   5.513  1.00  0.00     0.011 A
HETATM   10  C9  UNL     1      56.311   1.888   4.887  1.00  0.00    -0.005 A
HETATM   11  C10 UNL     1      55.368   2.059   3.718  1.00  0.00     0.135 A
HETATM   12  C11 UNL     1      55.992   3.005   2.785  1.00  0.00     0.104 A
HETATM   13  N3  UNL     1      55.301   4.115   2.742  1.00  0.00    -0.351 N
ATOM     14  H3  UNL     1      55.531   4.929   2.173  1.00  0.00     0.166 HD
HETATM   15  C12 UNL     1      54.185   4.012   3.609  1.00  0.00     0.131 A
HETATM   16  N4  UNL     1      53.114   4.695   4.048  1.00  0.00    -0.279 N
ATOM     17  H4  UNL     1      52.869   5.643   3.761  1.00  0.00     0.189 HD
HETATM   18  N5  UNL     1      52.424   3.963   4.904  1.00  0.00    -0.241 N
HETATM   19  C14 UNL     1      53.058   2.777   5.026  1.00  0.00     0.130 A
HETATM   20  C15 UNL     1      54.162   2.780   4.227  1.00  0.00     0.043 A
ENDROOT
BRANCH   1  21
HETATM   21  C2  UNL     1      54.541   0.360   1.992  1.00  0.00     0.221 C
BRANCH  21  22
HETATM   22  N1  UNL     1      53.333   0.678   1.370  1.00  0.00    -0.361 N
HETATM   23  C1  UNL     1      52.120   0.812   2.138  1.00  0.00     0.150 C
ATOM     24  H1  UNL     1      53.309   0.818   0.360  1.00  0.00     0.162 HD
ENDBRANCH  21  22
BRANCH  21  25
HETATM   25  O1  UNL     1      55.302  -0.436   1.290  1.00  0.00    -0.333 OA
ATOM     26  H1  UNL     1      55.061  -0.486   0.373  1.00  0.00     0.220 HD
ENDBRANCH  21  25
ENDBRANCH   1  21
BRANCH  18  27
HETATM   27  C13 UNL     1      51.205   4.365   5.587  1.00  0.00     0.479 C
HETATM   28  F3  UNL     1      50.169   4.449   4.647  1.00  0.00    -0.189 F
HETATM   29  F4  UNL     1      50.926   3.390   6.526  1.00  0.00    -0.189 F
ENDBRANCH  18  27
TORSDOF 4
ENDMDL