MODEL 2
REMARK VINA RESULT: -6.882391101      1.409      1.420
REMARK  2 active torsions:
REMARK  status: ('A' for Active; 'I' for Inactive)
REMARK       I    between atoms: C1_2  and  N1_3
REMARK    1  A    between atoms: C1_2  and  C4_13
REMARK    2  A    between atoms: N1_3  and  C2_5
ROOT
HETATM    1  O1  UNL     1      52.602   0.577   2.123  1.00  0.00    -0.265 OA
HETATM    2  C1  UNL     1      53.251   0.973   3.120  1.00  0.00     0.281 C
HETATM    3  N1  UNL     1      53.849   0.051   3.968  1.00  0.00    -0.300 N
ATOM      4  H1  UNL     1      53.234  -0.508   4.559  1.00  0.00     0.171 HD
ENDROOT
BRANCH   3   5
HETATM    5  C2  UNL     1      55.125  -0.160   4.071  1.00  0.00     0.170 A
HETATM    6  N2  UNL     1      55.896  -1.096   3.548  1.00  0.00    -0.311 N
HETATM    7  C3  UNL     1      57.184  -1.068   3.825  1.00  0.00     0.187 A
ATOM      8  H2  UNL     1      55.506  -1.820   2.945  1.00  0.00     0.170 HD
HETATM    9 CL1  UNL     1      58.379  -2.258   3.203  1.00  0.00    -0.044 Cl
HETATM   10  N3  UNL     1      57.624  -0.094   4.620  1.00  0.00    -0.300 N
HETATM   11  S1  UNL     1      56.230   0.774   4.970  1.00  0.00     0.025 SA
ATOM     12  H3  UNL     1      58.577   0.082   4.939  1.00  0.00     0.177 HD
ENDBRANCH   3   5
BRANCH   2  13
HETATM   13  C4  UNL     1      53.374   2.399   3.382  1.00  0.00     0.146 A
HETATM   14  C5  UNL     1      52.353   3.241   3.787  1.00  0.00     0.066 A
HETATM   15  C6  UNL     1      52.860   4.511   3.928  1.00  0.00     0.059 A
HETATM   16 BR1  UNL     1      51.914   6.099   4.468  1.00  0.00    -0.047 Br
HETATM   17  C7  UNL     1      54.193   4.404   3.601  1.00  0.00     0.163 A
HETATM   18 CL2  UNL     1      55.297   5.769   3.625  1.00  0.00    -0.055 Cl
HETATM   19  O2  UNL     1      54.446   3.161   3.291  1.00  0.00    -0.291 OA
ENDBRANCH   2  13
TORSDOF 2
ENDMDL