MODEL 3
REMARK VINA RESULT: -0.831525743      2.156      2.810
REMARK  1 active torsions:
REMARK  status: ('A' for Active; 'I' for Inactive)
REMARK    1  A    between atoms: C2_2  and  N1_4
ROOT
HETATM    1  N1  UNL     1      55.475   3.594   3.663  1.00  0.00    -0.366 N
ATOM      2  H1  UNL     1      56.072   3.922   2.905  1.00  0.00     0.162 HD
HETATM    3  C4  UNL     1      55.942   2.678   4.421  1.00  0.00     0.152 C
HETATM    4  N2  UNL     1      55.374   2.021   5.540  1.00  0.00    -0.263 N
ATOM      5  H2  UNL     1      54.724   2.461   6.192  1.00  0.00     0.180 HD
HETATM    6  S1  UNL     1      55.909   0.390   5.672  1.00  0.00     0.260 S
HETATM    7  O1  UNL     1      56.354   0.164   7.085  1.00  0.00    -0.203 OA
HETATM    8  O2  UNL     1      54.814  -0.546   5.361  1.00  0.00    -0.203 OA
HETATM    9  C5  UNL     1      57.209   0.222   4.507  1.00  0.00     0.217 A
HETATM   10  S2  UNL     1      57.594   1.978   4.178  1.00  0.00    -0.056 SA
HETATM   11  C6  UNL     1      58.316  -0.618   4.811  1.00  0.00     0.072 A
HETATM   12 CL1  UNL     1      59.496  -0.689   6.141  1.00  0.00    -0.084 Cl
HETATM   13  C7  UNL     1      58.172  -1.339   3.759  1.00  0.00     0.074 A
HETATM   14 CL2  UNL     1      59.101  -2.739   3.166  1.00  0.00    -0.084 Cl
HETATM   15  C8  UNL     1      57.019  -0.579   3.308  1.00  0.00     0.190 A
HETATM   16 CL3  UNL     1      57.267   0.383   1.829  1.00  0.00    -0.092 Cl
HETATM   17 CL4  UNL     1      55.590  -1.634   3.217  1.00  0.00    -0.092 Cl
ENDROOT
BRANCH   1  18
HETATM   18  C2  UNL     1      54.184   4.196   3.789  1.00  0.00     0.075 C
HETATM   19  C1  UNL     1      53.164   3.230   3.189  1.00  0.00     0.032 C
HETATM   20  C3  UNL     1      54.148   5.480   2.972  1.00  0.00     0.032 C
ENDBRANCH   1  18
TORSDOF 1
ENDMDL