MODEL 2
REMARK VINA RESULT: -6.835936724      4.050      7.193
REMARK  2 active torsions:
REMARK  status: ('A' for Active; 'I' for Inactive)
REMARK    1  A    between atoms: C7_11  and  C8_12
REMARK    2  A    between atoms: C11_16  and  C12_17
ROOT
HETATM    1  C1  UNL     1      52.043   6.734   4.330  1.00  0.00     0.161 C
HETATM    2  N1  UNL     1      52.274   5.318   4.222  1.00  0.00    -0.303 N
HETATM    3  C2  UNL     1      51.209   4.363   4.259  1.00  0.00     0.252 C
HETATM    4  O1  UNL     1      50.040   4.721   3.999  1.00  0.00    -0.270 OA
HETATM    5  C3  UNL     1      51.456   2.945   4.603  1.00  0.00     0.105 C
HETATM    6  C4  UNL     1      51.554   2.841   6.111  1.00  0.00     0.048 C
HETATM    7  C5  UNL     1      50.279   2.118   4.167  1.00  0.00     0.048 C
HETATM    8  N2  UNL     1      52.688   2.548   4.010  1.00  0.00    -0.368 N
ATOM      9  H2  UNL     1      52.785   1.612   3.615  1.00  0.00     0.161 HD
HETATM   10  C6  UNL     1      53.773   3.449   3.969  1.00  0.00     0.106 A
HETATM   11  C7  UNL     1      55.137   3.275   3.835  1.00  0.00     0.105 A
HETATM   12  N4  UNL     1      55.705   4.470   3.859  1.00  0.00    -0.293 N
ATOM     13  H4  UNL     1      56.708   4.636   3.778  1.00  0.00     0.187 HD
HETATM   14  N5  UNL     1      54.792   5.426   4.001  1.00  0.00    -0.278 N
HETATM   15  C15 UNL     1      55.038   6.850   4.067  1.00  0.00     0.179 C
HETATM   16  C16 UNL     1      53.592   4.826   4.071  1.00  0.00     0.155 A
ENDROOT
BRANCH  11  17
HETATM   17  C8  UNL     1      55.801   1.971   3.692  1.00  0.00     0.067 A
HETATM   18  C9  UNL     1      55.368   1.093   2.722  1.00  0.00     0.075 A
HETATM   19  C10 UNL     1      55.982  -0.140   2.574  1.00  0.00     0.131 A
HETATM   20  F1  UNL     1      55.558  -1.016   1.615  1.00  0.00    -0.205 F
HETATM   21  C11 UNL     1      57.016  -0.446   3.414  1.00  0.00     0.060 A
HETATM   22  C13 UNL     1      57.405   0.474   4.366  1.00  0.00     0.106 A
HETATM   23  N3  UNL     1      56.804   1.669   4.503  1.00  0.00    -0.358 N
HETATM   24  C14 UNL     1      57.243   2.617   5.523  1.00  0.00     0.156 C
BRANCH  21  25
HETATM   25  C12 UNL     1      57.721  -1.733   3.324  1.00  0.00     0.391 C
HETATM   26  F2  UNL     1      56.834  -2.780   3.415  1.00  0.00    -0.209 F
HETATM   27  F3  UNL     1      58.705  -1.840   4.316  1.00  0.00    -0.209 F
ENDBRANCH  21  25
ENDBRANCH  11  17
TORSDOF 2
ENDMDL