MODEL 4
REMARK VINA RESULT: -6.833749762      3.885      5.387
REMARK  1 active torsions:
REMARK  status: ('A' for Active; 'I' for Inactive)
REMARK    1  A    between atoms: C6_11  and  C7_12
ROOT
HETATM    1  N1  UNL     1      56.604   2.417   6.684  1.00  0.00    -0.104 NA
HETATM    2  C1  UNL     1      56.421   1.483   5.633  1.00  0.00     0.060 A
HETATM    3  C2  UNL     1      57.404   0.656   5.353  1.00  0.00     0.084 A
HETATM    4 BR1  UNL     1      59.025   0.743   6.362  1.00  0.00    -0.045 Br
HETATM    5  C3  UNL     1      57.297  -0.341   4.280  1.00  0.00     0.213 A
HETATM    6  O1  UNL     1      58.228  -1.133   4.007  1.00  0.00    -0.285 OA
HETATM    7  C4  UNL     1      56.052  -0.370   3.544  1.00  0.00     0.104 A
HETATM    8 CL1  UNL     1      55.796  -1.525   2.227  1.00  0.00    -0.079 Cl
HETATM    9  C5  UNL     1      55.077   0.452   3.823  1.00  0.00     0.053 A
HETATM   10 CL2  UNL     1      53.563   0.364   2.873  1.00  0.00    -0.086 Cl
HETATM   11  C6  UNL     1      55.181   1.448   4.892  1.00  0.00     0.132 A
ENDROOT
BRANCH  11  12
HETATM   12  C7  UNL     1      54.788   2.759   4.319  1.00  0.00     0.039 A
HETATM   13  C8  UNL     1      53.478   3.140   4.320  1.00  0.00     0.116 A
HETATM   14  N2  UNL     1      53.138   4.333   3.796  1.00  0.00    -0.340 N
HETATM   15  C9  UNL     1      54.111   5.133   3.276  1.00  0.00     0.203 A
ATOM     16  H2  UNL     1      52.163   4.634   3.788  1.00  0.00     0.167 HD
HETATM   17  F1  UNL     1      53.822   6.347   2.735  1.00  0.00    -0.185 F
HETATM   18  C10 UNL     1      55.439   4.754   3.272  1.00  0.00     0.149 A
HETATM   19  N3  UNL     1      55.730   3.551   3.807  1.00  0.00    -0.363 N
ATOM     20  H3  UNL     1      56.700   3.238   3.820  1.00  0.00     0.165 HD
ENDBRANCH  11  12
TORSDOF 1
ENDMDL