MODEL 5
REMARK VINA RESULT: -5.065099047      3.528      5.941
REMARK  2 active torsions:
REMARK  status: ('A' for Active; 'I' for Inactive)
REMARK    1  A    between atoms: O1_2  and  C2_3
REMARK    2  A    between atoms: C7_11  and  O3_12
ROOT
HETATM    1  C2  UNL     1      52.412   4.261   3.710  1.00  0.00     0.140 A
HETATM    2  C3  UNL     1      53.438   5.014   4.003  1.00  0.00     0.099 A
HETATM    3 BR1  UNL     1      53.150   6.875   4.262  1.00  0.00    -0.044 Br
HETATM    4  C4  UNL     1      54.762   4.436   4.128  1.00  0.00     0.206 A
HETATM    5  O2  UNL     1      55.767   5.162   4.414  1.00  0.00    -0.286 OA
HETATM    6  C5  UNL     1      54.965   3.007   3.927  1.00  0.00     0.073 A
HETATM    7  C6  UNL     1      56.211   2.419   4.037  1.00  0.00     0.166 A
HETATM    8  F1  UNL     1      57.260   3.195   4.339  1.00  0.00    -0.202 F
HETATM    9  C7  UNL     1      56.407   1.069   3.848  1.00  0.00     0.129 A
HETATM   10  C8  UNL     1      55.304   0.301   3.539  1.00  0.00     0.093 A
HETATM   11 CL1  UNL     1      55.423  -1.434   3.274  1.00  0.00    -0.079 Cl
HETATM   12  C9  UNL     1      54.056   0.870   3.426  1.00  0.00     0.074 A
HETATM   13 CL2  UNL     1      52.648  -0.116   3.030  1.00  0.00    -0.081 Cl
HETATM   14  C10 UNL     1      53.875   2.232   3.619  1.00  0.00     0.058 A
HETATM   15  C11 UNL     1      52.560   2.839   3.501  1.00  0.00     0.219 A
HETATM   16  O4  UNL     1      51.593   2.083   3.216  1.00  0.00    -0.284 OA
ENDROOT
BRANCH   1  17
HETATM   17  O1  UNL     1      51.126   4.797   3.585  1.00  0.00    -0.351 OA
HETATM   18  C1  UNL     1      50.170   4.396   4.548  1.00  0.00     0.210 C
ENDBRANCH   1  17
BRANCH   9  19
HETATM   19  O3  UNL     1      57.637   0.438   3.948  1.00  0.00    -0.356 OA
ATOM     20  H3  UNL     1      58.352   0.743   4.495  1.00  0.00     0.218 HD
ENDBRANCH   9  19
TORSDOF 2
ENDMDL