MODEL 1
REMARK VINA RESULT: -8.240231956      0.000      0.000
REMARK  3 active torsions:
REMARK  status: ('A' for Active; 'I' for Inactive)
REMARK    1  A    between atoms: O1_2  and  C2_3
REMARK    2  A    between atoms: C2_3  and  C3_5
REMARK    3  A    between atoms: C13_19  and  O4_20
ROOT
HETATM    1  C3  UNL     1      55.569   0.742   3.910  1.00  0.00     0.073 A
HETATM    2  C4  UNL     1      54.207   1.051   4.069  1.00  0.00     0.036 A
HETATM    3  C5  UNL     1      53.747   2.348   4.162  1.00  0.00     0.017 A
HETATM    4  C6  UNL     1      52.371   2.428   4.315  1.00  0.00     0.170 C
HETATM    5  F1  UNL     1      51.764   1.226   4.590  1.00  0.00    -0.202 F
HETATM    6  C7  UNL     1      51.566   3.528   4.230  1.00  0.00     0.206 C
HETATM    7  F2  UNL     1      50.236   3.234   4.293  1.00  0.00    -0.198 F
HETATM    8  C8  UNL     1      51.924   4.856   4.092  1.00  0.00     0.230 C
HETATM    9  O3  UNL     1      50.995   5.668   3.940  1.00  0.00    -0.284 OA
HETATM   10  C9  UNL     1      53.177   5.434   4.096  1.00  0.00     0.065 C
HETATM   11 BR1  UNL     1      53.238   7.340   3.989  1.00  0.00    -0.047 Br
HETATM   12  C10 UNL     1      54.381   4.765   4.171  1.00  0.00     0.035 C
HETATM   13  C11 UNL     1      54.646   3.392   4.098  1.00  0.00    -0.019 A
HETATM   14  C12 UNL     1      55.967   3.120   3.944  1.00  0.00     0.050 A
HETATM   15  C13 UNL     1      56.435   1.784   3.849  1.00  0.00     0.082 A
ENDROOT
BRANCH   1  16
HETATM   16  C2  UNL     1      55.913  -0.661   3.826  1.00  0.00     0.295 C
HETATM   17  O2  UNL     1      55.007  -1.552   3.723  1.00  0.00    -0.259 OA
BRANCH  16  18
HETATM   18  O1  UNL     1      57.190  -1.125   3.850  1.00  0.00    -0.322 OA
HETATM   19  C1  UNL     1      57.627  -2.352   3.310  1.00  0.00     0.213 C
ENDBRANCH  16  18
ENDBRANCH   1  16
BRANCH  15  20
HETATM   20  O4  UNL     1      57.772   1.596   3.697  1.00  0.00    -0.360 OA
ATOM     21  H4  UNL     1      58.365   2.323   3.542  1.00  0.00     0.217 HD
ENDBRANCH  15  20
TORSDOF 3
ENDMDL