MODEL 3
REMARK VINA RESULT: -3.406188071      1.691      2.216
REMARK  1 active torsions:
REMARK  status: ('A' for Active; 'I' for Inactive)
REMARK    1  A    between atoms: C9_17  and  C10_18
ROOT
HETATM    1  C1  UNL     1      57.626   0.202   5.528  1.00  0.00     0.043 C
HETATM    2  C2  UNL     1      56.441   0.968   5.118  1.00  0.00    -0.082 C
HETATM    3  C3  UNL     1      55.272   0.362   5.040  1.00  0.00     0.030 C
HETATM    4  C4  UNL     1      54.123   1.207   4.617  1.00  0.00     0.041 C
HETATM    5  N1  UNL     1      52.996   0.972   5.187  1.00  0.00    -0.301 N
ATOM      6  H1  UNL     1      52.952   0.230   5.885  1.00  0.00     0.186 HD
HETATM    7  N2  UNL     1      51.835   1.678   4.900  1.00  0.00    -0.267 N
ATOM      8  H2  UNL     1      50.950   1.474   5.363  1.00  0.00     0.190 HD
HETATM    9  C5  UNL     1      51.954   2.718   3.907  1.00  0.00     0.272 C
HETATM   10  O1  UNL     1      50.980   3.086   3.245  1.00  0.00    -0.268 OA
HETATM   11  C6  UNL     1      53.298   3.334   3.704  1.00  0.00     0.167 C
HETATM   12  C7  UNL     1      53.322   4.486   2.795  1.00  0.00     0.122 C
HETATM   13  C8  UNL     1      53.161   5.366   4.041  1.00  0.00     0.220 C
HETATM   14 CL1  UNL     1      51.507   5.929   4.337  1.00  0.00    -0.070 Cl
HETATM   15 CL2  UNL     1      54.278   6.726   4.146  1.00  0.00    -0.070 Cl
HETATM   16  O2  UNL     1      53.536   4.232   4.769  1.00  0.00    -0.329 OA
HETATM   17  C9  UNL     1      54.347   2.245   3.564  1.00  0.00     0.074 C
HETATM   18  C11 UNL     1      55.685   2.845   3.676  1.00  0.00     0.027 C
HETATM   19  C12 UNL     1      56.562   2.384   4.801  1.00  0.00     0.035 C
ENDROOT
BRANCH  17  20
HETATM   20  C10 UNL     1      54.154   1.497   2.243  1.00  0.00     0.196 C
HETATM   21 CL3  UNL     1      52.508   0.830   2.134  1.00  0.00    -0.107 Cl
HETATM   22 CL4  UNL     1      55.268   0.124   2.079  1.00  0.00    -0.107 Cl
ENDBRANCH  17  20
TORSDOF 1
ENDMDL