MODEL 3
REMARK VINA RESULT: -5.871911756      2.118      3.121
REMARK  2 active torsions:
REMARK  status: ('A' for Active; 'I' for Inactive)
REMARK    1  A    between atoms: O1_2  and  C2_3
REMARK    2  A    between atoms: C12_18  and  C13_20
ROOT
HETATM    1  C2  UNL     1      55.519   0.389   3.177  1.00  0.00     0.088 C
HETATM    2  C3  UNL     1      54.310   0.061   2.728  1.00  0.00     0.095 C
HETATM    3  C4  UNL     1      53.052   0.786   2.868  1.00  0.00     0.202 C
HETATM    4  O2  UNL     1      52.024   0.143   2.548  1.00  0.00    -0.286 OA
HETATM    5  C5  UNL     1      52.806   2.156   3.328  1.00  0.00     0.099 A
HETATM    6  N1  UNL     1      51.627   2.775   3.441  1.00  0.00    -0.354 N
ATOM      7  H1  UNL     1      50.735   2.339   3.210  1.00  0.00     0.166 HD
HETATM    8  C6  UNL     1      51.747   4.038   3.893  1.00  0.00     0.028 A
HETATM    9  C7  UNL     1      50.665   5.031   4.145  1.00  0.00     0.070 C
HETATM   10  C8  UNL     1      53.100   4.249   4.088  1.00  0.00     0.072 A
HETATM   11 CL1  UNL     1      53.905   5.703   4.663  1.00  0.00    -0.081 Cl
HETATM   12  C9  UNL     1      53.747   3.089   3.739  1.00  0.00     0.069 A
HETATM   13  C10 UNL     1      55.189   2.882   3.791  1.00  0.00     0.201 C
HETATM   14  O3  UNL     1      55.893   3.903   3.686  1.00  0.00    -0.286 OA
HETATM   15  C11 UNL     1      55.911   1.597   3.951  1.00  0.00     0.075 C
HETATM   16  C12 UNL     1      56.919   1.478   4.725  1.00  0.00     0.113 C
HETATM   17 CL2  UNL     1      57.699  -0.147   4.725  1.00  0.00    -0.078 Cl
ENDROOT
BRANCH   1  18
HETATM   18  O1  UNL     1      56.548  -0.488   2.900  1.00  0.00    -0.355 OA
HETATM   19  C1  UNL     1      56.224  -1.858   2.650  1.00  0.00     0.210 C
ENDBRANCH   1  18
BRANCH  16  20
HETATM   20  C13 UNL     1      57.506   2.376   5.665  1.00  0.00     0.264 C
HETATM   21  O4  UNL     1      56.870   3.075   6.461  1.00  0.00    -0.273 OA
HETATM   22 CL3  UNL     1      59.276   2.570   5.773  1.00  0.00    -0.037 Cl
ENDBRANCH  16  20
TORSDOF 2
ENDMDL