MODEL 3
REMARK VINA RESULT: -5.711683154      2.885      3.511
REMARK  2 active torsions:
REMARK  status: ('A' for Active; 'I' for Inactive)
REMARK    1  A    between atoms: O1_1  and  C1_3
REMARK    2  A    between atoms: C1_3  and  C2_4
ROOT
HETATM    1  C1  UNL     1      57.067   0.922   4.507  1.00  0.00     0.230 C
HETATM    2  N1  UNL     1      57.867  -0.243   4.514  1.00  0.00    -0.335 N
ATOM      3  H1  UNL     1      58.715  -0.287   5.080  1.00  0.00     0.164 HD
HETATM    4  C3  UNL     1      57.477  -1.326   3.738  1.00  0.00     0.142 C
HETATM    5  S1  UNL     1      58.245  -2.644   3.210  1.00  0.00    -0.052 SA
HETATM    6  S2  UNL     1      55.736  -0.990   3.351  1.00  0.00    -0.058 SA
HETATM    7  C4  UNL     1      55.854   0.752   3.739  1.00  0.00     0.070 C
HETATM    8  C5  UNL     1      54.986   1.645   3.367  1.00  0.00     0.075 C
HETATM    9 BR1  UNL     1      55.274   3.475   3.862  1.00  0.00    -0.042 Br
HETATM   10 BR2  UNL     1      53.450   1.176   2.351  1.00  0.00    -0.042 Br
ENDROOT
BRANCH   1  11
HETATM   11  O1  UNL     1      57.801   2.052   4.078  1.00  0.00    -0.362 OA
ATOM     12  H1  UNL     1      58.246   1.781   3.283  1.00  0.00     0.213 HD
ENDBRANCH   1  11
BRANCH   1  13
HETATM   13  C2  UNL     1      56.707   1.198   5.978  1.00  0.00     0.413 C
HETATM   14  F1  UNL     1      57.292   0.202   6.731  1.00  0.00    -0.209 F
HETATM   15  F2  UNL     1      57.389   2.385   6.283  1.00  0.00    -0.209 F
ENDBRANCH   1  13
TORSDOF 2
ENDMDL