MODEL 3
REMARK VINA RESULT: -6.870426096      1.053      1.517
REMARK  7 active torsions:
REMARK  status: ('A' for Active; 'I' for Inactive)
REMARK    1  A    between atoms: C2_2  and  N1_3
REMARK       I    between atoms: N1_3  and  C3_4
REMARK    2  A    between atoms: N3_6  and  O1_8
REMARK    3  A    between atoms: C4_10  and  C5_11
REMARK    4  A    between atoms: C5_11  and  O2_12
REMARK    5  A    between atoms: C5_11  and  C6_14
REMARK    6  A    between atoms: C6_14  and  N4_15
REMARK    7  A    between atoms: C8_20  and  N6_21
ROOT
HETATM    1  C1  UNL     1      24.927  -0.829  10.296  1.00  0.00     0.063 C
HETATM    2  C2  UNL     1      23.720  -1.513   9.577  1.00  0.00     0.179 C
HETATM    3  C4  UNL     1      22.644  -0.462   9.611  1.00  0.00     0.201 C
HETATM    4  O3  UNL     1      22.921   0.662   8.848  1.00  0.00    -0.355 OA
HETATM    5  C9  UNL     1      23.650   0.416   7.715  1.00  0.00     0.342 C
HETATM    6  O4  UNL     1      23.602  -0.880   7.273  1.00  0.00    -0.325 OA
HETATM    7  C10 UNL     1      24.249  -1.722   8.161  1.00  0.00     0.229 A
HETATM    8  C11 UNL     1      25.571  -2.151   7.861  1.00  0.00     0.244 A
HETATM    9  O5  UNL     1      24.381  -3.055   7.733  1.00  0.00    -0.345 OA
ENDROOT
BRANCH   3  10
HETATM   10  C5  UNL     1      21.249  -0.914   9.398  1.00  0.00     0.179 C
BRANCH  10  11
HETATM   11  O2  UNL     1      20.743  -0.778   8.126  1.00  0.00    -0.391 OA
ATOM     12  H2  UNL     1      21.363  -0.848   7.410  1.00  0.00     0.210 HD
ENDBRANCH  10  11
BRANCH  10  13
HETATM   13  C6  UNL     1      20.374  -0.033  10.305  1.00  0.00     0.314 C
BRANCH  13  14
HETATM   14  N4  UNL     1      19.681  -0.803  11.309  1.00  0.00     0.175 N
HETATM   15  C7  UNL     1      20.202  -2.117  11.523  1.00  0.00     0.512 A
HETATM   16  N5  UNL     1      20.674  -1.724  12.811  1.00  0.00     0.007 N
HETATM   17  C8  UNL     1      20.104  -0.420  12.625  1.00  0.00     0.618 A
ATOM     18  H52 UNL     1      20.428  -2.275  13.634  1.00  0.00     0.283 HD
ATOM     19  H51 UNL     1      21.663  -1.820  13.042  1.00  0.00     0.283 HD
BRANCH  17  20
HETATM   20  N6  UNL     1      19.001  -0.117  13.529  1.00  0.00    -0.023 N
ATOM     21  H63 UNL     1      19.324  -0.095  14.497  1.00  0.00     0.279 HD
ATOM     22  H62 UNL     1      18.707   0.854  13.426  1.00  0.00     0.279 HD
ATOM     23  H61 UNL     1      18.206  -0.747  13.429  1.00  0.00     0.279 HD
ENDBRANCH  17  20
ENDBRANCH  13  14
ENDBRANCH  10  13
ENDBRANCH   3  10
BRANCH   2  24
HETATM   24  N1  UNL     1      23.441  -2.642  10.273  1.00  0.00    -0.397 NA
HETATM   25  C3  UNL     1      23.157  -3.791  10.980  1.00  0.00     0.282 C
HETATM   26  N2  UNL     1      22.388  -4.845  10.395  1.00  0.00    -0.048 NA
HETATM   27  N3  UNL     1      23.569  -3.971  12.177  1.00  0.00    -0.230 N
ATOM     28  H3  UNL     1      24.128  -3.251  12.636  1.00  0.00     0.198 HD
BRANCH  27  29
HETATM   29  O1  UNL     1      23.266  -5.123  12.844  1.00  0.00    -0.287 OA
ATOM     30  H1  UNL     1      23.695  -5.327  13.667  1.00  0.00     0.244 HD
ENDBRANCH  27  29
ENDBRANCH   2  24
TORSDOF 7
ENDMDL