MODEL 1
REMARK VINA RESULT: -8.122170040      0.000      0.000
REMARK  8 active torsions:
REMARK  status: ('A' for Active; 'I' for Inactive)
REMARK    1  A    between atoms: N1_1  and  N2_4
REMARK       I    between atoms: N2_4  and  C1_6
REMARK    2  A    between atoms: C1_6  and  O2_8
REMARK    3  A    between atoms: O2_8  and  N3_9
REMARK    4  A    between atoms: N3_9  and  C2_10
REMARK    5  A    between atoms: C2_10  and  C3_11
REMARK    6  A    between atoms: C3_11  and  C4_12
REMARK    7  A    between atoms: C4_12  and  N4_13
REMARK    8  A    between atoms: N4_13  and  C5_15
ROOT
HETATM    1  C5  UNL     1      21.181  -1.728  11.104  1.00  0.00     0.149 A
HETATM    2  N5  UNL     1      20.868  -1.554  12.425  1.00  0.00    -0.335 N
ATOM      3  H5  UNL     1      21.463  -1.953  13.150  1.00  0.00     0.168 HD
HETATM    4  C6  UNL     1      19.775  -0.856  12.758  1.00  0.00     0.199 A
HETATM    5  N6  UNL     1      18.963  -0.314  11.827  1.00  0.00    -0.286 N
ATOM      6  H6  UNL     1      18.134   0.214  12.096  1.00  0.00     0.188 HD
HETATM    7  N7  UNL     1      19.276  -0.489  10.552  1.00  0.00    -0.217 N
HETATM    8  C7  UNL     1      18.670  -0.074   9.404  1.00  0.00     0.151 A
HETATM    9  C8  UNL     1      19.376  -0.505   8.305  1.00  0.00     0.083 A
HETATM   10  N8  UNL     1      20.413  -1.184   8.795  1.00  0.00    -0.337 N
ATOM     11  H8  UNL     1      21.135  -1.637   8.235  1.00  0.00     0.167 HD
HETATM   12  C9  UNL     1      20.365  -1.183  10.142  1.00  0.00     0.173 A
HETATM   13  C10 UNL     1      18.854  -0.139   6.967  1.00  0.00     0.295 C
HETATM   14  N9  UNL     1      17.433  -0.290   6.972  1.00  0.00    -0.054 N
ATOM     15  H91 UNL     1      17.182  -1.274   7.064  1.00  0.00     0.279 HD
ATOM     16  H92 UNL     1      17.052  -0.097   6.046  1.00  0.00     0.279 HD
HETATM   17  C11 UNL     1      16.756   0.488   7.957  1.00  0.00     0.356 C
HETATM   18  N10 UNL     1      17.495   0.688   9.162  1.00  0.00    -0.350 N
ATOM     19  H10 UNL     1      17.181   1.376   9.847  1.00  0.00     0.162 HD
ENDROOT
BRANCH   1  20
HETATM   20  N4  UNL     1      22.217  -2.390  10.807  1.00  0.00    -0.373 N
ATOM     21  H4  UNL     1      22.950  -1.909  10.287  1.00  0.00     0.161 HD
BRANCH  20  22
HETATM   22  C4  UNL     1      22.437  -3.754  11.141  1.00  0.00     0.122 C
BRANCH  22  23
HETATM   23  C3  UNL     1      23.928  -4.003  11.424  1.00  0.00     0.038 C
BRANCH  23  24
HETATM   24  C2  UNL     1      24.657  -2.770  10.919  1.00  0.00     0.145 C
BRANCH  24  25
HETATM   25  N3  UNL     1      25.370  -3.036   9.690  1.00  0.00    -0.090 NA
BRANCH  25  26
HETATM   26  O2  UNL     1      24.512  -2.835   8.648  1.00  0.00    -0.188 OA
BRANCH  26  27
HETATM   27  C1  UNL     1      24.388  -1.633   7.998  1.00  0.00     0.397 C
HETATM   28  N2  UNL     1      25.448  -1.126   7.212  1.00  0.00    -0.251 N
ATOM     29  H2  UNL     1      26.307  -1.671   7.135  1.00  0.00     0.191 HD
HETATM   30  O1  UNL     1      23.300  -1.014   8.138  1.00  0.00    -0.235 OA
BRANCH  28  31
HETATM   31  N1  UNL     1      25.359   0.094   6.536  1.00  0.00    -0.341 N
ATOM     32  H12 UNL     1      25.593   0.942   7.053  1.00  0.00     0.177 HD
ATOM     33  H11 UNL     1      25.073   0.157   5.560  1.00  0.00     0.177 HD
ENDBRANCH  28  31
ENDBRANCH  26  27
ENDBRANCH  25  26
ENDBRANCH  24  25
ENDBRANCH  23  24
ENDBRANCH  22  23
ENDBRANCH  20  22
ENDBRANCH   1  20
TORSDOF 8
ENDMDL