MODEL 5
REMARK VINA RESULT: -8.171642779      1.618      2.186
REMARK  7 active torsions:
REMARK  status: ('A' for Active; 'I' for Inactive)
REMARK    1  A    between atoms: C2_2  and  C3_3
REMARK    2  A    between atoms: C3_3  and  N1_4
REMARK    3  A    between atoms: N5_10  and  N6_12
REMARK    4  A    between atoms: N6_12  and  C4_14
REMARK    5  A    between atoms: C4_14  and  C5_18
REMARK       I    between atoms: C5_18  and  N8_20
REMARK    6  A    between atoms: N8_20  and  C6_22
REMARK    7  A    between atoms: C9_31  and  N12_32
ROOT
HETATM    1  C4  UNL     1      19.407  -1.126   9.834  1.00  0.00     0.183 C
HETATM    2  N7  UNL     1      19.399  -1.437  11.080  1.00  0.00    -0.380 N
ATOM      3  H71 UNL     1      20.278  -1.401  11.596  1.00  0.00     0.158 HD
ATOM      4  H72 UNL     1      18.536  -1.712  11.548  1.00  0.00     0.158 HD
ENDROOT
BRANCH   1   5
HETATM    5  N6  UNL     1      18.186  -1.175   9.116  1.00  0.00    -0.281 N
ATOM      6  H6  UNL     1      17.945  -2.010   8.583  1.00  0.00     0.188 HD
BRANCH   5   7
HETATM    7  N5  UNL     1      17.312  -0.090   9.133  1.00  0.00    -0.306 N
HETATM    8  C2  UNL     1      16.920   0.525   8.089  1.00  0.00     0.021 C
HETATM    9  C1  UNL     1      17.386   0.111   6.753  1.00  0.00     0.066 C
ATOM     10  H5  UNL     1      16.964   0.230  10.037  1.00  0.00     0.186 HD
BRANCH   8  11
HETATM   11  C3  UNL     1      15.991   1.664   8.213  1.00  0.00     0.225 C
BRANCH  11  12
HETATM   12  N1  UNL     1      16.704   2.737   8.885  1.00  0.00    -0.203 N
HETATM   13  N2  UNL     1      16.383   3.698   9.722  1.00  0.00    -0.207 N
HETATM   14  N3  UNL     1      17.647   4.142   9.764  1.00  0.00     0.012 NA
ATOM     15  H2  UNL     1      15.513   3.991  10.166  1.00  0.00     0.207 HD
HETATM   16  N4  UNL     1      17.951   3.168   8.921  1.00  0.00    -0.207 N
ATOM     17  H4  UNL     1      18.815   2.867   8.472  1.00  0.00     0.207 HD
ENDBRANCH  11  12
ENDBRANCH   8  11
ENDBRANCH   5   7
ENDBRANCH   1   5
BRANCH   1  18
HETATM   18  C5  UNL     1      20.648  -0.729   9.159  1.00  0.00     0.292 C
HETATM   19  O1  UNL     1      20.640  -0.565   7.924  1.00  0.00    -0.264 OA
HETATM   20  N8  UNL     1      21.857  -0.525   9.862  1.00  0.00    -0.304 N
ATOM     21  H8  UNL     1      22.135   0.412  10.155  1.00  0.00     0.171 HD
BRANCH  20  22
HETATM   22  C6  UNL     1      22.598  -1.538  10.125  1.00  0.00     0.142 A
HETATM   23  N9  UNL     1      22.260  -2.389  11.108  1.00  0.00    -0.292 N
HETATM   24  C7  UNL     1      23.074  -3.433  11.338  1.00  0.00     0.327 A
ATOM     25  H9  UNL     1      21.415  -2.248  11.660  1.00  0.00     0.172 HD
HETATM   26  O2  UNL     1      22.773  -4.244  12.257  1.00  0.00    -0.247 OA
HETATM   27  N10 UNL     1      24.200  -3.661  10.637  1.00  0.00    -0.295 N
HETATM   28  C8  UNL     1      24.572  -2.827   9.642  1.00  0.00     0.150 A
ATOM     29  H10 UNL     1      24.777  -4.471  10.860  1.00  0.00     0.172 HD
HETATM   30  N11 UNL     1      25.751  -3.021   8.870  1.00  0.00    -0.080 NA
HETATM   31  C9  UNL     1      23.764  -1.744   9.373  1.00  0.00     0.116 A
BRANCH  31  32
HETATM   32  N12 UNL     1      24.132  -0.865   8.345  1.00  0.00    -0.384 N
HETATM   33  C10 UNL     1      24.363   0.550   8.661  1.00  0.00     0.149 C
HETATM   34  C11 UNL     1      24.309  -1.246   6.958  1.00  0.00     0.149 C
ENDBRANCH  31  32
ENDBRANCH  20  22
ENDBRANCH   1  18
TORSDOF 7
ENDMDL