MODEL 3
REMARK VINA RESULT: -8.552550852      1.137      1.248
REMARK  8 active torsions:
REMARK  status: ('A' for Active; 'I' for Inactive)
REMARK    1  A    between atoms: N1_1  and  C1_4
REMARK    2  A    between atoms: N4_12  and  C5_13
REMARK    3  A    between atoms: C5_13  and  C6_14
REMARK    4  A    between atoms: C6_14  and  N6_16
REMARK    5  A    between atoms: N6_16  and  O1_18
REMARK    6  A    between atoms: C7_20  and  N7_21
REMARK    7  A    between atoms: N8_24  and  C10_25
REMARK    8  A    between atoms: C10_25  and  O2_26
ROOT
HETATM    1  C1  UNL     1      20.351  -0.900  12.192  1.00  0.00     0.679 A
HETATM    2  N2  UNL     1      21.566  -0.995  11.626  1.00  0.00    -0.174 N
ATOM      3  H2  UNL     1      22.358  -1.324  12.178  1.00  0.00     0.186 HD
HETATM    4  C2  UNL     1      21.749  -0.657  10.329  1.00  0.00     0.155 A
HETATM    5  C3  UNL     1      20.689  -0.206   9.554  1.00  0.00     0.125 A
HETATM    6  N3  UNL     1      21.192   0.036   8.353  1.00  0.00    -0.346 N
ATOM      7  H3  UNL     1      20.671   0.381   7.546  1.00  0.00     0.167 HD
HETATM    8  C4  UNL     1      22.508  -0.250   8.376  1.00  0.00     0.185 A
HETATM    9  N4  UNL     1      22.872  -0.681   9.591  1.00  0.00    -0.320 N
HETATM   10  C7  UNL     1      19.455  -0.114  10.137  1.00  0.00     0.168 A
HETATM   11  N11 UNL     1      19.343  -0.465  11.431  1.00  0.00    -0.173 N
ATOM     12  H11 UNL     1      18.421  -0.394  11.862  1.00  0.00     0.186 HD
ENDROOT
BRANCH  10  13
HETATM   13  N7  UNL     1      18.302   0.343   9.408  1.00  0.00    -0.270 N
HETATM   14  C8  UNL     1      17.578  -0.572   8.555  1.00  0.00     0.171 C
HETATM   15  C9  UNL     1      16.385   0.083   7.876  1.00  0.00     0.149 C
HETATM   16  N8  UNL     1      16.575   1.496   7.638  1.00  0.00    -0.332 N
HETATM   17  C11 UNL     1      17.080   2.273   8.725  1.00  0.00     0.207 C
HETATM   18  N9  UNL     1      16.676   3.622   8.853  1.00  0.00    -0.062 NA
HETATM   19  N10 UNL     1      17.891   1.691   9.536  1.00  0.00    -0.270 N
ATOM     20  H10 UNL     1      18.259   2.233  10.318  1.00  0.00     0.190 HD
BRANCH  16  21
HETATM   21  C10 UNL     1      16.266   2.119   6.349  1.00  0.00     0.292 C
BRANCH  21  22
HETATM   22  O2  UNL     1      16.704   1.187   5.381  1.00  0.00    -0.382 OA
ATOM     23  H2  UNL     1      16.220   1.407   4.593  1.00  0.00     0.211 HD
ENDBRANCH  21  22
ENDBRANCH  16  21
ENDBRANCH  10  13
BRANCH   1  24
HETATM   24  N1  UNL     1      20.187  -1.228  13.439  1.00  0.00    -0.234 N
ATOM     25  H12 UNL     1      19.511  -0.759  14.042  1.00  0.00     0.174 HD
ATOM     26  H11 UNL     1      20.744  -1.980  13.847  1.00  0.00     0.174 HD
ENDBRANCH   1  24
BRANCH   9  27
HETATM   27  C5  UNL     1      24.191  -1.099  10.067  1.00  0.00     0.206 C
BRANCH  27  28
HETATM   28  C6  UNL     1      24.547  -2.448   9.576  1.00  0.00     0.131 C
HETATM   29  N5  UNL     1      24.165  -3.581  10.336  1.00  0.00    -0.084 NA
BRANCH  28  30
HETATM   30  N6  UNL     1      25.183  -2.603   8.493  1.00  0.00    -0.258 N
ATOM     31  H6  UNL     1      26.198  -2.508   8.529  1.00  0.00     0.195 HD
BRANCH  30  32
HETATM   32  O1  UNL     1      24.623  -2.886   7.283  1.00  0.00    -0.289 OA
ATOM     33  H1  UNL     1      24.640  -3.734   6.854  1.00  0.00     0.244 HD
ENDBRANCH  30  32
ENDBRANCH  28  30
ENDBRANCH  27  28
ENDBRANCH   9  27
TORSDOF 8
ENDMDL