MODEL 1
REMARK VINA RESULT: -8.072589267      0.000      0.000
REMARK  9 active torsions:
REMARK  status: ('A' for Active; 'I' for Inactive)
REMARK    1  A    between atoms: C2_2  and  C3_3
REMARK    2  A    between atoms: C2_2  and  N9_29
REMARK    3  A    between atoms: C3_3  and  C4_5
REMARK    4  A    between atoms: C4_5  and  N1_6
REMARK    5  A    between atoms: N1_6  and  N2_8
REMARK       I    between atoms: N2_8  and  C5_10
REMARK    6  A    between atoms: C5_10  and  C6_12
REMARK    7  A    between atoms: C8_17  and  N5_18
REMARK    8  A    between atoms: N5_18  and  N6_20
REMARK    9  A    between atoms: C9_25  and  N8_26
ROOT
HETATM    1  N2  UNL     1      19.383  -0.940  10.283  1.00  0.00    -0.266 N
ATOM      2  H2  UNL     1      18.735  -1.676  10.000  1.00  0.00     0.190 HD
HETATM    3  C5  UNL     1      19.299   0.310   9.676  1.00  0.00     0.277 C
HETATM    4  O2  UNL     1      20.165   1.164  10.108  1.00  0.00    -0.266 OA
ENDROOT
BRANCH   3   5
HETATM    5  C6  UNL     1      18.381   0.726   8.653  1.00  0.00     0.119 A
HETATM    6  C7  UNL     1      18.309  -0.069   7.488  1.00  0.00     0.151 A
HETATM    7  N3  UNL     1      19.136  -1.219   7.395  1.00  0.00    -0.081 NA
HETATM    8  N4  UNL     1      17.464   0.298   6.527  1.00  0.00    -0.176 N
HETATM    9  C8  UNL     1      16.670   1.377   6.585  1.00  0.00     0.699 A
ATOM     10  H4  UNL     1      17.417  -0.281   5.689  1.00  0.00     0.185 HD
HETATM   11  N7  UNL     1      16.710   2.146   7.661  1.00  0.00    -0.175 N
HETATM   12  C9  UNL     1      17.554   1.832   8.691  1.00  0.00     0.134 A
ATOM     13  H7  UNL     1      16.113   2.971   7.723  1.00  0.00     0.186 HD
BRANCH   9  14
HETATM   14  N5  UNL     1      15.870   1.672   5.606  1.00  0.00    -0.138 N
ATOM     15  H5  UNL     1      14.934   1.270   5.562  1.00  0.00     0.205 HD
BRANCH  14  16
HETATM   16  N6  UNL     1      16.311   2.552   4.612  1.00  0.00    -0.331 N
ATOM     17  H62 UNL     1      17.220   3.005   4.709  1.00  0.00     0.177 HD
ATOM     18  H61 UNL     1      15.713   2.724   3.804  1.00  0.00     0.177 HD
ENDBRANCH  14  16
ENDBRANCH   9  14
BRANCH  12  19
HETATM   19  N8  UNL     1      17.570   2.601   9.727  1.00  0.00    -0.384 N
ATOM     20  H82 UNL     1      18.451   3.043   9.988  1.00  0.00     0.157 HD
ATOM     21  H81 UNL     1      16.711   2.749  10.256  1.00  0.00     0.157 HD
ENDBRANCH  12  19
ENDBRANCH   3   5
BRANCH   1  22
HETATM   22  N1  UNL     1      20.352  -1.217  11.292  1.00  0.00    -0.305 N
ATOM     23  H1  UNL     1      20.282  -0.735  12.188  1.00  0.00     0.186 HD
BRANCH  22  24
HETATM   24  C4  UNL     1      21.295  -2.041  11.113  1.00  0.00     0.159 C
BRANCH  24  25
HETATM   25  C3  UNL     1      22.182  -1.882   9.978  1.00  0.00     0.190 C
HETATM   26  O1  UNL     1      21.759  -2.133   8.803  1.00  0.00    -0.289 OA
BRANCH  25  27
HETATM   27  C2  UNL     1      23.590  -1.428  10.183  1.00  0.00     0.180 C
HETATM   28  C1  UNL     1      24.396  -2.590  10.673  1.00  0.00     0.043 C
BRANCH  27  29
HETATM   29  N9  UNL     1      24.116  -0.906   8.922  1.00  0.00    -0.275 N
HETATM   30  C10 UNL     1      24.119   0.365   8.498  1.00  0.00     0.202 A
HETATM   31  N10 UNL     1      24.703   0.391   7.280  1.00  0.00    -0.346 N
HETATM   32  C11 UNL     1      25.052  -0.857   6.966  1.00  0.00     0.198 A
ATOM     33  H10 UNL     1      24.850   1.219   6.702  1.00  0.00     0.167 HD
HETATM   34  N11 UNL     1      24.680  -1.636   7.994  1.00  0.00    -0.292 N
ATOM     35  H11 UNL     1      24.815  -2.646   8.044  1.00  0.00     0.188 HD
ENDBRANCH  27  29
ENDBRANCH  25  27
ENDBRANCH  24  25
ENDBRANCH  22  24
ENDBRANCH   1  22
TORSDOF 9
ENDMDL