MODEL 4
REMARK VINA RESULT: -7.960723743      1.544      2.537
REMARK  9 active torsions:
REMARK  status: ('A' for Active; 'I' for Inactive)
REMARK       I    between atoms: C1_4  and  N3_6
REMARK    1  A    between atoms: N3_6  and  N4_8
REMARK    2  A    between atoms: N4_8  and  C2_10
REMARK    3  A    between atoms: N6_16  and  O1_17
REMARK    4  A    between atoms: O1_17  and  C6_18
REMARK    5  A    between atoms: C6_18  and  N8_22
REMARK    6  A    between atoms: N8_22  and  C7_24
REMARK    7  A    between atoms: C7_24  and  C8_25
REMARK    8  A    between atoms: C8_25  and  N9_26
REMARK    9  A    between atoms: N10_32  and  O2_33
ROOT
HETATM    1  C2  UNL     1      23.505  -1.243  10.079  1.00  0.00     0.181 A
HETATM    2  C3  UNL     1      24.235  -1.280   8.865  1.00  0.00     0.144 A
HETATM    3  C4  UNL     1      23.876  -0.317   7.960  1.00  0.00     0.109 A
HETATM    4  N5  UNL     1      22.916   0.620   8.148  1.00  0.00    -0.343 N
ATOM      5  H5  UNL     1      22.711   1.305   7.421  1.00  0.00     0.167 HD
HETATM    6  C5  UNL     1      22.239   0.631   9.308  1.00  0.00     0.217 A
HETATM    7  N6  UNL     1      22.537  -0.264  10.208  1.00  0.00    -0.188 N
HETATM    8  S1  UNL     1      24.916  -0.628   6.642  1.00  0.00    -0.062 SA
HETATM    9  C9  UNL     1      25.747  -1.955   7.301  1.00  0.00     0.175 A
HETATM   10  N10 UNL     1      25.190  -2.106   8.512  1.00  0.00    -0.223 N
ENDROOT
BRANCH   7  11
HETATM   11  O1  UNL     1      21.823  -0.240  11.415  1.00  0.00    -0.192 OA
BRANCH  11  12
HETATM   12  C6  UNL     1      20.644  -0.977  11.547  1.00  0.00     0.237 C
HETATM   13  N7  UNL     1      20.414  -1.493  12.701  1.00  0.00    -0.364 N
ATOM     14  H72 UNL     1      21.074  -1.358  13.467  1.00  0.00     0.159 HD
ATOM     15  H71 UNL     1      19.553  -2.031  12.797  1.00  0.00     0.159 HD
BRANCH  12  16
HETATM   16  N8  UNL     1      19.727  -1.164  10.482  1.00  0.00    -0.353 N
ATOM     17  H8  UNL     1      19.675  -2.046   9.972  1.00  0.00     0.163 HD
BRANCH  16  18
HETATM   18  C7  UNL     1      18.865  -0.046  10.150  1.00  0.00     0.150 C
BRANCH  18  19
HETATM   19  C8  UNL     1      18.213  -0.264   8.779  1.00  0.00     0.249 C
BRANCH  19  20
HETATM   20  N9  UNL     1      19.225  -0.642   7.832  1.00  0.00    -0.078 N
ATOM     21  H93 UNL     1      20.151  -0.307   8.100  1.00  0.00     0.274 HD
ATOM     22  H92 UNL     1      19.423  -1.642   7.855  1.00  0.00     0.274 HD
ATOM     23  H91 UNL     1      18.950  -0.321   6.904  1.00  0.00     0.274 HD
ENDBRANCH  19  20
ENDBRANCH  18  19
ENDBRANCH  16  18
ENDBRANCH  12  16
ENDBRANCH  11  12
ENDBRANCH   7  11
BRANCH   1  24
HETATM   24  N4  UNL     1      23.625  -1.979  11.036  1.00  0.00    -0.279 N
ATOM     25  H4  UNL     1      23.293  -1.420  11.822  1.00  0.00     0.189 HD
BRANCH  24  26
HETATM   26  N3  UNL     1      23.957  -3.107  11.573  1.00  0.00    -0.272 N
HETATM   27  C1  UNL     1      23.075  -4.239  11.714  1.00  0.00     0.200 C
HETATM   28  N1  UNL     1      22.422  -4.650  10.697  1.00  0.00    -0.372 N
HETATM   29  N2  UNL     1      22.967  -4.851  12.975  1.00  0.00    -0.062 NA
ATOM     30  H12 UNL     1      21.798  -5.451  10.797  1.00  0.00     0.158 HD
ATOM     31  H11 UNL     1      22.501  -4.207   9.782  1.00  0.00     0.158 HD
ATOM     32  H3  UNL     1      24.911  -3.203  11.921  1.00  0.00     0.189 HD
ENDBRANCH  24  26
ENDBRANCH   1  24
BRANCH  10  33
HETATM   33  O2  UNL     1      25.725  -3.172   9.271  1.00  0.00    -0.282 OA
ATOM     34  H2  UNL     1      26.508  -3.676   9.084  1.00  0.00     0.245 HD
ENDBRANCH  10  33
TORSDOF 9
ENDMDL