MODEL 3
REMARK VINA RESULT: -8.000536262      2.561      3.747
REMARK  9 active torsions:
REMARK  status: ('A' for Active; 'I' for Inactive)
REMARK    1  A    between atoms: N1_1  and  C1_4
REMARK    2  A    between atoms: C4_13  and  N5_14
REMARK    3  A    between atoms: N5_14  and  C5_16
REMARK    4  A    between atoms: C5_16  and  N6_17
REMARK    5  A    between atoms: C5_16  and  C6_21
REMARK    6  A    between atoms: C6_21  and  C7_22
REMARK       I    between atoms: C7_22  and  N7_24
REMARK    7  A    between atoms: N7_24  and  N8_25
REMARK    8  A    between atoms: N7_24  and  N9_28
REMARK    9  A    between atoms: C8_33  and  N11_34
ROOT
HETATM    1  C1  UNL     1      25.179  -2.065   8.196  1.00  0.00     0.117 A
HETATM    2  N2  UNL     1      25.795  -1.347   7.208  1.00  0.00    -0.338 N
ATOM      3  H2  UNL     1      26.674  -1.709   6.839  1.00  0.00     0.168 HD
HETATM    4  C2  UNL     1      25.336  -0.230   6.702  1.00  0.00     0.183 A
HETATM    5  N3  UNL     1      24.189   0.290   7.151  1.00  0.00    -0.337 N
ATOM      6  H3  UNL     1      23.826   1.163   6.769  1.00  0.00     0.168 HD
HETATM    7  C3  UNL     1      23.521  -0.371   8.126  1.00  0.00     0.140 A
HETATM    8  N4  UNL     1      22.430   0.190   8.617  1.00  0.00    -0.175 N
ATOM      9  H4  UNL     1      22.108   1.064   8.201  1.00  0.00     0.186 HD
HETATM   10  C4  UNL     1      21.700  -0.342   9.665  1.00  0.00     0.683 A
HETATM   11  N10 UNL     1      22.193  -1.460  10.108  1.00  0.00    -0.170 N
ATOM     12  H10 UNL     1      21.681  -1.883  10.881  1.00  0.00     0.186 HD
HETATM   13  C8  UNL     1      23.289  -2.152   9.696  1.00  0.00     0.206 A
HETATM   14  C9  UNL     1      23.971  -1.564   8.673  1.00  0.00     0.103 A
ENDROOT
BRANCH  10  15
HETATM   15  N5  UNL     1      20.699   0.257  10.108  1.00  0.00    -0.196 N
ATOM     16  H5  UNL     1      20.988   1.145  10.519  1.00  0.00     0.180 HD
BRANCH  15  17
HETATM   17  C5  UNL     1      19.346   0.124  10.227  1.00  0.00     0.306 C
BRANCH  17  18
HETATM   18  N6  UNL     1      18.906  -0.308  11.536  1.00  0.00    -0.057 N
ATOM     19  H63 UNL     1      17.996  -0.765  11.474  1.00  0.00     0.276 HD
ATOM     20  H62 UNL     1      19.471  -1.092  11.862  1.00  0.00     0.276 HD
ATOM     21  H61 UNL     1      18.886   0.434  12.236  1.00  0.00     0.276 HD
ENDBRANCH  17  18
BRANCH  17  22
HETATM   22  C6  UNL     1      18.833  -1.022   9.306  1.00  0.00     0.161 C
BRANCH  22  23
HETATM   23  C7  UNL     1      18.675  -0.487   7.921  1.00  0.00     0.260 C
HETATM   24  O1  UNL     1      19.691  -0.550   7.127  1.00  0.00    -0.270 OA
HETATM   25  N7  UNL     1      17.453   0.044   7.514  1.00  0.00    -0.174 N
BRANCH  25  26
HETATM   26  N8  UNL     1      17.114   0.449   6.224  1.00  0.00    -0.322 N
ATOM     27  H82 UNL     1      17.892   0.832   5.685  1.00  0.00     0.179 HD
ATOM     28  H81 UNL     1      16.188   0.402   5.797  1.00  0.00     0.179 HD
ENDBRANCH  25  26
BRANCH  25  29
HETATM   29  N9  UNL     1      16.391   0.202   8.486  1.00  0.00    -0.322 N
ATOM     30  H92 UNL     1      15.627  -0.465   8.386  1.00  0.00     0.179 HD
ATOM     31  H91 UNL     1      16.468   0.935   9.193  1.00  0.00     0.179 HD
ENDBRANCH  25  29
ENDBRANCH  22  23
ENDBRANCH  17  22
ENDBRANCH  15  17
ENDBRANCH  10  15
BRANCH  13  32
HETATM   32  N11 UNL     1      23.567  -3.396  10.373  1.00  0.00    -0.096 N
HETATM   33  O2  UNL     1      22.890  -4.405  10.082  1.00  0.00    -0.530 OA
HETATM   34  O3  UNL     1      24.508  -3.618  11.331  1.00  0.00    -0.530 OA
ENDBRANCH  13  32
BRANCH   1  35
HETATM   35  N1  UNL     1      25.766  -2.960   8.770  1.00  0.00    -0.385 N
ATOM     36  H12 UNL     1      25.546  -3.940   8.595  1.00  0.00     0.157 HD
ATOM     37  H11 UNL     1      26.360  -2.760   9.575  1.00  0.00     0.157 HD
ENDBRANCH   1  35
TORSDOF 9
ENDMDL