MODEL 5
REMARK VINA RESULT: -6.564023553      2.512      3.715
REMARK  6 active torsions:
REMARK  status: ('A' for Active; 'I' for Inactive)
REMARK    1  A    between atoms: C3_3  and  C4_4
REMARK    2  A    between atoms: C5_7  and  O2_8
REMARK    3  A    between atoms: C5_7  and  C6_10
REMARK    4  A    between atoms: N3_12  and  O3_14
REMARK    5  A    between atoms: O3_14  and  C7_15
REMARK    6  A    between atoms: C7_15  and  C8_17
ROOT
HETATM    1  C1  UNL     1      25.936  -3.441   8.021  1.00  0.00     0.069 C
HETATM    2  C2  UNL     1      25.138  -2.178   8.282  1.00  0.00     0.024 C
HETATM    3  C3  UNL     1      24.493  -2.030   9.397  1.00  0.00     0.091 C
HETATM    4  C5  UNL     1      23.661  -0.809   9.620  1.00  0.00     0.229 C
HETATM    5  N6  UNL     1      23.876   0.179   8.642  1.00  0.00    -0.323 N
ATOM      6  H6  UNL     1      23.499   1.113   8.802  1.00  0.00     0.166 HD
HETATM    7  C11 UNL     1      24.590  -0.061   7.447  1.00  0.00     0.191 C
HETATM    8  N7  UNL     1      24.604   0.995   6.456  1.00  0.00    -0.063 NA
HETATM    9  N8  UNL     1      25.196  -1.160   7.249  1.00  0.00    -0.334 N
ATOM     10  H8  UNL     1      25.712  -1.323   6.384  1.00  0.00     0.168 HD
ENDROOT
BRANCH   4  11
HETATM   11  O2  UNL     1      24.067  -0.224  10.859  1.00  0.00    -0.361 OA
ATOM     12  H2  UNL     1      23.961   0.717  10.784  1.00  0.00     0.213 HD
ENDBRANCH   4  11
BRANCH   4  13
HETATM   13  C6  UNL     1      22.230  -1.165   9.790  1.00  0.00     0.174 C
HETATM   14  N2  UNL     1      21.428  -1.392   8.661  1.00  0.00    -0.080 NA
HETATM   15  N3  UNL     1      21.732  -1.263  10.955  1.00  0.00    -0.242 N
ATOM     16  H3  UNL     1      22.368  -1.085  11.733  1.00  0.00     0.196 HD
BRANCH  15  17
HETATM   17  O3  UNL     1      20.461  -1.575  11.286  1.00  0.00    -0.192 OA
BRANCH  17  18
HETATM   18  C7  UNL     1      19.434  -0.649  11.393  1.00  0.00     0.333 C
HETATM   19  O4  UNL     1      19.070  -0.256  12.531  1.00  0.00    -0.256 OA
BRANCH  18  20
HETATM   20  C8  UNL     1      18.786  -0.138  10.203  1.00  0.00     0.126 A
HETATM   21  C9  UNL     1      18.648   1.174   9.809  1.00  0.00     0.124 A
HETATM   22  N4  UNL     1      17.984   1.241   8.643  1.00  0.00    -0.360 N
HETATM   23  C10 UNL     1      17.705  -0.025   8.304  1.00  0.00     0.180 A
ATOM     24  H4  UNL     1      17.742   2.084   8.122  1.00  0.00     0.166 HD
HETATM   25  N5  UNL     1      18.197  -0.869   9.260  1.00  0.00    -0.346 N
ATOM     26  H5  UNL     1      18.124  -1.886   9.252  1.00  0.00     0.167 HD
ENDBRANCH  18  20
ENDBRANCH  17  18
ENDBRANCH  15  17
ENDBRANCH   4  13
BRANCH   3  27
HETATM   27  C4  UNL     1      24.510  -3.055  10.445  1.00  0.00     0.268 C
HETATM   28  N1  UNL     1      23.646  -4.139  10.612  1.00  0.00    -0.057 NA
HETATM   29  O1  UNL     1      25.430  -2.977  11.350  1.00  0.00    -0.271 OA
ENDBRANCH   3  27
TORSDOF 6
ENDMDL