MODEL 2
REMARK VINA RESULT: -5.581020359      2.478      3.526
REMARK  8 active torsions:
REMARK  status: ('A' for Active; 'I' for Inactive)
REMARK    1  A    between atoms: N1_1  and  C1_4
REMARK    2  A    between atoms: C3_8  and  N3_9
REMARK    3  A    between atoms: N3_9  and  N4_10
REMARK    4  A    between atoms: N3_9  and  C4_13
REMARK    5  A    between atoms: C4_13  and  C5_14
REMARK    6  A    between atoms: C5_14  and  N5_15
REMARK    7  A    between atoms: C6_21  and  N7_22
REMARK    8  A    between atoms: N10_32  and  N11_33
ROOT
HETATM    1  C1  UNL     1      25.570  -2.186   8.164  1.00  0.00     0.171 A
HETATM    2  N2  UNL     1      24.605  -2.747   8.937  1.00  0.00    -0.332 N
ATOM      3  H2  UNL     1      24.781  -3.631   9.415  1.00  0.00     0.168 HD
HETATM    4  C2  UNL     1      23.432  -2.142   9.069  1.00  0.00     0.127 A
HETATM    5  C3  UNL     1      22.456  -2.723   9.843  1.00  0.00     0.168 A
HETATM    6  N6  UNL     1      21.263  -2.055   9.919  1.00  0.00    -0.173 N
ATOM      7  H6  UNL     1      20.506  -2.446  10.478  1.00  0.00     0.186 HD
HETATM    8  C6  UNL     1      21.072  -0.895   9.271  1.00  0.00     0.683 A
HETATM    9  N9  UNL     1      22.046  -0.348   8.523  1.00  0.00    -0.172 N
ATOM     10  H9  UNL     1      21.873   0.534   8.042  1.00  0.00     0.186 HD
HETATM   11  C11 UNL     1      23.240  -0.944   8.398  1.00  0.00     0.176 A
HETATM   12  N10 UNL     1      24.167  -0.356   7.625  1.00  0.00    -0.204 N
HETATM   13  C12 UNL     1      25.348  -0.984   7.506  1.00  0.00     0.311 A
HETATM   14  O1  UNL     1      26.267  -0.487   6.793  1.00  0.00    -0.262 OA
ENDROOT
BRANCH   5  15
HETATM   15  N3  UNL     1      22.622  -3.912  10.591  1.00  0.00    -0.279 N
BRANCH  15  16
HETATM   16  N4  UNL     1      21.888  -5.032  10.187  1.00  0.00    -0.341 N
ATOM     17  H42 UNL     1      21.404  -4.970   9.291  1.00  0.00     0.177 HD
ATOM     18  H41 UNL     1      21.883  -5.839  10.811  1.00  0.00     0.177 HD
ENDBRANCH  15  16
BRANCH  15  19
HETATM   19  C4  UNL     1      23.480  -4.073  11.736  1.00  0.00     0.177 C
BRANCH  19  20
HETATM   20  C5  UNL     1      23.060  -5.057  12.759  1.00  0.00     0.251 C
BRANCH  20  21
HETATM   21  N5  UNL     1      22.123  -4.405  13.650  1.00  0.00    -0.078 N
ATOM     22  H53 UNL     1      21.820  -5.009  14.414  1.00  0.00     0.274 HD
ATOM     23  H52 UNL     1      22.558  -3.676  14.216  1.00  0.00     0.274 HD
ATOM     24  H51 UNL     1      21.344  -4.056  13.089  1.00  0.00     0.274 HD
ENDBRANCH  20  21
ENDBRANCH  19  20
ENDBRANCH  15  19
ENDBRANCH   5  15
BRANCH   8  25
HETATM   25  N7  UNL     1      19.836  -0.208   9.354  1.00  0.00    -0.214 N
HETATM   26  C7  UNL     1      18.741  -0.532   8.431  1.00  0.00     0.160 C
HETATM   27  C8  UNL     1      17.537   0.248   8.861  1.00  0.00     0.134 C
HETATM   28  N8  UNL     1      17.810   1.653   8.874  1.00  0.00    -0.418 N
HETATM   29  C9  UNL     1      18.996   2.028   9.575  1.00  0.00     0.134 C
ATOM     30  H8  UNL     1      17.204   2.335   8.417  1.00  0.00     0.153 HD
HETATM   31  C10 UNL     1      19.578   0.833  10.328  1.00  0.00     0.160 C
ENDBRANCH   8  25
BRANCH   1  32
HETATM   32  N1  UNL     1      26.706  -2.766   8.033  1.00  0.00    -0.381 N
ATOM     33  H12 UNL     1      26.984  -3.469   8.718  1.00  0.00     0.157 HD
ATOM     34  H11 UNL     1      27.317  -2.523   7.254  1.00  0.00     0.157 HD
ENDBRANCH   1  32
BRANCH  12  35
HETATM   35  N11 UNL     1      23.991   0.848   6.944  1.00  0.00    -0.334 N
ATOM     36 2H11 UNL     1      23.511   1.608   7.426  1.00  0.00     0.177 HD
ATOM     37 1H11 UNL     1      24.310   1.032   5.992  1.00  0.00     0.177 HD
ENDBRANCH  12  35
TORSDOF 8
ENDMDL