MODEL 2
REMARK VINA RESULT: -8.550123539      1.528      1.787
REMARK  6 active torsions:
REMARK  status: ('A' for Active; 'I' for Inactive)
REMARK    1  A    between atoms: C2_2  and  N1_4
REMARK    2  A    between atoms: C2_2  and  C4_8
REMARK       I    between atoms: C4_8  and  N2_10
REMARK    3  A    between atoms: N2_10  and  C5_12
REMARK    4  A    between atoms: C5_12  and  C6_13
REMARK    5  A    between atoms: C5_12  and  C7_20
REMARK       I    between atoms: C6_13  and  N3_15
REMARK    6  A    between atoms: N3_15  and  N4_17
ROOT
HETATM    1  C5  UNL     1      23.698  -2.293  10.397  1.00  0.00     0.248 C
ENDROOT
BRANCH   1   2
HETATM    2  N2  UNL     1      24.388  -2.371   9.133  1.00  0.00    -0.339 N
HETATM    3  C4  UNL     1      24.818  -1.224   8.429  1.00  0.00     0.254 C
HETATM    4  O1  UNL     1      24.588  -0.102   8.929  1.00  0.00    -0.271 OA
ATOM      5  H2  UNL     1      24.572  -3.290   8.731  1.00  0.00     0.163 HD
BRANCH   3   6
HETATM    6  C2  UNL     1      25.521  -1.323   7.137  1.00  0.00     0.196 C
HETATM    7  C1  UNL     1      26.922  -1.876   7.287  1.00  0.00     0.056 C
HETATM    8  C3  UNL     1      24.761  -2.251   6.205  1.00  0.00     0.056 C
BRANCH   6   9
HETATM    9  N1  UNL     1      25.653   0.002   6.542  1.00  0.00    -0.062 N
ATOM     10  H13 UNL     1      26.618   0.331   6.503  1.00  0.00     0.275 HD
ATOM     11  H12 UNL     1      25.473   0.012   5.538  1.00  0.00     0.275 HD
ATOM     12  H11 UNL     1      25.037   0.623   7.067  1.00  0.00     0.275 HD
ENDBRANCH   6   9
ENDBRANCH   3   6
ENDBRANCH   1   2
BRANCH   1  13
HETATM   13  C6  UNL     1      23.452  -3.678  10.876  1.00  0.00     0.266 C
HETATM   14  O2  UNL     1      22.770  -4.502  10.193  1.00  0.00    -0.269 OA
HETATM   15  N3  UNL     1      23.957  -4.160  12.111  1.00  0.00    -0.275 N
ATOM     16  H3  UNL     1      24.509  -3.522  12.685  1.00  0.00     0.189 HD
BRANCH  15  17
HETATM   17  N4  UNL     1      23.744  -5.452  12.587  1.00  0.00    -0.343 N
ATOM     18  H42 UNL     1      23.265  -5.541  13.483  1.00  0.00     0.176 HD
ATOM     19  H41 UNL     1      24.038  -6.296  12.096  1.00  0.00     0.176 HD
ENDBRANCH  15  17
ENDBRANCH   1  13
BRANCH   1  20
HETATM   20  C7  UNL     1      22.354  -1.701  10.111  1.00  0.00     0.132 A
HETATM   21  N5  UNL     1      21.523  -1.301  11.091  1.00  0.00    -0.322 N
HETATM   22  C8  UNL     1      20.411  -0.820  10.533  1.00  0.00     0.215 A
ATOM     23  H5  UNL     1      21.712  -1.356  12.091  1.00  0.00     0.169 HD
HETATM   24  C9  UNL     1      19.280  -0.298  11.124  1.00  0.00     0.295 A
HETATM   25  N9  UNL     1      20.538  -0.916   9.197  1.00  0.00    -0.170 N
HETATM   26  O3  UNL     1      19.178  -0.216  12.380  1.00  0.00    -0.264 OA
HETATM   27  N6  UNL     1      18.281   0.125  10.304  1.00  0.00    -0.293 N
HETATM   28  C10 UNL     1      18.406   0.029   8.967  1.00  0.00     0.211 A
ATOM     29  H6  UNL     1      17.430   0.518  10.706  1.00  0.00     0.172 HD
HETATM   30  N7  UNL     1      17.363   0.470   8.098  1.00  0.00    -0.062 NA
HETATM   31  N8  UNL     1      19.542  -0.492   8.456  1.00  0.00    -0.250 N
ATOM     32  H8  UNL     1      19.631  -0.561   7.442  1.00  0.00     0.192 HD
HETATM   33  N10 UNL     1      21.738  -1.459   8.964  1.00  0.00    -0.263 N
ATOM     34  H10 UNL     1      22.122  -1.656   8.040  1.00  0.00     0.190 HD
ENDBRANCH   1  20
TORSDOF 6
ENDMDL