MODEL 2
REMARK VINA RESULT: -6.920281462      3.043      4.994
REMARK  8 active torsions:
REMARK  status: ('A' for Active; 'I' for Inactive)
REMARK    1  A    between atoms: C2_2  and  O1_3
REMARK    2  A    between atoms: O1_3  and  C3_4
REMARK    3  A    between atoms: C3_4  and  C4_6
REMARK    4  A    between atoms: C4_6  and  O3_7
REMARK    5  A    between atoms: N1_11  and  N2_13
REMARK       I    between atoms: N2_13  and  C6_14
REMARK       I    between atoms: C6_14  and  N3_16
REMARK    6  A    between atoms: N3_16  and  N4_18
REMARK       I    between atoms: N5_22  and  C7_23
REMARK    7  A    between atoms: C8_26  and  C9_27
REMARK    8  A    between atoms: C9_27  and  O8_28
ROOT
HETATM    1  C4  UNL     1       8.409  -0.458   4.134  1.00  0.00     0.286 C
HETATM    2  O4  UNL     1       8.685   0.845   3.724  1.00  0.00    -0.263 OA
HETATM    3  C5  UNL     1       9.844   1.509   4.089  1.00  0.00     0.316 C
HETATM    4  N1  UNL     1      10.021   2.679   3.591  1.00  0.00    -0.185 N
ATOM      5  H1  UNL     1      10.895   3.103   3.902  1.00  0.00     0.206 HD
HETATM    6  O6  UNL     1      10.760   0.924   4.954  1.00  0.00    -0.185 OA
HETATM    7  N5  UNL     1      10.419  -0.356   5.411  1.00  0.00    -0.188 N
HETATM    8  C7  UNL     1      10.753  -0.797   6.703  1.00  0.00     0.355 C
HETATM    9  N6  UNL     1      11.439   0.076   7.604  1.00  0.00    -0.038 NA
HETATM   10  O7  UNL     1      10.501  -1.931   7.179  1.00  0.00    -0.249 OA
HETATM   11  C8  UNL     1       9.721  -1.153   4.458  1.00  0.00     0.217 C
ENDROOT
BRANCH   4  12
HETATM   12  N2  UNL     1       9.357   3.455   2.787  1.00  0.00    -0.260 NA
HETATM   13  C6  UNL     1       8.663   4.265   1.946  1.00  0.00     0.430 C
HETATM   14  O5  UNL     1       8.852   4.433   0.722  1.00  0.00    -0.227 OA
HETATM   15  N3  UNL     1       7.544   5.068   2.458  1.00  0.00    -0.245 N
ATOM     16  H3  UNL     1       7.284   5.019   3.444  1.00  0.00     0.192 HD
BRANCH  15  17
HETATM   17  N4  UNL     1       6.847   5.888   1.598  1.00  0.00    -0.340 N
ATOM     18  H42 UNL     1       6.278   6.644   1.979  1.00  0.00     0.177 HD
ATOM     19  H41 UNL     1       6.909   5.728   0.592  1.00  0.00     0.177 HD
ENDBRANCH  15  17
ENDBRANCH   4  12
BRANCH   1  20
HETATM   20  C3  UNL     1       7.484  -0.406   5.292  1.00  0.00     0.325 C
HETATM   21  O2  UNL     1       7.837   0.010   6.415  1.00  0.00    -0.259 OA
BRANCH  20  22
HETATM   22  O1  UNL     1       6.166  -0.827   5.157  1.00  0.00    -0.318 OA
BRANCH  22  23
HETATM   23  C2  UNL     1       5.559  -1.585   6.218  1.00  0.00     0.174 C
HETATM   24  C1  UNL     1       6.032  -3.014   6.220  1.00  0.00     0.034 C
ENDBRANCH  22  23
ENDBRANCH  20  22
ENDBRANCH   1  20
BRANCH   1  25
HETATM   25  O3  UNL     1       7.793  -1.106   3.044  1.00  0.00    -0.356 OA
ATOM     26  H3  UNL     1       7.496  -0.468   2.405  1.00  0.00     0.213 HD
ENDBRANCH   1  25
BRANCH  11  27
HETATM   27  C9  UNL     1       9.523  -2.591   4.787  1.00  0.00     0.198 C
BRANCH  27  28
HETATM   28  O8  UNL     1      10.744  -3.284   4.607  1.00  0.00    -0.399 OA
ATOM     29  H8  UNL     1      11.301  -3.139   5.362  1.00  0.00     0.209 HD
ENDBRANCH  27  28
ENDBRANCH  11  27
TORSDOF 8
ENDMDL