MODEL 5
REMARK VINA RESULT: -7.178723189      2.111      3.627
REMARK  11 active torsions:
REMARK  status: ('A' for Active; 'I' for Inactive)
REMARK    1  A    between atoms: C2_2  and  O1_3
REMARK    2  A    between atoms: C2_2  and  C10_30
REMARK    3  A    between atoms: O1_3  and  N1_4
REMARK    4  A    between atoms: N1_4  and  C3_6
REMARK    5  A    between atoms: C4_9  and  N3_10
REMARK    6  A    between atoms: C8_16  and  O2_17
REMARK    7  A    between atoms: C8_16  and  N4_19
REMARK    8  A    between atoms: N4_19  and  N5_21
REMARK    9  A    between atoms: C10_30  and  O3_31
REMARK   10  A    between atoms: C10_30  and  C11_33
REMARK   11  A    between atoms: C11_33  and  O4_34
ROOT
HETATM    1  C3  UNL     1       9.245   0.369   2.551  1.00  0.00     0.706 A
HETATM    2  N2  UNL     1      10.412   0.646   3.067  1.00  0.00    -0.173 N
ATOM      3  H2  UNL     1      11.060   1.198   2.505  1.00  0.00     0.186 HD
HETATM    4  C4  UNL     1      10.825   0.250   4.305  1.00  0.00     0.147 A
HETATM    5  C5  UNL     1       9.951  -0.486   5.055  1.00  0.00     0.143 A
HETATM    6  C6  UNL     1       8.669  -0.805   4.526  1.00  0.00     0.117 A
HETATM    7  C7  UNL     1       7.992  -1.547   5.440  1.00  0.00     0.131 A
HETATM    8  C8  UNL     1       6.640  -2.034   5.474  1.00  0.00     0.185 C
HETATM    9  N6  UNL     1       8.849  -1.687   6.512  1.00  0.00    -0.277 N
ATOM     10  H6  UNL     1       8.638  -2.199   7.369  1.00  0.00     0.189 HD
HETATM   11  N7  UNL     1       9.978  -1.063   6.265  1.00  0.00    -0.189 N
HETATM   12 CL1  UNL     1      11.360  -0.975   7.352  1.00  0.00     0.036 Cl
HETATM   13  N8  UNL     1       8.354  -0.368   3.281  1.00  0.00    -0.181 N
HETATM   14  C9  UNL     1       7.088  -0.744   2.697  1.00  0.00     0.176 C
ENDROOT
BRANCH   1  15
HETATM   15  N1  UNL     1       8.840   0.741   1.375  1.00  0.00    -0.096 N
ATOM     16  H1  UNL     1       8.526   0.018   0.728  1.00  0.00     0.213 HD
BRANCH  15  17
HETATM   17  O1  UNL     1       8.807   2.025   0.954  1.00  0.00    -0.259 OA
BRANCH  17  18
HETATM   18  C2  UNL     1       9.799   2.683   0.231  1.00  0.00     0.179 C
HETATM   19  C1  UNL     1       9.227   3.375  -0.974  1.00  0.00     0.045 C
BRANCH  18  20
HETATM   20  C10 UNL     1      10.444   3.738   1.120  1.00  0.00     0.172 C
BRANCH  20  21
HETATM   21  O3  UNL     1      11.552   3.221   1.793  1.00  0.00    -0.391 OA
ATOM     22  H3  UNL     1      12.346   3.685   1.553  1.00  0.00     0.210 HD
ENDBRANCH  20  21
BRANCH  20  23
HETATM   23  C11 UNL     1       9.432   4.259   2.120  1.00  0.00     0.198 C
BRANCH  23  24
HETATM   24  O4  UNL     1       9.691   3.651   3.349  1.00  0.00    -0.398 OA
ATOM     25  H4  UNL     1      10.359   4.161   3.792  1.00  0.00     0.209 HD
ENDBRANCH  23  24
ENDBRANCH  20  23
ENDBRANCH  18  20
ENDBRANCH  17  18
ENDBRANCH  15  17
ENDBRANCH   1  15
BRANCH   4  26
HETATM   26  N3  UNL     1      11.973   0.563   4.725  1.00  0.00    -0.383 N
ATOM     27  H32 UNL     1      12.559   1.247   4.246  1.00  0.00     0.157 HD
ATOM     28  H31 UNL     1      12.349   0.131   5.568  1.00  0.00     0.157 HD
ENDBRANCH   4  26
BRANCH   8  29
HETATM   29  O2  UNL     1       6.511  -3.313   5.670  1.00  0.00    -0.343 OA
ATOM     30  H2  UNL     1       5.620  -3.642   5.653  1.00  0.00     0.219 HD
ENDBRANCH   8  29
BRANCH   8  31
HETATM   31  N4  UNL     1       5.434  -1.351   5.343  1.00  0.00    -0.285 N
ATOM     32  H4  UNL     1       5.298  -0.787   4.503  1.00  0.00     0.188 HD
BRANCH  31  33
HETATM   33  N5  UNL     1       4.395  -1.382   6.280  1.00  0.00    -0.343 N
ATOM     34  H52 UNL     1       4.316  -2.227   6.846  1.00  0.00     0.176 HD
ATOM     35  H51 UNL     1       3.725  -0.627   6.429  1.00  0.00     0.176 HD
ENDBRANCH  31  33
ENDBRANCH   8  31
TORSDOF 11
ENDMDL