MODEL 3
REMARK VINA RESULT: -9.376565183      1.758      2.054
REMARK  6 active torsions:
REMARK  status: ('A' for Active; 'I' for Inactive)
REMARK       I    between atoms: C1_2  and  N2_4
REMARK    1  A    between atoms: N2_4  and  N3_6
REMARK    2  A    between atoms: N3_6  and  C2_8
REMARK    3  A    between atoms: C3_15  and  N7_16
REMARK    4  A    between atoms: N7_16  and  N8_18
REMARK    5  A    between atoms: N8_18  and  S1_20
REMARK    6  A    between atoms: S1_20  and  C4_23
ROOT
HETATM    1  C2  UNL     1       9.463  -1.776   5.927  1.00  0.00     0.262 A
HETATM    2  N4  UNL     1      10.483  -2.233   6.613  1.00  0.00    -0.249 N
ATOM      3  H4  UNL     1      10.441  -3.130   7.097  1.00  0.00     0.192 HD
HETATM    4  N5  UNL     1      11.627  -1.439   6.651  1.00  0.00    -0.236 N
ATOM      5  H5  UNL     1      12.443  -1.756   7.173  1.00  0.00     0.208 HD
HETATM    6  N6  UNL     1      11.668  -0.225   5.990  1.00  0.00    -0.249 N
ATOM      7  H6  UNL     1      12.525   0.325   6.043  1.00  0.00     0.192 HD
HETATM    8  C3  UNL     1      10.668   0.254   5.302  1.00  0.00     0.263 A
HETATM    9  O4  UNL     1       9.543  -0.558   5.281  1.00  0.00    -0.242 OA
ENDROOT
BRANCH   8  10
HETATM   10  N7  UNL     1      10.738   1.496   4.637  1.00  0.00    -0.254 N
ATOM     11  H7  UNL     1      10.768   2.327   5.228  1.00  0.00     0.191 HD
BRANCH  10  12
HETATM   12  N8  UNL     1      10.768   1.710   3.285  1.00  0.00    -0.219 N
ATOM     13  H8  UNL     1      11.650   1.796   2.780  1.00  0.00     0.200 HD
BRANCH  12  14
HETATM   14  S1  UNL     1       9.276   1.827   2.485  1.00  0.00     0.291 S
HETATM   15  O2  UNL     1       8.216   2.185   3.453  1.00  0.00    -0.197 OA
HETATM   16  O3  UNL     1       8.939   0.437   1.974  1.00  0.00    -0.197 OA
BRANCH  14  17
HETATM   17  C4  UNL     1       9.312   2.871   1.106  1.00  0.00     0.150 A
HETATM   18  C5  UNL     1       9.254   4.239   1.277  1.00  0.00     0.047 A
HETATM   19  C6  UNL     1       9.268   5.029   0.133  1.00  0.00     0.046 A
HETATM   20  C7  UNL     1       9.338   4.468  -1.126  1.00  0.00     0.131 A
HETATM   21  F1  UNL     1       9.350   5.277  -2.227  1.00  0.00    -0.205 F
HETATM   22  C8  UNL     1       9.395   3.098  -1.233  1.00  0.00     0.131 A
HETATM   23  N9  UNL     1       9.380   2.339  -0.122  1.00  0.00    -0.352 N
ATOM     24  H9  UNL     1       9.422   1.324  -0.217  1.00  0.00     0.166 HD
ENDBRANCH  14  17
ENDBRANCH  12  14
ENDBRANCH  10  12
ENDBRANCH   8  10
BRANCH   1  25
HETATM   25  N3  UNL     1       8.287  -2.574   5.877  1.00  0.00    -0.260 N
ATOM     26  H3  UNL     1       8.370  -3.578   6.040  1.00  0.00     0.190 HD
BRANCH  25  27
HETATM   27  N2  UNL     1       7.026  -2.043   5.614  1.00  0.00    -0.251 N
HETATM   28  C1  UNL     1       6.536  -1.898   4.300  1.00  0.00     0.347 C
HETATM   29  N1  UNL     1       5.254  -1.353   4.088  1.00  0.00    -0.038 NA
HETATM   30  O1  UNL     1       7.261  -2.261   3.342  1.00  0.00    -0.249 OA
ATOM     31  H2  UNL     1       6.439  -1.751   6.397  1.00  0.00     0.191 HD
ENDBRANCH  25  27
ENDBRANCH   1  25
TORSDOF 6
ENDMDL