MODEL 4
REMARK VINA RESULT: -8.043439496      1.518      1.884
REMARK  8 active torsions:
REMARK  status: ('A' for Active; 'I' for Inactive)
REMARK    1  A    between atoms: C2_3  and  N2_4
REMARK    2  A    between atoms: N2_4  and  C3_6
REMARK    3  A    between atoms: C4_9  and  N4_10
REMARK    4  A    between atoms: N4_10  and  N5_12
REMARK    5  A    between atoms: C5_17  and  C6_18
REMARK    6  A    between atoms: C6_18  and  S1_19
REMARK    7  A    between atoms: S1_19  and  C7_20
REMARK    8  A    between atoms: C9_24  and  N8_25
ROOT
HETATM    1  N1  UNL     1       4.697  -1.083   6.250  1.00  0.00    -0.196 NA
HETATM    2  C1  UNL     1       5.596  -1.804   6.366  1.00  0.00     0.078 C
HETATM    3  C2  UNL     1       6.730  -2.742   6.512  1.00  0.00     0.245 C
ENDROOT
BRANCH   3   4
HETATM    4  N2  UNL     1       7.654  -2.532   5.456  1.00  0.00    -0.360 N
ATOM      5  H2  UNL     1       7.618  -3.228   4.712  1.00  0.00     0.162 HD
BRANCH   4   6
HETATM    6  C3  UNL     1       8.511  -1.624   5.291  1.00  0.00     0.161 C
HETATM    7  N3  UNL     1       9.443  -1.376   6.223  1.00  0.00    -0.172 N
HETATM    8  C4  UNL     1      10.308  -0.360   6.359  1.00  0.00     0.699 C
ATOM      9  H3  UNL     1       9.505  -2.083   6.955  1.00  0.00     0.186 HD
HETATM   10  N6  UNL     1      10.401   0.732   5.542  1.00  0.00    -0.178 N
HETATM   11  C5  UNL     1      10.023   0.849   4.254  1.00  0.00     0.108 C
ATOM     12  H6  UNL     1      10.809   1.568   5.963  1.00  0.00     0.185 HD
HETATM   13  N10 UNL     1       9.203   0.014   3.577  1.00  0.00    -0.328 N
HETATM   14  C11 UNL     1       8.382  -0.944   4.086  1.00  0.00     0.145 C
ATOM     15  H10 UNL     1       9.198   0.115   2.562  1.00  0.00     0.169 HD
HETATM   16  N11 UNL     1       7.369  -1.235   3.332  1.00  0.00    -0.382 N
ATOM     17 2H11 UNL     1       6.754  -1.954   3.714  1.00  0.00     0.157 HD
ATOM     18 1H11 UNL     1       7.274  -0.736   2.448  1.00  0.00     0.157 HD
BRANCH   8  19
HETATM   19  N4  UNL     1      11.154  -0.354   7.325  1.00  0.00    -0.138 N
ATOM     20  H4  UNL     1      10.941   0.058   8.233  1.00  0.00     0.205 HD
BRANCH  19  21
HETATM   21  N5  UNL     1      12.399  -0.958   7.045  1.00  0.00    -0.331 N
ATOM     22  H52 UNL     1      13.222  -0.397   6.826  1.00  0.00     0.177 HD
ATOM     23  H51 UNL     1      12.411  -1.977   7.078  1.00  0.00     0.177 HD
ENDBRANCH  19  21
ENDBRANCH   8  19
BRANCH  11  24
HETATM   24  C6  UNL     1      10.537   1.991   3.473  1.00  0.00     0.156 C
BRANCH  24  25
HETATM   25  S1  UNL     1       9.228   3.217   3.142  1.00  0.00    -0.117 SA
BRANCH  25  26
HETATM   26  C7  UNL     1       9.298   3.753   1.441  1.00  0.00     0.073 A
HETATM   27  C8  UNL     1       9.342   5.088   1.125  1.00  0.00     0.129 A
HETATM   28  N7  UNL     1       9.395   5.497  -0.154  1.00  0.00    -0.201 N
HETATM   29  C9  UNL     1       9.402   4.564  -1.139  1.00  0.00     0.677 A
ATOM     30  H7  UNL     1       9.429   6.491  -0.380  1.00  0.00     0.183 HD
HETATM   31  N9  UNL     1       9.359   3.256  -0.863  1.00  0.00    -0.165 N
HETATM   32  C10 UNL     1       9.307   2.808   0.412  1.00  0.00     0.221 A
ATOM     33  H9  UNL     1       9.366   2.582  -1.629  1.00  0.00     0.186 HD
HETATM   34  F1  UNL     1       9.266   1.486   0.666  1.00  0.00    -0.184 F
BRANCH  29  35
HETATM   35  N8  UNL     1       9.452   4.981  -2.361  1.00  0.00    -0.234 N
ATOM     36  H82 UNL     1       9.808   4.379  -3.103  1.00  0.00     0.174 HD
ATOM     37  H81 UNL     1       9.123   5.928  -2.552  1.00  0.00     0.174 HD
ENDBRANCH  29  35
ENDBRANCH  25  26
ENDBRANCH  24  25
ENDBRANCH  11  24
ENDBRANCH   4   6
ENDBRANCH   3   4
TORSDOF 8
ENDMDL