MODEL 1
REMARK VINA RESULT: -8.228706811      0.000      0.000
REMARK  8 active torsions:
REMARK  status: ('A' for Active; 'I' for Inactive)
REMARK    1  A    between atoms: N3_4  and  N4_6
REMARK    2  A    between atoms: C2_7  and  N5_8
REMARK    3  A    between atoms: C5_14  and  N8_15
REMARK    4  A    between atoms: C6_21  and  C7_22
REMARK    5  A    between atoms: C7_22  and  O2_24
REMARK    6  A    between atoms: O2_24  and  C8_25
REMARK    7  A    between atoms: C8_25  and  C9_26
REMARK    8  A    between atoms: C9_26  and  O3_27
ROOT
HETATM    1  N4  UNL     1       9.576  -0.329   4.465  1.00  0.00    -0.070 N
HETATM    2  C2  UNL     1       8.241  -0.305   4.317  1.00  0.00     0.706 A
HETATM    3  N9  UNL     1       8.006   0.708   3.445  1.00  0.00    -0.180 N
ATOM      4  H9  UNL     1       7.080   0.988   3.121  1.00  0.00     0.184 HD
HETATM    5  C6  UNL     1       9.151   1.289   3.065  1.00  0.00     0.165 A
HETATM    6  C10 UNL     1      10.165   0.630   3.715  1.00  0.00     0.177 A
HETATM    7 CL1  UNL     1      11.901   0.954   3.610  1.00  0.00    -0.059 Cl
ENDROOT
BRANCH   2   8
HETATM    8  N5  UNL     1       7.279  -1.150   4.918  1.00  0.00    -0.169 N
HETATM    9  C3  UNL     1       7.704  -2.096   5.913  1.00  0.00     0.166 C
HETATM   10  C4  UNL     1       6.632  -2.934   6.508  1.00  0.00     0.155 C
HETATM   11  N6  UNL     1       5.301  -2.593   6.137  1.00  0.00    -0.335 N
HETATM   12  N7  UNL     1       5.074  -1.292   5.752  1.00  0.00    -0.090 NA
ATOM     13  H6  UNL     1       4.549  -3.282   6.157  1.00  0.00     0.175 HD
HETATM   14  C5  UNL     1       5.886  -1.056   4.560  1.00  0.00     0.413 C
BRANCH  14  15
HETATM   15  N8  UNL     1       5.487  -2.102   3.625  1.00  0.00    -0.042 N
ATOM     16  H83 UNL     1       4.537  -1.951   3.287  1.00  0.00     0.278 HD
ATOM     17  H82 UNL     1       5.988  -2.018   2.741  1.00  0.00     0.278 HD
ATOM     18  H81 UNL     1       5.592  -3.035   4.022  1.00  0.00     0.278 HD
ENDBRANCH  14  15
ENDBRANCH   2   8
BRANCH   1  19
HETATM   19  N3  UNL     1      10.335  -1.201   5.277  1.00  0.00    -0.254 N
HETATM   20  C1  UNL     1      10.609  -0.834   6.508  1.00  0.00     0.216 C
HETATM   21  N1  UNL     1      10.150   0.417   7.004  1.00  0.00    -0.065 NA
HETATM   22  N2  UNL     1      11.353  -1.649   7.385  1.00  0.00    -0.065 NA
ATOM     23  H3  UNL     1      10.663  -2.096   4.914  1.00  0.00     0.190 HD
ENDBRANCH   1  19
BRANCH   5  24
HETATM   24  C7  UNL     1       9.313   2.400   2.136  1.00  0.00     0.314 C
HETATM   25  O1  UNL     1      10.124   2.280   1.192  1.00  0.00    -0.257 OA
BRANCH  24  26
HETATM   26  O2  UNL     1       8.587   3.566   2.288  1.00  0.00    -0.314 OA
BRANCH  26  27
HETATM   27  C8  UNL     1       9.085   4.782   1.741  1.00  0.00     0.205 C
BRANCH  27  28
HETATM   28  C9  UNL     1       7.951   5.708   1.373  1.00  0.00     0.191 C
BRANCH  28  29
HETATM   29  O3  UNL     1       7.123   5.897   2.479  1.00  0.00    -0.399 OA
ATOM     30  H3  UNL     1       6.282   5.484   2.322  1.00  0.00     0.209 HD
ENDBRANCH  28  29
ENDBRANCH  27  28
ENDBRANCH  26  27
ENDBRANCH  24  26
ENDBRANCH   5  24
TORSDOF 8
ENDMDL