MODEL 2
REMARK VINA RESULT: -6.047178464      3.274      6.819
REMARK  8 active torsions:
REMARK  status: ('A' for Active; 'I' for Inactive)
REMARK    1  A    between atoms: N1_1  and  C1_4
REMARK    2  A    between atoms: C4_9  and  N3_10
REMARK    3  A    between atoms: N5_17  and  C7_18
REMARK    4  A    between atoms: N8_23  and  C8_24
REMARK    5  A    between atoms: C8_24  and  C9_25
REMARK    6  A    between atoms: C9_25  and  O1_26
REMARK    7  A    between atoms: C10_30  and  C11_31
REMARK    8  A    between atoms: C11_31  and  O2_32
ROOT
HETATM    1  C1  UNL     1       6.345  -1.697   4.160  1.00  0.00     0.695 A
HETATM    2  N2  UNL     1       6.745  -0.786   3.255  1.00  0.00    -0.192 N
ATOM      3  H2  UNL     1       6.168  -0.607   2.434  1.00  0.00     0.184 HD
HETATM    4  C2  UNL     1       7.904  -0.101   3.418  1.00  0.00     0.062 A
HETATM    5  C3  UNL     1       8.634  -0.394   4.549  1.00  0.00     0.014 A
HETATM    6  C4  UNL     1       8.197  -1.342   5.469  1.00  0.00     0.143 A
HETATM    7  N4  UNL     1       7.031  -1.998   5.259  1.00  0.00    -0.070 N
HETATM    8 CL1  UNL     1       6.441  -3.195   6.384  1.00  0.00     0.036 Cl
HETATM    9  C5  UNL     1       9.906   0.279   4.839  1.00  0.00     0.065 C
HETATM   10  C6  UNL     1      10.462   1.078   3.708  1.00  0.00     0.147 C
HETATM   11  N5  UNL     1       9.475   1.614   2.812  1.00  0.00    -0.202 N
HETATM   12  C10 UNL     1       8.293   0.882   2.399  1.00  0.00     0.176 C
ENDROOT
BRANCH  11  13
HETATM   13  C7  UNL     1       9.666   2.928   2.304  1.00  0.00     0.712 A
HETATM   14  N6  UNL     1      10.828   3.591   2.173  1.00  0.00    -0.115 N
HETATM   15  N7  UNL     1      10.598   4.788   1.661  1.00  0.00    -0.211 N
ATOM     16  H6  UNL     1      11.746   3.228   2.429  1.00  0.00     0.207 HD
HETATM   17  N8  UNL     1       9.304   4.902   1.462  1.00  0.00    -0.203 N
ATOM     18  H7  UNL     1      11.301   5.499   1.457  1.00  0.00     0.210 HD
HETATM   19  N9  UNL     1       8.726   3.787   1.844  1.00  0.00    -0.113 N
ATOM     20  H9  UNL     1       7.725   3.598   1.802  1.00  0.00     0.207 HD
BRANCH  17  21
HETATM   21  C8  UNL     1       8.549   6.024   0.918  1.00  0.00     0.197 C
BRANCH  21  22
HETATM   22  C9  UNL     1       7.106   5.971   1.366  1.00  0.00     0.187 C
BRANCH  22  23
HETATM   23  O1  UNL     1       7.045   6.202   2.738  1.00  0.00    -0.399 OA
ATOM     24  H1  UNL     1       6.499   5.538   3.141  1.00  0.00     0.209 HD
ENDBRANCH  22  23
ENDBRANCH  21  22
ENDBRANCH  17  21
ENDBRANCH  11  13
BRANCH  12  25
HETATM   25  C11 UNL     1       8.503   0.259   1.052  1.00  0.00     0.196 C
BRANCH  25  26
HETATM   26  O2  UNL     1       8.968   1.208   0.139  1.00  0.00    -0.398 OA
ATOM     27  H2  UNL     1       8.715   0.972  -0.746  1.00  0.00     0.209 HD
ENDBRANCH  25  26
ENDBRANCH  12  25
BRANCH   6  28
HETATM   28  N3  UNL     1       8.855  -1.626   6.519  1.00  0.00    -0.383 N
ATOM     29  H32 UNL     1       8.576  -2.457   7.042  1.00  0.00     0.157 HD
ATOM     30  H31 UNL     1       9.637  -1.059   6.845  1.00  0.00     0.157 HD
ENDBRANCH   6  28
BRANCH   1  31
HETATM   31  N1  UNL     1       5.231  -2.324   3.960  1.00  0.00    -0.233 N
ATOM     32  H12 UNL     1       4.540  -1.878   3.357  1.00  0.00     0.174 HD
ATOM     33  H11 UNL     1       5.091  -3.230   4.408  1.00  0.00     0.174 HD
ENDBRANCH   1  31
TORSDOF 8
ENDMDL