MODEL 2
REMARK VINA RESULT: -8.558946881      1.032      1.045
REMARK  9 active torsions:
REMARK  status: ('A' for Active; 'I' for Inactive)
REMARK    1  A    between atoms: N1_1  and  C1_4
REMARK    2  A    between atoms: C2_7  and  S1_8
REMARK    3  A    between atoms: S1_8  and  S2_9
REMARK    4  A    between atoms: S2_9  and  C3_10
REMARK    5  A    between atoms: C5_19  and  N6_20
REMARK       I    between atoms: N6_20  and  C6_22
REMARK    6  A    between atoms: C6_22  and  C7_24
REMARK    7  A    between atoms: C7_24  and  N7_25
REMARK    8  A    between atoms: C7_24  and  C8_29
REMARK    9  A    between atoms: C8_29  and  O2_30
ROOT
HETATM    1  C1  UNL     1      12.461   1.738   2.997  1.00  0.00     0.691 A
HETATM    2  N2  UNL     1      11.291   2.359   2.761  1.00  0.00    -0.180 N
ATOM      3  H2  UNL     1      11.256   3.148   2.115  1.00  0.00     0.185 HD
HETATM    4  C2  UNL     1      10.171   1.946   3.369  1.00  0.00     0.142 A
HETATM    5  C5  UNL     1      10.293   0.858   4.241  1.00  0.00     0.158 A
HETATM    6  N8  UNL     1      11.470   0.261   4.454  1.00  0.00    -0.269 N
ATOM      7  H8  UNL     1      11.534  -0.531   5.094  1.00  0.00     0.189 HD
HETATM    8  N9  UNL     1      12.537   0.695   3.841  1.00  0.00    -0.131 N
ATOM      9  H9  UNL     1      13.436   0.239   4.004  1.00  0.00     0.205 HD
ENDROOT
BRANCH   5  10
HETATM   10  N6  UNL     1       9.238   0.440   4.838  1.00  0.00    -0.308 N
HETATM   11  C6  UNL     1       9.360  -0.502   5.892  1.00  0.00     0.256 C
HETATM   12  O1  UNL     1       9.810  -0.192   7.024  1.00  0.00    -0.271 OA
ATOM     13  H6  UNL     1       8.319   0.781   4.557  1.00  0.00     0.170 HD
BRANCH  11  14
HETATM   14  C7  UNL     1       8.932  -1.896   5.622  1.00  0.00     0.298 C
BRANCH  14  15
HETATM   15  N7  UNL     1       9.874  -2.796   6.216  1.00  0.00    -0.064 N
ATOM     16  H73 UNL     1      10.627  -3.049   5.576  1.00  0.00     0.275 HD
ATOM     17  H72 UNL     1      10.442  -2.345   6.934  1.00  0.00     0.275 HD
ATOM     18  H71 UNL     1       9.376  -3.612   6.572  1.00  0.00     0.275 HD
ENDBRANCH  14  15
BRANCH  14  19
HETATM   19  C8  UNL     1       7.529  -2.113   6.205  1.00  0.00     0.206 C
BRANCH  19  20
HETATM   20  O2  UNL     1       6.921  -0.889   6.348  1.00  0.00    -0.398 OA
ATOM     21  H2  UNL     1       6.653  -0.788   7.254  1.00  0.00     0.209 HD
ENDBRANCH  19  20
ENDBRANCH  14  19
ENDBRANCH  11  14
ENDBRANCH   5  10
BRANCH   4  22
HETATM   22  S1  UNL     1       8.564   2.680   3.144  1.00  0.00    -0.027 SA
BRANCH  22  23
HETATM   23  S2  UNL     1       8.869   4.579   2.237  1.00  0.00    -0.013 SA
BRANCH  23  24
HETATM   24  C3  UNL     1       9.160   4.269   0.505  1.00  0.00     0.173 A
HETATM   25  N3  UNL     1       9.371   3.117  -0.140  1.00  0.00    -0.276 N
HETATM   26  N4  UNL     1       9.538   3.384  -1.423  1.00  0.00    -0.259 N
ATOM     27  H3  UNL     1       9.400   2.190   0.285  1.00  0.00     0.189 HD
HETATM   28  C4  UNL     1       9.432   4.712  -1.599  1.00  0.00     0.282 A
ATOM     29  H4  UNL     1       9.715   2.699  -2.157  1.00  0.00     0.191 HD
HETATM   30  F1  UNL     1       9.551   5.343  -2.808  1.00  0.00    -0.164 F
HETATM   31  N5  UNL     1       9.201   5.239  -0.412  1.00  0.00    -0.296 N
ATOM     32  H5  UNL     1       9.073   6.233  -0.223  1.00  0.00     0.172 HD
ENDBRANCH  23  24
ENDBRANCH  22  23
ENDBRANCH   4  22
BRANCH   1  33
HETATM   33  N1  UNL     1      13.536   2.158   2.394  1.00  0.00    -0.233 N
ATOM     34  H12 UNL     1      13.799   3.142   2.458  1.00  0.00     0.174 HD
ATOM     35  H11 UNL     1      14.101   1.494   1.865  1.00  0.00     0.174 HD
ENDBRANCH   1  33
TORSDOF 9
ENDMDL