MODEL 4
REMARK VINA RESULT: -5.334277217      1.494      1.548
REMARK  5 active torsions:
REMARK  status: ('A' for Active; 'I' for Inactive)
REMARK       I    between atoms: C1_4  and  N3_6
REMARK    1  A    between atoms: N3_6  and  N4_8
REMARK    2  A    between atoms: C2_10  and  C3_11
REMARK       I    between atoms: C3_11  and  N5_13
REMARK    3  A    between atoms: N5_13  and  N6_15
REMARK    4  A    between atoms: C5_20  and  N9_21
REMARK    5  A    between atoms: C9_29  and  N11_30
ROOT
HETATM    1  N6  UNL     1      11.122   0.504   3.299  1.00  0.00    -0.158 N
HETATM    2  N7  UNL     1      10.025   0.505   2.561  1.00  0.00     0.003 NA
HETATM    3  N8  UNL     1       9.006   0.023   3.252  1.00  0.00    -0.275 N
ATOM      4  H8  UNL     1       8.050  -0.083   2.914  1.00  0.00     0.184 HD
HETATM    5  C4  UNL     1       9.451  -0.303   4.478  1.00  0.00     0.139 A
HETATM    6  C5  UNL     1       8.819  -0.839   5.581  1.00  0.00     0.158 A
HETATM    7  N10 UNL     1       9.588  -1.042   6.675  1.00  0.00    -0.174 N
ATOM      8  H10 UNL     1       9.158  -1.437   7.511  1.00  0.00     0.186 HD
HETATM    9  C9  UNL     1      10.893  -0.745   6.702  1.00  0.00     0.679 A
HETATM   10  N12 UNL     1      11.479  -0.227   5.618  1.00  0.00    -0.171 N
ATOM     11  H12 UNL     1      12.474  -0.003   5.644  1.00  0.00     0.186 HD
HETATM   12  C10 UNL     1      10.779   0.004   4.494  1.00  0.00     0.190 A
ENDROOT
BRANCH   1  13
HETATM   13  N5  UNL     1      12.405   0.924   2.962  1.00  0.00    -0.244 N
HETATM   14  C3  UNL     1      12.592   2.054   2.133  1.00  0.00     0.278 C
HETATM   15  O1  UNL     1      11.589   2.673   1.705  1.00  0.00    -0.265 OA
ATOM     16  H5  UNL     1      13.214   0.414   3.315  1.00  0.00     0.192 HD
BRANCH  14  17
HETATM   17  C2  UNL     1      13.916   2.511   1.768  1.00  0.00     0.182 C
HETATM   18  N4  UNL     1      14.949   1.807   2.035  1.00  0.00    -0.304 N
ATOM     19  H4  UNL     1      14.844   0.911   2.511  1.00  0.00     0.186 HD
BRANCH  18  20
HETATM   20  N3  UNL     1      16.215   2.257   1.679  1.00  0.00    -0.274 N
HETATM   21  C1  UNL     1      16.601   3.565   2.050  1.00  0.00     0.200 C
HETATM   22  N1  UNL     1      16.983   3.849   3.241  1.00  0.00    -0.372 N
HETATM   23  N2  UNL     1      16.562   4.584   1.067  1.00  0.00    -0.062 NA
ATOM     24  H12 UNL     1      17.262   4.793   3.509  1.00  0.00     0.158 HD
ATOM     25  H11 UNL     1      17.012   3.115   3.948  1.00  0.00     0.158 HD
ATOM     26  H3  UNL     1      16.853   1.655   1.159  1.00  0.00     0.189 HD
ENDBRANCH  18  20
ENDBRANCH  14  17
ENDBRANCH   1  13
BRANCH   6  27
HETATM   27  N9  UNL     1       7.433  -1.156   5.555  1.00  0.00    -0.296 N
HETATM   28  C6  UNL     1       6.235  -0.739   4.903  1.00  0.00     0.180 C
HETATM   29  C7  UNL     1       5.486  -1.950   5.388  1.00  0.00     0.280 C
HETATM   30  F1  UNL     1       4.373  -1.685   6.162  1.00  0.00    -0.238 F
HETATM   31  C8  UNL     1       6.668  -2.133   6.275  1.00  0.00     0.261 C
HETATM   32  O2  UNL     1       6.855  -2.884   7.265  1.00  0.00    -0.270 OA
ENDBRANCH   6  27
BRANCH   9  33
HETATM   33  N11 UNL     1      11.604  -0.945   7.749  1.00  0.00    -0.234 N
ATOM     34 2H11 UNL     1      11.444  -1.792   8.295  1.00  0.00     0.174 HD
ATOM     35 1H11 UNL     1      12.320  -0.281   8.042  1.00  0.00     0.174 HD
ENDBRANCH   9  33
TORSDOF 5
ENDMDL