MODEL 3
REMARK VINA RESULT: -8.748972217      1.230      1.560
REMARK  7 active torsions:
REMARK  status: ('A' for Active; 'I' for Inactive)
REMARK    1  A    between atoms: N1_1  and  C1_4
REMARK    2  A    between atoms: C2_7  and  N3_8
REMARK    3  A    between atoms: N3_8  and  C3_10
REMARK    4  A    between atoms: C5_19  and  N8_20
REMARK    5  A    between atoms: N8_20  and  C6_22
REMARK    6  A    between atoms: C6_22  and  N9_23
REMARK    7  A    between atoms: C8_27  and  N11_28
ROOT
HETATM    1  C1  UNL     1      10.823  -0.415   6.398  1.00  0.00     0.679 A
HETATM    2  N2  UNL     1       9.804  -1.266   6.436  1.00  0.00    -0.173 N
ATOM      3  H2  UNL     1       9.592  -1.788   7.286  1.00  0.00     0.186 HD
HETATM    4  C2  UNL     1       9.058  -1.422   5.329  1.00  0.00     0.179 A
HETATM    5  C4  UNL     1       9.346  -0.712   4.169  1.00  0.00     0.205 A
HETATM    6  F1  UNL     1       8.594  -0.871   3.056  1.00  0.00    -0.198 F
HETATM    7  C5  UNL     1      10.407   0.166   4.146  1.00  0.00     0.161 A
HETATM    8  N13 UNL     1      11.123   0.289   5.278  1.00  0.00    -0.174 N
ATOM      9  H13 UNL     1      11.915   0.931   5.295  1.00  0.00     0.186 HD
ENDROOT
BRANCH   7  10
HETATM   10  N8  UNL     1      10.761   0.871   3.135  1.00  0.00    -0.355 N
ATOM     11  H8  UNL     1      10.871   0.371   2.253  1.00  0.00     0.162 HD
BRANCH  10  12
HETATM   12  C6  UNL     1      11.019   2.271   3.100  1.00  0.00     0.273 C
BRANCH  12  13
HETATM   13  N9  UNL     1       9.771   3.021   2.923  1.00  0.00    -0.267 N
HETATM   14  C7  UNL     1       8.578   2.719   3.465  1.00  0.00     0.205 A
HETATM   15  N10 UNL     1       7.715   3.664   3.046  1.00  0.00    -0.317 N
HETATM   16  C8  UNL     1       8.356   4.544   2.253  1.00  0.00     0.265 A
ATOM     17  H10 UNL     1       6.726   3.707   3.291  1.00  0.00     0.169 HD
HETATM   18  N12 UNL     1       9.625   4.109   2.203  1.00  0.00    -0.261 N
ATOM     19  H12 UNL     1      10.373   4.562   1.678  1.00  0.00     0.190 HD
BRANCH  16  20
HETATM   20  N11 UNL     1       7.768   5.675   1.626  1.00  0.00    -0.078 N
HETATM   21  O1  UNL     1       6.617   6.035   1.933  1.00  0.00    -0.529 OA
HETATM   22  O2  UNL     1       8.452   6.390   0.676  1.00  0.00    -0.529 OA
ENDBRANCH  16  20
ENDBRANCH  12  13
ENDBRANCH  10  12
ENDBRANCH   7  10
BRANCH   4  23
HETATM   23  N3  UNL     1       7.976  -2.320   5.358  1.00  0.00    -0.171 N
ATOM     24  H3  UNL     1       8.146  -3.318   5.237  1.00  0.00     0.186 HD
BRANCH  23  25
HETATM   25  C3  UNL     1       6.753  -1.889   5.538  1.00  0.00     0.709 A
HETATM   26  N4  UNL     1       5.917  -1.393   4.611  1.00  0.00    -0.117 N
HETATM   27  N5  UNL     1       4.792  -1.083   5.230  1.00  0.00     0.006 NA
ATOM     28  H4  UNL     1       6.114  -1.278   3.617  1.00  0.00     0.202 HD
HETATM   29  N6  UNL     1       4.883  -1.364   6.516  1.00  0.00     0.006 NA
HETATM   30  N7  UNL     1       6.092  -1.860   6.703  1.00  0.00    -0.117 N
ATOM     31  H7  UNL     1       6.466  -2.173   7.599  1.00  0.00     0.202 HD
ENDBRANCH  23  25
ENDBRANCH   4  23
BRANCH   1  32
HETATM   32  N1  UNL     1      11.537  -0.276   7.485  1.00  0.00    -0.234 N
ATOM     33  H12 UNL     1      11.323   0.461   8.157  1.00  0.00     0.174 HD
ATOM     34  H11 UNL     1      12.309  -0.927   7.631  1.00  0.00     0.174 HD
ENDBRANCH   1  32
TORSDOF 7
ENDMDL