MODEL 5
REMARK VINA RESULT: -7.692406392      3.408      7.606
REMARK  6 active torsions:
REMARK  status: ('A' for Active; 'I' for Inactive)
REMARK    1  A    between atoms: N1_2  and  C2_4
REMARK    2  A    between atoms: C4_11  and  N4_12
REMARK    3  A    between atoms: N4_12  and  C5_14
REMARK    4  A    between atoms: N7_17  and  C6_18
REMARK    5  A    between atoms: C6_18  and  O1_19
REMARK    6  A    between atoms: N8_22  and  N9_24
REMARK       I    between atoms: C8_26  and  N11_28
ROOT
HETATM    1  N9  UNL     1       8.313   4.597   1.175  1.00  0.00    -0.272 N
ATOM      2  H9  UNL     1       8.593   4.499   0.199  1.00  0.00     0.189 HD
HETATM    3  C8  UNL     1       7.572   5.586   1.540  1.00  0.00     0.216 C
HETATM    4  N10 UNL     1       7.137   5.801   2.872  1.00  0.00    -0.061 NA
HETATM    5  N11 UNL     1       7.168   6.519   0.545  1.00  0.00    -0.266 N
ATOM      6  H11 UNL     1       7.772   7.320   0.364  1.00  0.00     0.180 HD
HETATM    7  C9  UNL     1       5.999   6.402  -0.195  1.00  0.00     0.184 C
HETATM    8  N12 UNL     1       5.023   6.314  -0.820  1.00  0.00    -0.172 NA
ENDROOT
BRANCH   1   9
HETATM    9  N8  UNL     1       8.723   3.679   2.104  1.00  0.00    -0.283 N
HETATM   10  C7  UNL     1       9.779   2.980   2.137  1.00  0.00     0.154 C
HETATM   11  C5  UNL     1      10.187   2.007   3.146  1.00  0.00     0.281 C
HETATM   12  N7  UNL     1      10.825   2.994   1.179  1.00  0.00    -0.239 N
HETATM   13  N5  UNL     1      11.350   1.366   2.507  1.00  0.00    -0.092 NA
HETATM   14  N6  UNL     1      11.975   2.389   1.777  1.00  0.00    -0.023 NA
ATOM     15  H8  UNL     1       8.082   3.536   2.884  1.00  0.00     0.188 HD
BRANCH  11  16
HETATM   16  N4  UNL     1       9.229   0.977   3.403  1.00  0.00    -0.199 N
ATOM     17  H4  UNL     1       8.404   0.861   2.813  1.00  0.00     0.180 HD
BRANCH  16  18
HETATM   18  C4  UNL     1       9.451   0.193   4.420  1.00  0.00     0.696 A
HETATM   19  N3  UNL     1       8.534  -0.665   4.888  1.00  0.00    -0.165 N
HETATM   20  C3  UNL     1       8.746  -1.483   5.937  1.00  0.00     0.208 A
ATOM     21  H3  UNL     1       7.626  -0.702   4.425  1.00  0.00     0.186 HD
HETATM   22  N2  UNL     1       9.938  -1.439   6.551  1.00  0.00    -0.165 N
HETATM   23 CL1  UNL     1       7.504  -2.592   6.509  1.00  0.00    -0.044 Cl
HETATM   24  C2  UNL     1      10.894  -0.597   6.123  1.00  0.00     0.694 A
ATOM     25  H2  UNL     1      10.120  -2.049   7.348  1.00  0.00     0.186 HD
HETATM   26  N13 UNL     1      10.641   0.214   5.058  1.00  0.00    -0.022 N
ATOM     27  H13 UNL     1      11.368   0.852   4.735  1.00  0.00     0.203 HD
BRANCH  24  28
HETATM   28  N1  UNL     1      12.021  -0.583   6.733  1.00  0.00    -0.230 N
HETATM   29  C1  UNL     1      12.095  -0.775   8.155  1.00  0.00     0.165 C
ATOM     30  H1  UNL     1      12.878  -0.433   6.201  1.00  0.00     0.177 HD
ENDBRANCH  24  28
ENDBRANCH  16  18
ENDBRANCH  11  16
BRANCH  12  31
HETATM   31  C6  UNL     1      10.880   3.480  -0.168  1.00  0.00     0.312 C
BRANCH  31  32
HETATM   32  O1  UNL     1      12.026   2.983  -0.827  1.00  0.00    -0.381 OA
ATOM     33  H1  UNL     1      12.630   3.691  -1.023  1.00  0.00     0.211 HD
ENDBRANCH  31  32
ENDBRANCH  12  31
ENDBRANCH   1   9
TORSDOF 6
ENDMDL