MODEL 4
REMARK VINA RESULT: -5.888723944      2.601      5.783
REMARK  5 active torsions:
REMARK  status: ('A' for Active; 'I' for Inactive)
REMARK    1  A    between atoms: O1_2  and  C2_3
REMARK    2  A    between atoms: C2_3  and  C3_5
REMARK    3  A    between atoms: C5_7  and  C6_8
REMARK    4  A    between atoms: C6_8  and  O3_9
REMARK    5  A    between atoms: N1_11  and  O4_13
ROOT
HETATM    1  C3  UNL     1      -8.328  54.981  12.228  1.00  0.00     0.221 C
HETATM    2  C4  UNL     1      -7.172  55.227  13.177  1.00  0.00     0.057 C
HETATM    3  C5  UNL     1      -6.434  53.888  13.030  1.00  0.00     0.089 C
HETATM    4  C7  UNL     1      -6.804  53.499  11.629  1.00  0.00     0.181 C
HETATM    5  O5  UNL     1      -7.703  54.412  11.144  1.00  0.00    -0.375 OA
ENDROOT
BRANCH   3   6
HETATM    6  C6  UNL     1      -4.988  54.048  13.235  1.00  0.00     0.141 C
HETATM    7  N1  UNL     1      -4.476  53.688  14.363  1.00  0.00    -0.251 N
ATOM      8  H1  UNL     1      -3.473  53.796  14.511  1.00  0.00     0.196 HD
BRANCH   6   9
HETATM    9  O3  UNL     1      -4.157  54.570  12.264  1.00  0.00    -0.348 OA
ATOM     10  H3  UNL     1      -3.544  55.274  12.443  1.00  0.00     0.219 HD
ENDBRANCH   6   9
BRANCH   7  11
HETATM   11  O4  UNL     1      -5.249  53.161  15.372  1.00  0.00    -0.288 OA
ATOM     12  H4  UNL     1      -6.046  52.677  15.188  1.00  0.00     0.244 HD
ENDBRANCH   7  11
ENDBRANCH   3   6
BRANCH   1  13
HETATM   13  C2  UNL     1      -9.049  56.223  11.889  1.00  0.00     0.287 C
HETATM   14  O2  UNL     1      -8.757  56.885  10.864  1.00  0.00    -0.262 OA
BRANCH  13  15
HETATM   15  O1  UNL     1     -10.076  56.711  12.683  1.00  0.00    -0.324 OA
HETATM   16  C1  UNL     1     -11.168  57.445  12.116  1.00  0.00     0.213 C
ENDBRANCH  13  15
ENDBRANCH   1  13
TORSDOF 5
ENDMDL