MODEL 3
REMARK VINA RESULT: -5.722554354      2.064      2.833
REMARK  3 active torsions:
REMARK  status: ('A' for Active; 'I' for Inactive)
REMARK    1  A    between atoms: C6_8  and  O3_9
REMARK    2  A    between atoms: C7_11  and  C8_12
REMARK    3  A    between atoms: C8_12  and  O4_13
ROOT
HETATM    1  C1  UNL     1      -2.744  53.939  13.055  1.00  0.00     0.045 C
HETATM    2  C2  UNL     1      -3.650  52.947  12.362  1.00  0.00     0.182 C
HETATM    3  O1  UNL     1      -2.849  51.835  12.041  1.00  0.00    -0.357 OA
HETATM    4  C3  UNL     1      -3.733  50.755  12.193  1.00  0.00     0.342 C
HETATM    5  O2  UNL     1      -4.285  51.026  13.447  1.00  0.00    -0.328 OA
HETATM    6  C4  UNL     1      -4.692  52.371  13.275  1.00  0.00     0.195 C
HETATM    7  C5  UNL     1      -6.063  52.323  12.669  1.00  0.00     0.105 C
HETATM    8  C6  UNL     1      -6.936  52.627  13.879  1.00  0.00     0.154 C
HETATM    9  C7  UNL     1      -6.024  53.506  14.670  1.00  0.00     0.177 C
HETATM   10  O5  UNL     1      -4.761  53.027  14.472  1.00  0.00    -0.343 OA
ENDROOT
BRANCH   8  11
HETATM   11  O3  UNL     1      -8.137  53.184  13.545  1.00  0.00    -0.393 OA
ATOM     12  H3  UNL     1      -8.493  52.841  12.733  1.00  0.00     0.210 HD
ENDBRANCH   8  11
BRANCH   9  13
HETATM   13  C8  UNL     1      -6.063  54.949  14.200  1.00  0.00     0.198 C
BRANCH  13  14
HETATM   14  O4  UNL     1      -6.444  55.815  15.223  1.00  0.00    -0.398 OA
ATOM     15  H4  UNL     1      -6.178  56.709  15.044  1.00  0.00     0.209 HD
ENDBRANCH  13  14
ENDBRANCH   9  13
TORSDOF 3
ENDMDL