MODEL 3
REMARK VINA RESULT: -5.920339952      1.944      2.216
REMARK  3 active torsions:
REMARK  status: ('A' for Active; 'I' for Inactive)
REMARK    1  A    between atoms: C2_3  and  C4_11
REMARK    2  A    between atoms: N2_4  and  N3_6
REMARK    3  A    between atoms: N3_6  and  C3_8
ROOT
HETATM    1  N1  UNL     1      -6.520  55.589  14.736  1.00  0.00    -0.190 NA
HETATM    2  C1  UNL     1      -6.029  55.104  13.788  1.00  0.00     0.122 C
HETATM    3  C2  UNL     1      -5.416  54.501  12.639  1.00  0.00     0.162 C
HETATM    4  N2  UNL     1      -5.988  54.589  11.498  1.00  0.00    -0.286 N
ATOM      5  H2  UNL     1      -5.532  54.154  10.697  1.00  0.00     0.188 HD
ENDROOT
BRANCH   3   6
HETATM    6  C4  UNL     1      -4.153  53.790  12.741  1.00  0.00     0.113 A
HETATM    7  C5  UNL     1      -3.996  52.423  12.762  1.00  0.00     0.042 A
HETATM    8  C6  UNL     1      -2.642  52.142  12.869  1.00  0.00     0.027 A
HETATM    9  C7  UNL     1      -2.032  53.388  12.911  1.00  0.00     0.142 A
HETATM   10  O1  UNL     1      -2.943  54.328  12.833  1.00  0.00    -0.320 OA
ENDBRANCH   3   6
BRANCH   4  11
HETATM   11  N3  UNL     1      -7.196  55.245  11.290  1.00  0.00    -0.278 N
ATOM     12  H3  UNL     1      -7.788  55.461  12.092  1.00  0.00     0.189 HD
BRANCH  11  13
HETATM   13  C3  UNL     1      -7.628  55.622   9.994  1.00  0.00     0.199 C
HETATM   14  N4  UNL     1      -6.754  55.376   8.888  1.00  0.00    -0.068 NA
HETATM   15  S1  UNL     1      -9.062  56.313   9.724  1.00  0.00    -0.043 SA
ENDBRANCH  11  13
ENDBRANCH   4  11
TORSDOF 3
ENDMDL