MODEL 5
REMARK VINA RESULT: -6.036569331      1.394      4.309
REMARK  3 active torsions:
REMARK  status: ('A' for Active; 'I' for Inactive)
REMARK    1  A    between atoms: O1_2  and  C2_3
REMARK    2  A    between atoms: C3_6  and  C4_7
REMARK    3  A    between atoms: C7_12  and  O6_13
ROOT
HETATM    1  C2  UNL     1      -2.831  53.184  12.495  1.00  0.00     0.324 C
HETATM    2  O2  UNL     1      -2.976  53.985  13.626  1.00  0.00    -0.204 OA
HETATM    3  O3  UNL     1      -3.904  54.885  13.375  1.00  0.00    -0.222 OA
HETATM    4  C3  UNL     1      -5.098  54.186  13.212  1.00  0.00     0.261 C
HETATM    5  C5  UNL     1      -5.071  53.000  14.140  1.00  0.00     0.049 C
HETATM    6  C6  UNL     1      -4.645  51.735  13.462  1.00  0.00     0.040 C
HETATM    7  C7  UNL     1      -3.432  51.832  12.631  1.00  0.00     0.176 C
ENDROOT
BRANCH   4   8
HETATM    8  C4  UNL     1      -6.234  55.086  13.470  1.00  0.00     0.206 C
HETATM    9  O4  UNL     1      -7.007  55.388  12.554  1.00  0.00    -0.646 OA
HETATM   10  O5  UNL     1      -6.405  55.577  14.756  1.00  0.00    -0.646 OA
ENDBRANCH   4   8
BRANCH   1  11
HETATM   11  O1  UNL     1      -1.461  53.037  12.279  1.00  0.00    -0.361 OA
HETATM   12  C1  UNL     1      -1.142  53.183  10.921  1.00  0.00     0.205 C
ENDBRANCH   1  11
BRANCH   7  13
HETATM   13  O6  UNL     1      -2.438  50.968  13.138  1.00  0.00    -0.391 OA
ATOM     14  H6  UNL     1      -2.876  50.253  13.586  1.00  0.00     0.210 HD
ENDBRANCH   7  13
TORSDOF 3
ENDMDL