MODEL 5
REMARK VINA RESULT: -6.106219824      1.378      1.753
REMARK  5 active torsions:
REMARK  status: ('A' for Active; 'I' for Inactive)
REMARK       I    between atoms: C1_2  and  N1_3
REMARK       I    between atoms: C1_2  and  N2_7
REMARK    1  A    between atoms: N1_3  and  O2_5
REMARK    2  A    between atoms: N2_7  and  N3_8
REMARK    3  A    between atoms: N3_8  and  N4_10
REMARK    4  A    between atoms: N4_10  and  O3_11
REMARK    5  A    between atoms: N4_10  and  N5_13
ROOT
HETATM    1  N3  UNL     1      -4.763  53.685  14.450  1.00  0.00    -0.129 N
ATOM      2  H3  UNL     1      -4.671  53.314  15.396  1.00  0.00     0.228 HD
ENDROOT
BRANCH   1   3
HETATM    3  N2  UNL     1      -3.704  53.560  13.756  1.00  0.00    -0.244 NA
HETATM    4  C1  UNL     1      -2.554  53.423  13.002  1.00  0.00     0.437 C
HETATM    5  O1  UNL     1      -1.365  53.318  13.461  1.00  0.00    -0.226 OA
HETATM    6  N1  UNL     1      -2.595  53.379  11.571  1.00  0.00    -0.205 N
ATOM      7  H1  UNL     1      -3.486  53.452  11.080  1.00  0.00     0.200 HD
BRANCH   6   8
HETATM    8  O2  UNL     1      -1.451  53.240  10.878  1.00  0.00    -0.285 OA
ATOM      9  H2  UNL     1      -1.439  53.438   9.948  1.00  0.00     0.244 HD
ENDBRANCH   6   8
ENDBRANCH   1   3
BRANCH   1  10
HETATM   10  N4  UNL     1      -5.925  54.182  14.211  1.00  0.00    -0.071 N
BRANCH  10  11
HETATM   11  O3  UNL     1      -6.331  55.171  15.065  1.00  0.00    -0.252 OA
ATOM     12  H3  UNL     1      -6.918  55.818  14.692  1.00  0.00     0.248 HD
ENDBRANCH  10  11
BRANCH  10  13
HETATM   13  N5  UNL     1      -6.730  53.780  13.167  1.00  0.00    -0.285 N
HETATM   14  C2  UNL     1      -6.711  54.169  11.750  1.00  0.00     0.147 C
HETATM   15  C3  UNL     1      -6.800  52.801  11.077  1.00  0.00     0.023 C
HETATM   16  C4  UNL     1      -7.526  51.918  12.054  1.00  0.00     0.023 C
HETATM   17  C5  UNL     1      -7.829  52.846  13.212  1.00  0.00     0.147 C
ENDBRANCH  10  13
ENDBRANCH   1  10
TORSDOF 5
ENDMDL