MODEL 1
REMARK VINA RESULT: -6.220597318      0.000      0.000
REMARK  4 active torsions:
REMARK  status: ('A' for Active; 'I' for Inactive)
REMARK    1  A    between atoms: C2_2  and  C3_3
REMARK    2  A    between atoms: C2_2  and  C4_10
REMARK    3  A    between atoms: C3_3  and  O1_4
REMARK    4  A    between atoms: N1_6  and  O2_8
ROOT
HETATM    1  C1  UNL     1      -5.317  52.383  11.287  1.00  0.00     0.025 C
HETATM    2  C2  UNL     1      -5.672  53.236  12.235  1.00  0.00     0.008 C
ENDROOT
BRANCH   2   3
HETATM    3  C3  UNL     1      -4.626  53.742  13.098  1.00  0.00     0.167 C
HETATM    4  N1  UNL     1      -4.505  53.719  14.341  1.00  0.00    -0.247 N
ATOM      5  H1  UNL     1      -3.638  54.166  14.641  1.00  0.00     0.196 HD
BRANCH   3   6
HETATM    6  O1  UNL     1      -3.537  54.378  12.450  1.00  0.00    -0.344 OA
ATOM      7  H1  UNL     1      -2.729  53.880  12.405  1.00  0.00     0.219 HD
ENDBRANCH   3   6
BRANCH   4   8
HETATM    8  O2  UNL     1      -5.200  53.271  15.371  1.00  0.00    -0.288 OA
ATOM      9  H2  UNL     1      -5.335  52.438  15.807  1.00  0.00     0.244 HD
ENDBRANCH   4   8
ENDBRANCH   2   3
BRANCH   2  10
HETATM   10  C4  UNL     1      -7.094  53.628  12.349  1.00  0.00     0.197 C
HETATM   11  C5  UNL     1      -7.999  52.772  13.160  1.00  0.00     0.217 C
HETATM   12  O3  UNL     1      -8.791  53.924  13.388  1.00  0.00    -0.273 OA
HETATM   13  S1  UNL     1      -7.563  55.081  13.136  1.00  0.00     0.276 S
HETATM   14  O4  UNL     1      -7.021  55.485  14.434  1.00  0.00    -0.198 OA
HETATM   15  O5  UNL     1      -8.080  56.195  12.260  1.00  0.00    -0.198 OA
ENDBRANCH   2  10
TORSDOF 4
ENDMDL