MODEL 3
REMARK VINA RESULT: -5.823550910      1.393      1.433
REMARK  4 active torsions:
REMARK  status: ('A' for Active; 'I' for Inactive)
REMARK    1  A    between atoms: O1_2  and  C2_3
REMARK    2  A    between atoms: C4_6  and  O3_7
REMARK    3  A    between atoms: C5_9  and  N1_11
REMARK    4  A    between atoms: N1_11  and  O4_13
ROOT
HETATM    1  C2  UNL     1      -6.954  53.525  11.367  1.00  0.00     0.265 C
HETATM    2  O2  UNL     1      -6.376  54.810  11.408  1.00  0.00    -0.358 OA
HETATM    3  C3  UNL     1      -6.988  55.468  12.468  1.00  0.00     0.205 C
HETATM    4  C4  UNL     1      -6.232  55.059  13.726  1.00  0.00     0.172 C
HETATM    5  C5  UNL     1      -6.018  53.573  13.647  1.00  0.00     0.083 C
HETATM    6  C6  UNL     1      -4.621  53.345  13.085  1.00  0.00     0.043 C
HETATM    7  C7  UNL     1      -7.067  52.947  12.761  1.00  0.00     0.069 C
HETATM    8  C8  UNL     1      -6.806  51.468  12.683  1.00  0.00     0.017 C
ENDROOT
BRANCH   5   9
HETATM    9  N1  UNL     1      -6.053  52.975  14.960  1.00  0.00    -0.292 N
ATOM     10  H1  UNL     1      -6.731  52.258  15.218  1.00  0.00     0.188 HD
BRANCH   9  11
HETATM   11  O4  UNL     1      -5.135  53.430  15.810  1.00  0.00    -0.294 OA
ATOM     12  H4  UNL     1      -5.476  53.935  16.539  1.00  0.00     0.244 HD
ENDBRANCH   9  11
ENDBRANCH   5   9
BRANCH   4  13
HETATM   13  O3  UNL     1      -7.042  55.340  14.813  1.00  0.00    -0.391 OA
ATOM     14  H3  UNL     1      -6.480  55.604  15.532  1.00  0.00     0.210 HD
ENDBRANCH   4  13
BRANCH   1  15
HETATM   15  O1  UNL     1      -8.131  53.533  10.673  1.00  0.00    -0.366 OA
HETATM   16  C1  UNL     1      -8.031  53.222   9.342  1.00  0.00     0.204 C
ENDBRANCH   1  15
TORSDOF 4
ENDMDL