MODEL 2
REMARK VINA RESULT: -6.244926800      1.117      1.130
REMARK  5 active torsions:
REMARK  status: ('A' for Active; 'I' for Inactive)
REMARK    1  A    between atoms: C5_5  and  O1_6
REMARK    2  A    between atoms: C6_8  and  C7_9
REMARK    3  A    between atoms: C7_9  and  O3_11
REMARK    4  A    between atoms: O3_11  and  N1_12
REMARK    5  A    between atoms: N1_12  and  C8_14
ROOT
HETATM    1  C1  UNL     1      -7.747  51.692  12.080  1.00  0.00     0.039 C
HETATM    2  C2  UNL     1      -8.677  52.864  12.415  1.00  0.00     0.118 C
HETATM    3  C3  UNL     1      -8.901  53.724  11.237  1.00  0.00     0.034 C
HETATM    4  C4  UNL     1      -8.132  54.986  11.127  1.00  0.00     0.037 C
HETATM    5  C5  UNL     1      -7.855  55.514  12.538  1.00  0.00     0.157 C
HETATM    6  C6  UNL     1      -7.186  54.333  13.214  1.00  0.00     0.252 C
HETATM    7  O5  UNL     1      -8.219  53.462  13.555  1.00  0.00    -0.368 OA
ENDROOT
BRANCH   6   8
HETATM    8  C7  UNL     1      -6.344  54.704  14.349  1.00  0.00     0.312 C
HETATM    9  O2  UNL     1      -6.515  55.799  14.919  1.00  0.00    -0.260 OA
BRANCH   8  10
HETATM   10  O3  UNL     1      -5.360  53.859  14.799  1.00  0.00    -0.195 OA
BRANCH  10  11
HETATM   11  N1  UNL     1      -4.474  53.179  14.006  1.00  0.00    -0.233 N
ATOM     12  H1  UNL     1      -4.493  52.160  13.997  1.00  0.00     0.197 HD
BRANCH  11  13
HETATM   13  C8  UNL     1      -3.538  53.856  13.204  1.00  0.00     0.374 C
HETATM   14  O4  UNL     1      -3.752  54.297  12.058  1.00  0.00    -0.282 OA
ENDBRANCH  11  13
ENDBRANCH  10  11
ENDBRANCH   8  10
ENDBRANCH   6   8
BRANCH   5  15
HETATM   15  O1  UNL     1      -9.088  55.729  13.147  1.00  0.00    -0.392 OA
ATOM     16  H1  UNL     1      -9.442  56.535  12.790  1.00  0.00     0.210 HD
ENDBRANCH   5  15
TORSDOF 5
ENDMDL