MODEL 5
REMARK VINA RESULT: -4.810673390      2.255      3.780
REMARK  3 active torsions:
REMARK  status: ('A' for Active; 'I' for Inactive)
REMARK    1  A    between atoms: O1_2  and  C2_3
REMARK    2  A    between atoms: C3_5  and  N1_6
REMARK    3  A    between atoms: C9_12  and  O3_13
ROOT
HETATM    1  C2  UNL     1      -2.206  51.651  12.829  1.00  0.00     0.290 C
HETATM    2  O2  UNL     1      -3.420  51.720  13.501  1.00  0.00    -0.324 OA
HETATM    3  C3  UNL     1      -4.091  52.824  13.045  1.00  0.00     0.364 C
HETATM    4  C8  UNL     1      -3.062  53.804  12.504  1.00  0.00     0.101 C
HETATM    5  C9  UNL     1      -1.765  53.109  12.860  1.00  0.00     0.177 C
ENDROOT
BRANCH   3   6
HETATM    6  N1  UNL     1      -4.905  53.528  13.969  1.00  0.00     0.124 N
HETATM    7  C4  UNL     1      -5.762  54.527  13.379  1.00  0.00     0.303 C
HETATM    8  C5  UNL     1      -6.853  53.704  12.815  1.00  0.00     0.001 C
HETATM    9  C6  UNL     1      -6.937  52.616  13.566  1.00  0.00     0.001 C
HETATM   10  C7  UNL     1      -5.894  52.709  14.648  1.00  0.00     0.303 C
ENDBRANCH   3   6
BRANCH   1  11
HETATM   11  O1  UNL     1      -2.315  51.211  11.518  1.00  0.00    -0.363 OA
HETATM   12  C1  UNL     1      -1.720  49.966  11.315  1.00  0.00     0.204 C
ENDBRANCH   1  11
BRANCH   5  13
HETATM   13  O3  UNL     1      -0.833  53.371  11.883  1.00  0.00    -0.391 OA
ATOM     14  H3  UNL     1      -1.237  53.414  11.024  1.00  0.00     0.210 HD
ENDBRANCH   5  13
TORSDOF 3
ENDMDL