MODEL 3
REMARK VINA RESULT: -6.290774983      1.991      2.565
REMARK  3 active torsions:
REMARK  status: ('A' for Active; 'I' for Inactive)
REMARK    1  A    between atoms: O1_2  and  N1_3
REMARK    2  A    between atoms: N1_3  and  C2_5
REMARK    3  A    between atoms: C8_16  and  O4_17
ROOT
HETATM    1  C2  UNL     1      -4.931  53.739  12.353  1.00  0.00     0.137 C
HETATM    2  C3  UNL     1      -6.096  53.059  11.661  1.00  0.00     0.034 C
HETATM    3  C4  UNL     1      -7.307  53.934  11.642  1.00  0.00     0.063 C
HETATM    4  C5  UNL     1      -7.914  53.918  13.036  1.00  0.00     0.269 C
HETATM    5  O2  UNL     1      -7.714  55.210  13.636  1.00  0.00    -0.306 OA
HETATM    6  C6  UNL     1      -6.637  55.107  14.496  1.00  0.00     0.146 C
HETATM    7  N2  UNL     1      -6.127  56.078  15.152  1.00  0.00    -0.381 N
ATOM      8  H21 UNL     1      -5.332  56.002  15.786  1.00  0.00     0.158 HD
ATOM      9  H22 UNL     1      -6.420  57.055  15.151  1.00  0.00     0.158 HD
HETATM   10  C7  UNL     1      -6.220  53.714  14.496  1.00  0.00     0.229 C
HETATM   11  O3  UNL     1      -7.245  53.006  13.864  1.00  0.00    -0.345 OA
HETATM   12  C8  UNL     1      -4.903  53.452  13.836  1.00  0.00     0.179 C
ENDROOT
BRANCH   1  13
HETATM   13  N1  UNL     1      -3.745  53.340  11.692  1.00  0.00    -0.296 N
ATOM     14  H1  UNL     1      -3.767  52.690  10.907  1.00  0.00     0.188 HD
BRANCH  13  15
HETATM   15  O1  UNL     1      -2.614  53.843  12.133  1.00  0.00    -0.290 OA
HETATM   16  C1  UNL     1      -1.483  53.107  11.754  1.00  0.00     0.237 C
ENDBRANCH  13  15
ENDBRANCH   1  13
BRANCH  12  17
HETATM   17  O4  UNL     1      -4.619  52.090  14.055  1.00  0.00    -0.390 OA
ATOM     18  H4  UNL     1      -4.789  51.593  13.264  1.00  0.00     0.210 HD
ENDBRANCH  12  17
TORSDOF 3
ENDMDL