MODEL 5
REMARK VINA RESULT: -4.695095935      4.918      6.087
REMARK  4 active torsions:
REMARK  status: ('A' for Active; 'I' for Inactive)
REMARK    1  A    between atoms: S1_3  and  C2_4
REMARK    2  A    between atoms: C2_4  and  O1_6
REMARK    3  A    between atoms: O1_6  and  C3_7
REMARK    4  A    between atoms: C3_7  and  C4_8
ROOT
HETATM    1  N1  UNL     1       2.054  54.379   9.028  1.00  0.00    -0.184 NA
HETATM    2  C1  UNL     1       1.005  53.853   8.983  1.00  0.00     0.141 C
HETATM    3  S1  UNL     1      -0.577  53.082   8.892  1.00  0.00     0.026 SA
ENDROOT
BRANCH   3   4
HETATM    4  C2  UNL     1      -1.159  52.784  10.541  1.00  0.00     0.190 C
HETATM    5  S2  UNL     1      -0.992  51.305  11.212  1.00  0.00    -0.044 SA
BRANCH   4   6
HETATM    6  O1  UNL     1      -1.768  53.779  11.310  1.00  0.00    -0.324 OA
BRANCH   6   7
HETATM    7  C3  UNL     1      -2.138  53.414  12.624  1.00  0.00     0.290 C
BRANCH   7   8
HETATM    8  C4  UNL     1      -3.491  53.886  12.979  1.00  0.00     0.198 C
HETATM    9  O2  UNL     1      -4.138  54.500  12.092  1.00  0.00    -0.646 OA
HETATM   10  O3  UNL     1      -4.093  53.702  14.202  1.00  0.00    -0.646 OA
ENDBRANCH   7   8
ENDBRANCH   6   7
ENDBRANCH   4   6
ENDBRANCH   3   4
TORSDOF 4
ENDMDL