MODEL 2
REMARK VINA RESULT: -5.939940187      1.034      1.178
REMARK  7 active torsions:
REMARK  status: ('A' for Active; 'I' for Inactive)
REMARK    1  A    between atoms: C2_2  and  C4_4
REMARK    2  A    between atoms: C4_4  and  O1_5
REMARK    3  A    between atoms: O1_5  and  C5_6
REMARK    4  A    between atoms: C5_6  and  O3_8
REMARK    5  A    between atoms: O3_8  and  C6_9
REMARK    6  A    between atoms: C6_9  and  C7_11
REMARK    7  A    between atoms: C8_12  and  N1_13
ROOT
HETATM    1  O3  UNL     1      -2.038  53.711  11.337  1.00  0.00    -0.210 OA
ENDROOT
BRANCH   1   2
HETATM    2  C5  UNL     1      -2.154  53.350  12.692  1.00  0.00     0.415 C
HETATM    3  O2  UNL     1      -1.128  53.266  13.404  1.00  0.00    -0.229 OA
BRANCH   2   4
HETATM    4  O1  UNL     1      -3.375  53.085  13.253  1.00  0.00    -0.293 OA
BRANCH   4   5
HETATM    5  C4  UNL     1      -4.120  51.902  13.044  1.00  0.00     0.214 C
BRANCH   5   6
HETATM    6  C2  UNL     1      -5.556  52.289  13.029  1.00  0.00    -0.069 C
HETATM    7  C1  UNL     1      -6.040  53.101  13.940  1.00  0.00     0.016 C
HETATM    8  C3  UNL     1      -6.414  51.723  11.951  1.00  0.00     0.044 C
ENDBRANCH   5   6
ENDBRANCH   4   5
ENDBRANCH   2   4
ENDBRANCH   1   2
BRANCH   1   9
HETATM    9  C6  UNL     1      -1.291  52.969  10.436  1.00  0.00     0.349 C
HETATM   10  O4  UNL     1      -1.711  51.817  10.134  1.00  0.00    -0.249 OA
BRANCH   9  11
HETATM   11  C7  UNL     1      -0.074  53.505   9.869  1.00  0.00     0.025 C
HETATM   12  C8  UNL     1       0.953  53.953   9.414  1.00  0.00     0.014 C
BRANCH  12  13
HETATM   13  N1  UNL     1       2.159  54.486   8.902  1.00  0.00    -0.359 N
ATOM     14  H12 UNL     1       1.373  54.762   9.491  1.00  0.00     0.166 HD
ATOM     15  H11 UNL     1       3.031  54.856   8.524  1.00  0.00     0.166 HD
ENDBRANCH  12  13
ENDBRANCH   9  11
ENDBRANCH   1   9
TORSDOF 7
ENDMDL