MODEL 5
REMARK VINA RESULT: -6.210072166      1.725      4.631
REMARK  5 active torsions:
REMARK  status: ('A' for Active; 'I' for Inactive)
REMARK    1  A    between atoms: C2_2  and  C3_6
REMARK    2  A    between atoms: C3_6  and  N2_7
REMARK    3  A    between atoms: C3_6  and  C4_11
REMARK    4  A    between atoms: C4_11  and  O2_13
REMARK    5  A    between atoms: O2_13  and  C5_14
ROOT
HETATM    1  C5  UNL     1      -6.414  53.722  12.912  1.00  0.00     0.151 C
HETATM    2  C6  UNL     1      -5.934  53.218  14.256  1.00  0.00     0.063 C
HETATM    3  C7  UNL     1      -7.187  52.627  12.227  1.00  0.00     0.063 C
HETATM    4  C8  UNL     1      -7.367  54.813  13.184  1.00  0.00     0.097 C
HETATM    5  N3  UNL     1      -8.107  55.676  13.411  1.00  0.00    -0.194 NA
ENDROOT
BRANCH   1   6
HETATM    6  O2  UNL     1      -5.389  54.253  12.128  1.00  0.00    -0.294 OA
BRANCH   6   7
HETATM    7  C4  UNL     1      -4.061  54.125  12.502  1.00  0.00     0.297 C
HETATM    8  O1  UNL     1      -3.575  55.108  13.116  1.00  0.00    -0.262 OA
BRANCH   7   9
HETATM    9  C3  UNL     1      -3.247  52.907  12.203  1.00  0.00     0.326 C
BRANCH   9  10
HETATM   10  C2  UNL     1      -1.817  53.222  12.252  1.00  0.00     0.016 C
HETATM   11  C1  UNL     1      -1.019  53.323  10.998  1.00  0.00     0.065 C
HETATM   12  N1  UNL     1      -1.233  53.413  13.354  1.00  0.00    -0.404 N
ATOM     13  H12 UNL     1      -0.237  53.632  13.388  1.00  0.00     0.155 HD
ATOM     14  H11 UNL     1      -1.779  53.344  14.213  1.00  0.00     0.155 HD
ENDBRANCH   9  10
BRANCH   9  15
HETATM   15  N2  UNL     1      -3.650  52.383  10.910  1.00  0.00    -0.061 N
ATOM     16  H23 UNL     1      -3.653  53.114  10.200  1.00  0.00     0.275 HD
ATOM     17  H22 UNL     1      -2.929  51.778  10.516  1.00  0.00     0.275 HD
ATOM     18  H21 UNL     1      -4.550  51.905  10.952  1.00  0.00     0.275 HD
ENDBRANCH   9  15
ENDBRANCH   7   9
ENDBRANCH   6   7
ENDBRANCH   1   6
TORSDOF 5
ENDMDL