MODEL 4
REMARK VINA RESULT: -5.240111627      1.866      4.010
REMARK  4 active torsions:
REMARK  status: ('A' for Active; 'I' for Inactive)
REMARK    1  A    between atoms: O1_2  and  C2_3
REMARK    2  A    between atoms: C3_5  and  C4_6
REMARK    3  A    between atoms: C4_6  and  O3_7
REMARK    4  A    between atoms: C6_11  and  O5_13
ROOT
HETATM    1  C2  UNL     1      -4.139  52.449  11.991  1.00  0.00     0.327 C
HETATM    2  O2  UNL     1      -3.185  52.694  10.969  1.00  0.00    -0.315 OA
HETATM    3  C3  UNL     1      -1.900  53.025  11.393  1.00  0.00     0.095 C
HETATM    4  C5  UNL     1      -1.728  53.468  12.622  1.00  0.00     0.173 C
HETATM    5  O4  UNL     1      -2.793  53.619  13.523  1.00  0.00    -0.319 OA
HETATM    6  C6  UNL     1      -4.096  53.639  12.921  1.00  0.00     0.213 C
HETATM    7  C7  UNL     1      -5.113  53.550  14.012  1.00  0.00     0.085 C
ENDROOT
BRANCH   3   8
HETATM    8  C4  UNL     1      -0.764  52.869  10.449  1.00  0.00     0.230 C
BRANCH   8   9
HETATM    9  O3  UNL     1      -0.097  54.070  10.232  1.00  0.00    -0.394 OA
ATOM     10  H3  UNL     1       0.372  54.073   9.405  1.00  0.00     0.209 HD
ENDBRANCH   8   9
ENDBRANCH   3   8
BRANCH   1  11
HETATM   11  O1  UNL     1      -5.355  52.262  11.395  1.00  0.00    -0.360 OA
HETATM   12  C1  UNL     1      -5.715  50.923  11.521  1.00  0.00     0.205 C
ENDBRANCH   1  11
BRANCH   6  13
HETATM   13  O5  UNL     1      -4.209  54.847  12.252  1.00  0.00    -0.362 OA
ATOM     14  H5  UNL     1      -4.287  55.588  12.841  1.00  0.00     0.213 HD
ENDBRANCH   6  13
TORSDOF 4
ENDMDL