MODEL 3
REMARK VINA RESULT: -5.412445401      2.866      4.271
REMARK  3 active torsions:
REMARK  status: ('A' for Active; 'I' for Inactive)
REMARK    1  A    between atoms: C2_2  and  C3_3
REMARK    2  A    between atoms: C3_3  and  C4_4
REMARK    3  A    between atoms: C6_9  and  N3_10
ROOT
HETATM    1  C3  UNL     1      -5.109  53.042  13.036  1.00  0.00     0.171 C
HETATM    2  N1  UNL     1      -4.578  54.013  12.144  1.00  0.00    -0.300 N
ATOM      3  H1  UNL     1      -5.158  54.424  11.413  1.00  0.00     0.179 HD
HETATM    4  N2  UNL     1      -3.277  54.378  12.291  1.00  0.00    -0.086 NA
HETATM    5  C6  UNL     1      -2.420  53.240  12.163  1.00  0.00     0.433 C
HETATM    6  N4  UNL     1      -3.060  52.072  12.739  1.00  0.00    -0.140 N
HETATM    7  C7  UNL     1      -2.414  50.843  12.559  1.00  0.00     0.209 C
HETATM    8  N5  UNL     1      -1.860  49.826  12.405  1.00  0.00    -0.170 NA
HETATM    9  O1  UNL     1      -4.202  52.097  13.414  1.00  0.00    -0.231 OA
ENDROOT
BRANCH   5  10
HETATM   10  N3  UNL     1      -2.137  52.927  10.767  1.00  0.00    -0.040 N
ATOM     11  H33 UNL     1      -1.651  52.034  10.678  1.00  0.00     0.278 HD
ATOM     12  H32 UNL     1      -2.990  52.695  10.259  1.00  0.00     0.278 HD
ATOM     13  H31 UNL     1      -1.622  53.677  10.307  1.00  0.00     0.278 HD
ENDBRANCH   5  10
BRANCH   1  14
HETATM   14  C2  UNL     1      -5.708  53.766  14.247  1.00  0.00     0.060 C
HETATM   15  C1  UNL     1      -6.249  55.113  13.901  1.00  0.00     0.010 C
ENDBRANCH   1  14
BRANCH   1  16
HETATM   16  C4  UNL     1      -6.322  52.417  12.326  1.00  0.00     0.060 C
HETATM   17  C5  UNL     1      -5.970  51.108  11.692  1.00  0.00     0.010 C
ENDBRANCH   1  16
TORSDOF 3
ENDMDL