MODEL 1
REMARK VINA RESULT: -5.785623497      0.000      0.000
REMARK  4 active torsions:
REMARK  status: ('A' for Active; 'I' for Inactive)
REMARK    1  A    between atoms: C3_3  and  C5_5
REMARK    2  A    between atoms: C6_6  and  C7_7
REMARK    3  A    between atoms: C7_7  and  O2_9
REMARK    4  A    between atoms: N1_11  and  O3_12
ROOT
HETATM    1  C5  UNL     1      -5.947  53.804  12.937  1.00  0.00     0.145 A
HETATM    2  C6  UNL     1      -4.779  54.610  13.031  1.00  0.00     0.210 A
HETATM    3  N1  UNL     1      -5.464  54.106  14.270  1.00  0.00    -0.173 NA
ENDROOT
BRANCH   1   4
HETATM    4  C3  UNL     1      -6.044  52.401  12.486  1.00  0.00    -0.066 C
HETATM    5  C2  UNL     1      -7.118  51.901  11.921  1.00  0.00    -0.027 C
HETATM    6  C1  UNL     1      -8.398  52.569  11.638  1.00  0.00     0.036 C
HETATM    7  C4  UNL     1      -4.850  51.534  12.673  1.00  0.00     0.045 C
ENDBRANCH   1   4
BRANCH   2   8
HETATM    8  C7  UNL     1      -3.391  54.162  12.818  1.00  0.00     0.280 C
HETATM    9  O1  UNL     1      -2.537  54.108  13.743  1.00  0.00    -0.263 OA
BRANCH   8  10
HETATM   10  O2  UNL     1      -2.914  53.759  11.561  1.00  0.00    -0.325 OA
HETATM   11  C8  UNL     1      -1.599  53.220  11.405  1.00  0.00     0.213 C
ENDBRANCH   8  10
ENDBRANCH   2   8
BRANCH   3  12
HETATM   12  O3  UNL     1      -4.722  53.259  14.979  1.00  0.00    -0.311 OA
ATOM     13  H3  UNL     1      -5.070  52.463  15.363  1.00  0.00     0.237 HD
ENDBRANCH   3  12
TORSDOF 4
ENDMDL