MODEL 5
REMARK VINA RESULT: -6.050710441      1.373      2.155
REMARK  4 active torsions:
REMARK  status: ('A' for Active; 'I' for Inactive)
REMARK    1  A    between atoms: C2_2  and  C4_4
REMARK    2  A    between atoms: C5_6  and  C6_7
REMARK    3  A    between atoms: N1_8  and  O2_10
REMARK    4  A    between atoms: C7_13  and  O4_14
ROOT
HETATM    1  C4  UNL     1      -4.555  52.612  11.938  1.00  0.00     0.183 C
HETATM    2  O1  UNL     1      -5.572  52.337  12.845  1.00  0.00    -0.346 OA
HETATM    3  C5  UNL     1      -5.275  52.980  14.020  1.00  0.00     0.305 C
HETATM    4  O3  UNL     1      -3.941  53.352  13.980  1.00  0.00    -0.324 OA
HETATM    5  C7  UNL     1      -3.601  53.499  12.641  1.00  0.00     0.289 C
ENDROOT
BRANCH   3   6
HETATM    6  C6  UNL     1      -6.180  54.140  14.265  1.00  0.00     0.147 C
HETATM    7  N1  UNL     1      -5.732  55.216  14.812  1.00  0.00    -0.280 N
ATOM      8  H1  UNL     1      -4.749  55.268  15.078  1.00  0.00     0.193 HD
BRANCH   7   9
HETATM    9  O2  UNL     1      -6.540  56.284  15.043  1.00  0.00    -0.290 OA
ATOM     10  H2  UNL     1      -6.251  57.172  14.868  1.00  0.00     0.244 HD
ENDBRANCH   7   9
ENDBRANCH   3   6
BRANCH   1  11
HETATM   11  C2  UNL     1      -3.984  51.311  11.469  1.00  0.00     0.011 C
HETATM   12  C1  UNL     1      -3.137  51.401  10.253  1.00  0.00     0.012 C
HETATM   13  C3  UNL     1      -5.048  50.256  11.244  1.00  0.00     0.012 C
ENDBRANCH   1  11
BRANCH   5  14
HETATM   14  O4  UNL     1      -3.802  54.841  12.273  1.00  0.00    -0.368 OA
ATOM     15  H4  UNL     1      -3.116  55.136  11.686  1.00  0.00     0.212 HD
ENDBRANCH   5  14
TORSDOF 4
ENDMDL