MODEL 1
REMARK VINA RESULT: -5.061281350      0.000      0.000
REMARK  3 active torsions:
REMARK  status: ('A' for Active; 'I' for Inactive)
REMARK    1  A    between atoms: C3_4  and  O2_5
REMARK    2  A    between atoms: C5_9  and  C6_10
REMARK    3  A    between atoms: C6_10  and  C7_11
ROOT
HETATM    1  C1  UNL     1      -4.771  50.748  11.963  1.00  0.00     0.042 C
HETATM    2  C2  UNL     1      -4.822  52.277  12.111  1.00  0.00     0.149 C
HETATM    3  O1  UNL     1      -5.586  52.540  13.212  1.00  0.00    -0.352 OA
HETATM    4  C3  UNL     1      -5.392  53.737  13.818  1.00  0.00     0.280 C
HETATM    5  C4  UNL     1      -4.519  54.707  13.130  1.00  0.00     0.228 C
HETATM    6  O3  UNL     1      -3.524  54.204  12.357  1.00  0.00    -0.379 OA
HETATM    7  C5  UNL     1      -3.450  52.839  12.271  1.00  0.00     0.151 C
ENDROOT
BRANCH   7   8
HETATM    8  C6  UNL     1      -2.525  52.478  11.132  1.00  0.00     0.045 C
BRANCH   8   9
HETATM    9  C7  UNL     1      -1.258  53.302  11.243  1.00  0.00     0.088 C
HETATM   10  S1  UNL     1      -0.311  53.344   9.736  1.00  0.00    -0.098 SA
ENDBRANCH   8   9
ENDBRANCH   7   8
BRANCH   4  11
HETATM   11  O2  UNL     1      -4.959  53.485  15.140  1.00  0.00    -0.369 OA
ATOM     12  H2  UNL     1      -4.105  53.071  15.090  1.00  0.00     0.212 HD
ENDBRANCH   4  11
TORSDOF 3
ENDMDL