MODEL 5
REMARK VINA RESULT: -5.740926945      1.236      1.650
REMARK  4 active torsions:
REMARK  status: ('A' for Active; 'I' for Inactive)
REMARK    1  A    between atoms: C5_6  and  C6_7
REMARK    2  A    between atoms: C6_7  and  C7_8
REMARK    3  A    between atoms: C7_8  and  O2_9
REMARK    4  A    between atoms: N1_11  and  O3_13
ROOT
HETATM    1  C6  UNL     1      -5.659  54.191  14.513  1.00  0.00     0.120 C
ENDROOT
BRANCH   1   2
HETATM    2  C5  UNL     1      -4.977  53.258  13.578  1.00  0.00     0.156 C
HETATM    3  C4  UNL     1      -5.426  53.244  12.179  1.00  0.00     0.204 C
HETATM    4  O1  UNL     1      -4.231  53.219  11.438  1.00  0.00    -0.353 OA
HETATM    5  C2  UNL     1      -3.246  52.810  12.335  1.00  0.00     0.157 C
HETATM    6  C1  UNL     1      -1.880  53.331  11.882  1.00  0.00     0.078 C
HETATM    7  C3  UNL     1      -3.127  51.324  12.449  1.00  0.00     0.078 C
HETATM    8  O4  UNL     1      -3.597  53.428  13.526  1.00  0.00    -0.348 OA
ENDBRANCH   1   2
BRANCH   1   9
HETATM    9  C7  UNL     1      -6.178  55.425  13.960  1.00  0.00     0.137 C
HETATM   10  N1  UNL     1      -5.372  56.324  13.521  1.00  0.00    -0.251 N
ATOM     11  H1  UNL     1      -5.784  57.176  13.142  1.00  0.00     0.196 HD
BRANCH   9  12
HETATM   12  O2  UNL     1      -7.522  55.722  13.864  1.00  0.00    -0.348 OA
ATOM     13  H2  UNL     1      -8.153  55.556  14.554  1.00  0.00     0.219 HD
ENDBRANCH   9  12
BRANCH  10  14
HETATM   14  O3  UNL     1      -4.025  56.237  13.520  1.00  0.00    -0.288 OA
ATOM     15  H3  UNL     1      -3.435  56.802  14.005  1.00  0.00     0.244 HD
ENDBRANCH  10  14
ENDBRANCH   1   9
TORSDOF 4
ENDMDL