MODEL 2
REMARK VINA RESULT: -5.253691365      2.535      4.892
REMARK  5 active torsions:
REMARK  status: ('A' for Active; 'I' for Inactive)
REMARK    1  A    between atoms: N1_1  and  C1_5
REMARK    2  A    between atoms: C1_5  and  O1_6
REMARK    3  A    between atoms: C1_5  and  C2_8
REMARK    4  A    between atoms: C1_5  and  C8_14
REMARK    5  A    between atoms: C2_8  and  C3_9
ROOT
HETATM    1  C1  UNL     1      21.923  41.527  94.992  1.00  0.00     0.263 C
ENDROOT
BRANCH   1   2
HETATM    2  N1  UNL     1      22.379  40.152  94.833  1.00  0.00    -0.043 N
ATOM      3  H13 UNL     1      22.052  39.761  93.949  1.00  0.00     0.278 HD
ATOM      4  H12 UNL     1      23.385  40.119  94.669  1.00  0.00     0.278 HD
ATOM      5  H11 UNL     1      22.118  39.552  95.615  1.00  0.00     0.278 HD
ENDBRANCH   1   2
BRANCH   1   6
HETATM    6  O1  UNL     1      21.053  41.689  96.045  1.00  0.00    -0.362 OA
ATOM      7  H1  UNL     1      21.489  41.926  96.855  1.00  0.00     0.212 HD
ENDBRANCH   1   6
BRANCH   1   8
HETATM    8  C2  UNL     1      23.143  42.384  95.144  1.00  0.00     0.077 C
BRANCH   8   9
HETATM    9  C3  UNL     1      24.390  41.592  95.297  1.00  0.00    -0.010 C
HETATM   10  C4  UNL     1      25.146  41.871  96.570  1.00  0.00     0.005 C
HETATM   11  C5  UNL     1      26.612  41.612  96.208  1.00  0.00     0.000 C
HETATM   12  C6  UNL     1      26.631  41.312  94.725  1.00  0.00     0.000 C
HETATM   13  C7  UNL     1      25.405  42.067  94.252  1.00  0.00     0.005 C
ENDBRANCH   8   9
ENDBRANCH   1   8
BRANCH   1  14
HETATM   14  C8  UNL     1      21.184  41.890  93.715  1.00  0.00     0.304 C
HETATM   15  F1  UNL     1      21.031  40.810  92.877  1.00  0.00    -0.232 F
HETATM   16 BR1  UNL     1      22.096  43.362  92.831  1.00  0.00    -0.051 Br
ENDBRANCH   1  14
TORSDOF 5
ENDMDL