MODEL 2
REMARK VINA RESULT: -5.361094941      5.226      7.449
REMARK  3 active torsions:
REMARK  status: ('A' for Active; 'I' for Inactive)
REMARK    1  A    between atoms: N2_10  and  C7_11
REMARK    2  A    between atoms: C7_11  and  C8_12
REMARK    3  A    between atoms: C8_12  and  C9_13
ROOT
HETATM    1  N1  UNL     1      20.963  42.070  95.861  1.00  0.00    -0.389 N
ATOM      2  H11 UNL     1      20.022  41.784  96.129  1.00  0.00     0.157 HD
ATOM      3  H12 UNL     1      21.575  42.504  96.553  1.00  0.00     0.157 HD
HETATM    4  C1  UNL     1      21.440  41.908  94.676  1.00  0.00     0.071 C
HETATM    5  C2  UNL     1      22.806  42.323  94.286  1.00  0.00     0.076 C
HETATM    6  C3  UNL     1      22.819  43.008  92.934  1.00  0.00     0.010 C
HETATM    7  C4  UNL     1      21.439  43.057  92.334  1.00  0.00     0.035 C
HETATM    8  C5  UNL     1      20.764  41.708  92.332  1.00  0.00     0.076 C
HETATM    9  C6  UNL     1      21.518  40.687  91.500  1.00  0.00     0.304 C
HETATM   10  N2  UNL     1      21.043  40.802  90.160  1.00  0.00     0.092 N
HETATM   11  C10 UNL     1      19.970  41.778  90.130  1.00  0.00     0.295 C
HETATM   12  C11 UNL     1      19.464  41.800  91.569  1.00  0.00     0.140 C
HETATM   13 CL1  UNL     1      18.562  43.270  91.873  1.00  0.00    -0.120 Cl
HETATM   14  N3  UNL     1      20.571  41.291  93.691  1.00  0.00    -0.368 N
ATOM     15  H3  UNL     1      19.865  40.602  93.949  1.00  0.00     0.161 HD
ENDROOT
BRANCH  10  16
HETATM   16  C7  UNL     1      20.573  39.591  89.559  1.00  0.00     0.275 C
BRANCH  16  17
HETATM   17  C8  UNL     1      20.915  38.349  90.323  1.00  0.00     0.061 C
BRANCH  17  18
HETATM   18  C9  UNL     1      21.270  37.267  89.310  1.00  0.00     0.223 C
HETATM   19  F1  UNL     1      20.245  37.172  88.357  1.00  0.00    -0.255 F
ENDBRANCH  17  18
ENDBRANCH  16  17
ENDBRANCH  10  16
TORSDOF 3
ENDMDL