MODEL 1
REMARK VINA RESULT: -5.616466364      0.000      0.000
REMARK  3 active torsions:
REMARK  status: ('A' for Active; 'I' for Inactive)
REMARK    1  A    between atoms: C2_2  and  C4_4
REMARK    2  A    between atoms: C6_8  and  C7_9
REMARK    3  A    between atoms: C9_12  and  C10_13
ROOT
HETATM    1  C4  UNL     1      21.655  43.314  91.420  1.00  0.00     0.035 C
HETATM    2  C5  UNL     1      20.157  43.117  91.461  1.00  0.00     0.133 C
HETATM    3  N1  UNL     1      19.739  41.887  92.037  1.00  0.00    -0.394 N
ATOM      4  H1  UNL     1      18.754  41.641  92.127  1.00  0.00     0.155 HD
HETATM    5  C6  UNL     1      20.788  41.008  92.485  1.00  0.00     0.127 C
HETATM    6  C8  UNL     1      21.428  41.415  93.763  1.00  0.00     0.063 C
HETATM    7  C9  UNL     1      22.532  42.436  93.611  1.00  0.00     0.019 C
HETATM    8  C11 UNL     1      22.120  43.635  92.801  1.00  0.00     0.026 C
HETATM    9  N2  UNL     1      21.781  40.975  91.395  1.00  0.00    -0.353 N
ATOM     10  H2  UNL     1      22.130  40.078  91.056  1.00  0.00     0.163 HD
HETATM   11  C12 UNL     1      22.213  42.067  90.867  1.00  0.00     0.101 C
HETATM   12  N3  UNL     1      23.163  42.140  89.816  1.00  0.00    -0.087 NA
ENDROOT
BRANCH   1  13
HETATM   13  C2  UNL     1      21.988  44.474  90.509  1.00  0.00    -0.006 C
HETATM   14  C1  UNL     1      22.767  45.550  91.169  1.00  0.00     0.011 C
HETATM   15  C3  UNL     1      20.778  45.045  89.837  1.00  0.00     0.011 C
ENDBRANCH   1  13
BRANCH   7  16
HETATM   16  C10 UNL     1      22.822  42.967  95.021  1.00  0.00     0.227 C
HETATM   17  F2  UNL     1      21.704  42.899  95.819  1.00  0.00    -0.255 F
ENDBRANCH   7  16
BRANCH   5  18
HETATM   18  C7  UNL     1      20.238  39.597  92.556  1.00  0.00     0.275 C
HETATM   19  F1  UNL     1      20.739  38.787  91.559  1.00  0.00    -0.251 F
ENDBRANCH   5  18
TORSDOF 3
ENDMDL