MODEL 2
REMARK VINA RESULT: -5.125031483      1.712      1.995
REMARK  5 active torsions:
REMARK  status: ('A' for Active; 'I' for Inactive)
REMARK    1  A    between atoms: C1_2  and  N1_3
REMARK    2  A    between atoms: C1_2  and  N2_8
REMARK    3  A    between atoms: N1_3  and  C2_5
REMARK    4  A    between atoms: C2_5  and  C3_6
REMARK    5  A    between atoms: N2_8  and  N3_10
ROOT
HETATM    1  N2  UNL     1      20.510  40.295  93.230  1.00  0.00    -0.277 N
ATOM      2  H2  UNL     1      19.586  40.594  93.543  1.00  0.00     0.189 HD
ENDROOT
BRANCH   1   3
HETATM    3  C1  UNL     1      20.748  40.088  91.848  1.00  0.00     0.186 C
HETATM    4  S1  UNL     1      21.239  41.344  90.935  1.00  0.00    -0.040 SA
BRANCH   3   5
HETATM    5  N1  UNL     1      20.563  38.809  91.256  1.00  0.00    -0.365 N
ATOM      6  H1  UNL     1      20.328  38.008  91.841  1.00  0.00     0.161 HD
BRANCH   5   7
HETATM    7  C2  UNL     1      20.708  38.641  89.824  1.00  0.00     0.137 C
BRANCH   7   8
HETATM    8  C3  UNL     1      21.635  37.470  89.568  1.00  0.00     0.134 C
HETATM    9 CL1  UNL     1      20.757  36.294  88.569  1.00  0.00    -0.129 Cl
ENDBRANCH   7   8
ENDBRANCH   5   7
ENDBRANCH   3   5
ENDBRANCH   1   3
BRANCH   1  10
HETATM   10  N3  UNL     1      21.524  40.096  94.165  1.00  0.00    -0.307 N
HETATM   11  C4  UNL     1      22.115  41.076  94.757  1.00  0.00     0.004 C
HETATM   12  C5  UNL     1      21.732  42.459  94.462  1.00  0.00     0.054 C
HETATM   13  C9  UNL     1      23.189  40.787  95.742  1.00  0.00     0.054 C
HETATM   14  C6  UNL     1      22.915  43.392  94.363  1.00  0.00     0.006 C
HETATM   15  C7  UNL     1      24.007  43.048  95.330  1.00  0.00     0.001 C
HETATM   16  C8  UNL     1      24.405  41.602  95.296  1.00  0.00     0.006 C
ATOM     17  H3  UNL     1      21.808  39.143  94.387  1.00  0.00     0.186 HD
ENDBRANCH   1  10
TORSDOF 5
ENDMDL