MODEL 2
REMARK VINA RESULT: -4.255367588      2.406      3.872
REMARK  3 active torsions:
REMARK  status: ('A' for Active; 'I' for Inactive)
REMARK    1  A    between atoms: C2_2  and  N1_3
REMARK    2  A    between atoms: N1_3  and  C3_5
REMARK    3  A    between atoms: C3_5  and  C4_6
ROOT
HETATM    1  C3  UNL     1      20.331  41.269  91.687  1.00  0.00     0.142 C
HETATM    2  C6  UNL     1      21.272  42.265  92.344  1.00  0.00     0.045 C
HETATM    3  C7  UNL     1      21.442  42.053  93.821  1.00  0.00     0.023 C
HETATM    4  C8  UNL     1      22.014  40.691  94.170  1.00  0.00     0.122 C
HETATM    5  N2  UNL     1      21.158  39.726  93.533  1.00  0.00    -0.359 N
ATOM      6  H2  UNL     1      21.300  38.729  93.696  1.00  0.00     0.162 HD
HETATM    7  C9  UNL     1      20.125  40.161  92.683  1.00  0.00     0.248 C
HETATM    8  O1  UNL     1      18.970  39.620  92.735  1.00  0.00    -0.271 OA
ENDROOT
BRANCH   1   9
HETATM    9  N1  UNL     1      19.080  41.850  91.431  1.00  0.00    -0.403 N
ATOM     10  H1  UNL     1      18.308  41.234  91.176  1.00  0.00     0.154 HD
BRANCH   9  11
HETATM   11  C2  UNL     1      18.831  43.215  91.503  1.00  0.00     0.110 C
HETATM   12  C1  UNL     1      18.829  43.894  90.110  1.00  0.00     0.026 C
ENDBRANCH   9  11
ENDBRANCH   1   9
BRANCH   1  13
HETATM   13  C4  UNL     1      20.996  40.624  90.491  1.00  0.00     0.143 C
HETATM   14  C5  UNL     1      22.270  41.178  90.014  1.00  0.00     0.053 C
HETATM   15 CL1  UNL     1      19.799  40.812  89.143  1.00  0.00    -0.099 Cl
HETATM   16 CL2  UNL     1      21.165  38.851  90.699  1.00  0.00    -0.099 Cl
ENDBRANCH   1  13
TORSDOF 3
ENDMDL