MODEL 2
REMARK VINA RESULT: -5.665320868      1.732      2.074
REMARK  4 active torsions:
REMARK  status: ('A' for Active; 'I' for Inactive)
REMARK    1  A    between atoms: O1_2  and  C2_3
REMARK    2  A    between atoms: N2_7  and  C4_9
REMARK    3  A    between atoms: C4_9  and  C5_10
REMARK    4  A    between atoms: C5_10  and  O2_11
ROOT
HETATM    1  C2  UNL     1      20.780  40.434  91.598  1.00  0.00     0.167 A
HETATM    2  N1  UNL     1      21.435  40.474  92.781  1.00  0.00    -0.321 N
ATOM      3  H1  UNL     1      21.499  39.612  93.321  1.00  0.00     0.169 HD
HETATM    4  C3  UNL     1      22.002  41.569  93.287  1.00  0.00     0.110 A
HETATM    5  N2  UNL     1      22.624  41.644  94.391  1.00  0.00    -0.374 N
ATOM      6  H2  UNL     1      23.004  42.557  94.642  1.00  0.00     0.161 HD
HETATM    7  C6  UNL     1      21.913  42.753  92.545  1.00  0.00     0.005 A
HETATM    8  C7  UNL     1      22.522  44.022  93.042  1.00  0.00     0.054 C
HETATM    9  C8  UNL     1      21.260  42.776  91.333  1.00  0.00     0.069 A
HETATM   10 CL1  UNL     1      21.138  44.266  90.383  1.00  0.00    -0.082 Cl
HETATM   11  C9  UNL     1      20.707  41.607  90.889  1.00  0.00     0.107 A
HETATM   12 CL2  UNL     1      19.874  41.609  89.357  1.00  0.00    -0.078 Cl
ENDROOT
BRANCH   5  13
HETATM   13  C4  UNL     1      22.845  40.582  95.317  1.00  0.00     0.147 C
BRANCH  13  14
HETATM   14  C5  UNL     1      23.496  41.124  96.575  1.00  0.00     0.183 C
BRANCH  14  15
HETATM   15  O2  UNL     1      22.782  40.680  97.679  1.00  0.00    -0.399 OA
ATOM     16  H2  UNL     1      23.256  39.964  98.086  1.00  0.00     0.209 HD
ENDBRANCH  14  15
ENDBRANCH  13  14
ENDBRANCH   5  13
BRANCH   1  17
HETATM   17  O1  UNL     1      20.209  39.257  91.124  1.00  0.00    -0.339 OA
HETATM   18  C1  UNL     1      20.991  38.410  90.302  1.00  0.00     0.211 C
ENDBRANCH   1  17
TORSDOF 4
ENDMDL