MODEL 1
REMARK VINA RESULT: -5.265394862      0.000      0.000
REMARK  5 active torsions:
REMARK  status: ('A' for Active; 'I' for Inactive)
REMARK    1  A    between atoms: C2_2  and  O1_3
REMARK    2  A    between atoms: C5_7  and  C6_8
REMARK    3  A    between atoms: C5_7  and  C7_13
REMARK    4  A    between atoms: C6_8  and  N1_9
REMARK    5  A    between atoms: C7_13  and  N2_14
ROOT
HETATM    1  C1  UNL     1      26.228  42.172  96.372  1.00  0.00     0.052 C
HETATM    2  C2  UNL     1      25.516  41.659  95.117  1.00  0.00     0.119 C
HETATM    3  C3  UNL     1      24.305  40.931  95.550  1.00  0.00     0.044 C
HETATM    4  C4  UNL     1      23.066  41.130  94.741  1.00  0.00     0.016 C
HETATM    5  C5  UNL     1      22.591  42.510  94.580  1.00  0.00     0.013 C
HETATM    6  C11 UNL     1      23.836  43.432  94.713  1.00  0.00     0.095 C
HETATM    7  C12 UNL     1      25.098  42.811  94.243  1.00  0.00     0.274 C
HETATM    8  F1  UNL     1      25.191  42.535  92.914  1.00  0.00    -0.203 F
HETATM    9  F2  UNL     1      26.085  43.794  94.469  1.00  0.00    -0.203 F
ENDROOT
BRANCH   5  10
HETATM   10  C6  UNL     1      21.635  42.848  95.710  1.00  0.00     0.241 C
BRANCH  10  11
HETATM   11  N1  UNL     1      20.866  41.730  96.200  1.00  0.00    -0.079 N
ATOM     12  H13 UNL     1      19.946  42.041  96.510  1.00  0.00     0.274 HD
ATOM     13  H12 UNL     1      20.594  41.121  95.428  1.00  0.00     0.274 HD
ATOM     14  H11 UNL     1      21.324  41.190  96.934  1.00  0.00     0.274 HD
ENDBRANCH  10  11
ENDBRANCH   5  10
BRANCH   5  15
HETATM   15  C7  UNL     1      21.986  42.910  93.296  1.00  0.00     0.247 C
BRANCH  15  16
HETATM   16  N2  UNL     1      21.285  42.112  92.426  1.00  0.00    -0.078 N
HETATM   17  C8  UNL     1      20.037  42.841  92.066  1.00  0.00     0.271 C
HETATM   18  C9  UNL     1      20.852  40.803  92.722  1.00  0.00     0.271 C
HETATM   19  C10 UNL     1      21.957  42.029  91.096  1.00  0.00     0.271 C
ENDBRANCH  15  16
ENDBRANCH   5  15
BRANCH   2  20
HETATM   20  O1  UNL     1      26.452  40.863  94.449  1.00  0.00    -0.384 OA
ATOM     21  H1  UNL     1      26.493  41.203  93.563  1.00  0.00     0.210 HD
ENDBRANCH   2  20
TORSDOF 5
ENDMDL