MODEL 2
REMARK VINA RESULT: -5.660094221      4.576      6.187
REMARK  3 active torsions:
REMARK  status: ('A' for Active; 'I' for Inactive)
REMARK    1  A    between atoms: C2_2  and  C3_3
REMARK    2  A    between atoms: C3_3  and  C4_4
REMARK    3  A    between atoms: C4_4  and  N1_5
ROOT
HETATM    1  N1  UNL     1      23.337  41.544  95.836  1.00  0.00    -0.372 N
ATOM      2  H1  UNL     1      22.977  41.809  96.753  1.00  0.00     0.161 HD
HETATM    3  C5  UNL     1      24.610  41.564  95.618  1.00  0.00     0.172 A
HETATM    4  N2  UNL     1      25.148  41.227  94.432  1.00  0.00    -0.326 N
ATOM      5  H2  UNL     1      24.527  40.945  93.674  1.00  0.00     0.168 HD
HETATM    6  C6  UNL     1      26.475  41.248  94.207  1.00  0.00     0.144 A
HETATM    7 CL1  UNL     1      27.162  40.806  92.655  1.00  0.00    -0.061 Cl
HETATM    8  C7  UNL     1      27.357  41.623  95.200  1.00  0.00     0.145 A
HETATM    9 CL2  UNL     1      29.088  41.662  94.945  1.00  0.00    -0.061 Cl
HETATM   10  N3  UNL     1      26.823  41.959  96.387  1.00  0.00    -0.308 N
ATOM     11  H3  UNL     1      27.444  42.241  97.146  1.00  0.00     0.170 HD
HETATM   12  C8  UNL     1      25.495  41.937  96.607  1.00  0.00     0.290 A
HETATM   13  O1  UNL     1      25.017  42.256  97.724  1.00  0.00    -0.264 OA
ENDROOT
BRANCH   1  14
HETATM   14  C4  UNL     1      22.415  41.149  94.788  1.00  0.00     0.121 C
BRANCH  14  15
HETATM   15  C3  UNL     1      21.438  42.267  94.472  1.00  0.00     0.019 C
BRANCH  15  16
HETATM   16  C2  UNL     1      21.742  42.733  93.052  1.00  0.00    -0.003 C
HETATM   17  C1  UNL     1      22.726  43.868  93.130  1.00  0.00     0.005 C
ENDBRANCH  15  16
ENDBRANCH  14  15
ENDBRANCH   1  14
TORSDOF 3
ENDMDL