MODEL 5
REMARK VINA RESULT: -4.696646851      2.451      2.973
REMARK  4 active torsions:
REMARK  status: ('A' for Active; 'I' for Inactive)
REMARK    1  A    between atoms: O1_2  and  C2_3
REMARK    2  A    between atoms: C2_3  and  C3_4
REMARK    3  A    between atoms: C6_11  and  C7_12
REMARK    4  A    between atoms: C8_13  and  C9_14
ROOT
HETATM    1  C3  UNL     1      -0.981  42.661  24.208  1.00  0.00     0.090 A
HETATM    2  N1  UNL     1      -1.336  41.830  23.252  1.00  0.00    -0.297 N
ATOM      3  H1  UNL     1      -2.204  41.877  22.720  1.00  0.00     0.187 HD
HETATM    4  N2  UNL     1      -0.348  40.885  23.084  1.00  0.00    -0.303 N
ATOM      5  H2  UNL     1      -0.357  40.121  22.408  1.00  0.00     0.186 HD
HETATM    6  C4  UNL     1       0.606  41.143  23.947  1.00  0.00     0.043 A
HETATM    7  C5  UNL     1       1.886  40.433  24.216  1.00  0.00     0.071 C
HETATM    8  C6  UNL     1       0.231  42.275  24.679  1.00  0.00     0.071 A
ENDROOT
BRANCH   8   9
HETATM    9  C7  UNL     1       0.949  42.766  25.820  1.00  0.00    -0.057 C
HETATM   10  C8  UNL     1       1.433  43.269  26.793  1.00  0.00    -0.060 C
BRANCH  10  11
HETATM   11  C9  UNL     1       1.875  43.899  28.027  1.00  0.00     0.033 A
HETATM   12  C10 UNL     1       0.936  44.167  28.994  1.00  0.00     0.023 A
HETATM   13  C11 UNL     1       1.310  44.687  30.165  1.00  0.00     0.019 A
HETATM   14  C12 UNL     1       2.610  44.950  30.438  1.00  0.00     0.090 A
HETATM   15  N3  UNL     1       3.562  44.686  29.491  1.00  0.00    -0.369 N
HETATM   16  C13 UNL     1       4.926  45.029  29.812  1.00  0.00     0.154 C
HETATM   17  C14 UNL     1       3.180  44.170  28.300  1.00  0.00     0.110 A
ENDBRANCH  10  11
ENDBRANCH   8   9
BRANCH   1  18
HETATM   18  C2  UNL     1      -1.559  44.026  24.555  1.00  0.00     0.166 C
BRANCH  18  19
HETATM   19  O1  UNL     1      -2.085  44.296  25.680  1.00  0.00    -0.365 OA
HETATM   20  C1  UNL     1      -2.583  43.634  26.671  1.00  0.00     0.209 C
ENDBRANCH  18  19
ENDBRANCH   1  18
TORSDOF 4
ENDMDL