MODEL 4
REMARK VINA RESULT: -4.944814841      1.971      3.182
REMARK  4 active torsions:
REMARK  status: ('A' for Active; 'I' for Inactive)
REMARK    1  A    between atoms: C3_4  and  N1_5
REMARK    2  A    between atoms: N1_5  and  O2_7
REMARK    3  A    between atoms: C7_12  and  C8_13
REMARK    4  A    between atoms: C8_13  and  N3_14
ROOT
HETATM    1  C1  UNL     1       4.276  43.525  25.594  1.00  0.00     0.077 C
HETATM    2  C2  UNL     1       3.863  43.892  26.977  1.00  0.00     0.061 A
HETATM    3  O1  UNL     1       4.509  44.636  27.806  1.00  0.00    -0.295 OA
HETATM    4  C3  UNL     1       3.911  44.785  28.937  1.00  0.00     0.191 A
HETATM    5  C5  UNL     1       2.721  44.044  28.835  1.00  0.00     0.108 A
HETATM    6  C6  UNL     1       1.762  43.944  29.868  1.00  0.00     0.104 C
HETATM    7  N2  UNL     1       0.992  43.883  30.729  1.00  0.00    -0.191 NA
HETATM    8  C7  UNL     1       2.672  43.471  27.600  1.00  0.00     0.015 A
ENDROOT
BRANCH   4   9
HETATM    9  N1  UNL     1       4.291  45.515  30.091  1.00  0.00    -0.242 N
HETATM   10  C4  UNL     1       5.388  45.137  30.955  1.00  0.00     0.188 C
BRANCH   9  11
HETATM   11  O2  UNL     1       3.612  46.649  30.454  1.00  0.00    -0.286 OA
ATOM     12  H2  UNL     1       3.206  47.201  29.796  1.00  0.00     0.244 HD
ENDBRANCH   9  11
ENDBRANCH   4   9
BRANCH   8  13
HETATM   13  C8  UNL     1       1.710  42.610  26.920  1.00  0.00     0.170 C
BRANCH  13  14
HETATM   14  N3  UNL     1       0.561  43.197  26.334  1.00  0.00    -0.362 N
HETATM   15  C9  UNL     1       0.563  43.558  25.036  1.00  0.00     0.090 A
HETATM   16  C10 UNL     1      -0.557  44.161  24.454  1.00  0.00     0.017 A
HETATM   17  C11 UNL     1      -1.687  44.396  25.205  1.00  0.00     0.003 A
HETATM   18  C12 UNL     1      -1.661  44.016  26.528  1.00  0.00     0.017 A
HETATM   19  C13 UNL     1      -0.540  43.424  27.074  1.00  0.00     0.090 A
ENDBRANCH  13  14
ENDBRANCH   8  13
TORSDOF 4
ENDMDL