MODEL 4
REMARK VINA RESULT: -4.514234486      2.757      4.152
REMARK  2 active torsions:
REMARK  status: ('A' for Active; 'I' for Inactive)
REMARK    1  A    between atoms: N2_9  and  C7_10
REMARK    2  A    between atoms: C12_17  and  N4_18
ROOT
HETATM    1  C1  UNL     1      -0.239  39.936  31.923  1.00  0.00     0.037 C
HETATM    2  C2  UNL     1      -0.593  40.326  30.522  1.00  0.00    -0.015 C
HETATM    3  C3  UNL     1      -0.185  41.476  30.016  1.00  0.00     0.014 A
HETATM    4  C4  UNL     1       0.614  42.360  30.838  1.00  0.00     0.041 A
HETATM    5  C5  UNL     1       1.029  43.502  30.337  1.00  0.00     0.023 A
HETATM    6  C6  UNL     1       1.845  44.392  31.196  1.00  0.00     0.070 C
HETATM    7  N1  UNL     1       0.695  43.858  29.011  1.00  0.00    -0.295 N
ATOM      8  H1  UNL     1       1.027  44.749  28.641  1.00  0.00     0.187 HD
HETATM    9  N2  UNL     1      -0.087  43.018  28.175  1.00  0.00    -0.217 N
HETATM   10  C12 UNL     1      -0.495  41.913  28.640  1.00  0.00     0.206 A
ENDROOT
BRANCH   9  11
HETATM   11  C7  UNL     1      -0.349  43.439  26.851  1.00  0.00     0.129 A
HETATM   12  C8  UNL     1       0.543  43.286  25.824  1.00  0.00     0.050 A
HETATM   13  C9  UNL     1       0.214  43.744  24.546  1.00  0.00     0.005 A
HETATM   14  C10 UNL     1      -1.014  44.340  24.370  1.00  0.00     0.017 A
HETATM   15  C11 UNL     1      -1.910  44.491  25.406  1.00  0.00     0.090 A
HETATM   16  N3  UNL     1      -1.565  44.044  26.614  1.00  0.00    -0.351 N
ATOM     17  H3  UNL     1      -2.222  44.152  27.386  1.00  0.00     0.166 HD
ENDBRANCH   9  11
BRANCH  10  18
HETATM   18  N4  UNL     1      -1.260  41.004  27.871  1.00  0.00    -0.095 N
HETATM   19  O1  UNL     1      -2.481  41.146  27.794  1.00  0.00    -0.530 OA
HETATM   20  O2  UNL     1      -0.655  39.983  27.205  1.00  0.00    -0.530 OA
ENDBRANCH  10  18
TORSDOF 2
ENDMDL