MODEL 1
REMARK VINA RESULT: -4.922530791      0.000      0.000
REMARK  3 active torsions:
REMARK  status: ('A' for Active; 'I' for Inactive)
REMARK    1  A    between atoms: C3_5  and  N2_6
REMARK    2  A    between atoms: N2_6  and  C4_8
REMARK    3  A    between atoms: C4_8  and  C5_9
ROOT
HETATM    1  C1  UNL     1      -1.274  44.384  24.444  1.00  0.00     0.089 C
HETATM    2  C2  UNL     1      -1.267  43.581  25.713  1.00  0.00     0.079 A
HETATM    3  N1  UNL     1      -0.333  43.783  26.648  1.00  0.00    -0.333 N
ATOM      4  H1  UNL     1       0.379  44.495  26.481  1.00  0.00     0.168 HD
HETATM    5  C3  UNL     1      -0.292  43.088  27.794  1.00  0.00     0.105 A
HETATM    6  C11 UNL     1      -1.251  42.128  28.016  1.00  0.00     0.089 A
HETATM    7  C12 UNL     1      -2.212  41.916  27.064  1.00  0.00     0.118 A
HETATM    8  C13 UNL     1      -3.229  40.925  27.259  1.00  0.00     0.117 C
HETATM    9  N4  UNL     1      -4.045  40.109  27.404  1.00  0.00    -0.190 NA
HETATM   10  N5  UNL     1      -2.200  42.637  25.947  1.00  0.00    -0.338 N
ATOM     11  H5  UNL     1      -2.921  42.470  25.245  1.00  0.00     0.168 HD
ENDROOT
BRANCH   5  12
HETATM   12  N2  UNL     1       0.615  43.294  28.685  1.00  0.00    -0.372 N
ATOM     13  H2  UNL     1       1.098  42.517  29.136  1.00  0.00     0.161 HD
BRANCH  12  14
HETATM   14  C4  UNL     1       0.927  44.667  29.024  1.00  0.00     0.160 C
BRANCH  14  15
HETATM   15  C5  UNL     1       2.414  44.769  29.134  1.00  0.00    -0.038 A
HETATM   16  C6  UNL     1       3.258  44.218  28.192  1.00  0.00     0.026 A
HETATM   17  C7  UNL     1       4.625  44.338  28.336  1.00  0.00     0.090 A
HETATM   18  N3  UNL     1       5.199  44.977  29.364  1.00  0.00    -0.371 N
HETATM   19  C8  UNL     1       6.653  45.073  29.463  1.00  0.00     0.154 C
HETATM   20  C9  UNL     1       4.386  45.519  30.288  1.00  0.00     0.090 A
HETATM   21  C10 UNL     1       3.012  45.429  30.194  1.00  0.00     0.026 A
ENDBRANCH  14  15
ENDBRANCH  12  14
ENDBRANCH   5  12
TORSDOF 3
ENDMDL