MODEL 5
REMARK VINA RESULT: -4.578458542      2.567      4.483
REMARK  3 active torsions:
REMARK  status: ('A' for Active; 'I' for Inactive)
REMARK    1  A    between atoms: C2_2  and  O1_3
REMARK    2  A    between atoms: O1_3  and  C3_4
REMARK    3  A    between atoms: N3_16  and  O2_17
ROOT
HETATM    1  C3  UNL     1       0.501  42.617  25.689  1.00  0.00     0.184 A
HETATM    2  C4  UNL     1       1.189  43.242  26.745  1.00  0.00     0.044 A
HETATM    3  C5  UNL     1       0.522  43.702  27.854  1.00  0.00     0.018 A
HETATM    4  C6  UNL     1       1.211  44.312  28.881  1.00  0.00     0.001 A
HETATM    5  C7  UNL     1       2.579  44.453  28.778  1.00  0.00     0.002 A
HETATM    6  C8  UNL     1       3.281  44.004  27.682  1.00  0.00     0.031 A
HETATM    7  C9  UNL     1       2.550  43.398  26.676  1.00  0.00     0.050 A
HETATM    8  N1  UNL     1       3.206  42.942  25.578  1.00  0.00    -0.326 N
HETATM    9  C10 UNL     1       4.625  43.119  25.533  1.00  0.00     0.159 C
HETATM   10  C11 UNL     1       2.568  42.346  24.565  1.00  0.00     0.219 A
HETATM   11  C12 UNL     1       3.288  41.874  23.418  1.00  0.00     0.139 C
HETATM   12  N2  UNL     1       3.857  41.487  22.470  1.00  0.00    -0.188 NA
HETATM   13  N3  UNL     1       1.221  42.196  24.642  1.00  0.00    -0.173 N
ENDROOT
BRANCH  13  14
HETATM   14  O2  UNL     1       0.616  41.588  23.539  1.00  0.00    -0.279 OA
ATOM     15  H2  UNL     1       1.083  40.962  23.000  1.00  0.00     0.245 HD
ENDBRANCH  13  14
BRANCH   1  16
HETATM   16  O1  UNL     1      -0.828  42.508  25.842  1.00  0.00    -0.334 OA
BRANCH  16  17
HETATM   17  C2  UNL     1      -1.941  43.094  25.334  1.00  0.00     0.173 C
HETATM   18  C1  UNL     1      -1.657  44.270  24.431  1.00  0.00     0.034 C
ENDBRANCH  16  17
ENDBRANCH   1  16
TORSDOF 3
ENDMDL