MODEL 4
REMARK VINA RESULT: -5.634743354      0.204      1.965
REMARK  4 active torsions:
REMARK  status: ('A' for Active; 'I' for Inactive)
REMARK    1  A    between atoms: C2_3  and  C4_6
REMARK    2  A    between atoms: C5_9  and  C6_10
REMARK    3  A    between atoms: C6_10  and  C7_11
REMARK    4  A    between atoms: C14_18  and  C15_19
ROOT
HETATM    1  N1  UNL     1       5.329  44.741  25.875  1.00  0.00    -0.191 NA
HETATM    2  C1  UNL     1       4.912  44.273  26.832  1.00  0.00     0.113 C
HETATM    3  C2  UNL     1       4.348  43.680  28.071  1.00  0.00     0.152 C
HETATM    4  C3  UNL     1       5.224  42.811  28.762  1.00  0.00     0.113 C
HETATM    5  N2  UNL     1       5.980  42.090  29.285  1.00  0.00    -0.191 NA
ENDROOT
BRANCH   3   6
HETATM    6  C4  UNL     1       3.116  43.975  28.356  1.00  0.00     0.077 A
HETATM    7  N3  UNL     1       2.073  43.305  27.739  1.00  0.00    -0.354 N
HETATM    8  C5  UNL     1       0.898  43.721  28.174  1.00  0.00     0.034 A
ATOM      9  H3  UNL     1       2.197  42.579  27.033  1.00  0.00     0.166 HD
HETATM   10  C13 UNL     1       1.144  44.685  29.098  1.00  0.00     0.046 A
HETATM   11  C14 UNL     1       2.554  44.870  29.232  1.00  0.00     0.033 A
BRANCH   8  12
HETATM   12  C6  UNL     1      -0.312  43.322  27.827  1.00  0.00     0.041 C
BRANCH  12  13
HETATM   13  C7  UNL     1      -0.739  43.210  26.456  1.00  0.00    -0.034 A
HETATM   14  C8  UNL     1      -0.822  41.968  25.854  1.00  0.00     0.011 A
HETATM   15  C9  UNL     1      -1.229  41.902  24.554  1.00  0.00     0.001 A
HETATM   16  C10 UNL     1      -1.548  43.032  23.860  1.00  0.00     0.000 A
HETATM   17  C11 UNL     1      -1.469  44.270  24.446  1.00  0.00     0.001 A
HETATM   18  C12 UNL     1      -1.058  44.367  25.766  1.00  0.00     0.011 A
ENDBRANCH  12  13
ENDBRANCH   8  12
BRANCH  11  19
HETATM   19  C15 UNL     1       3.120  45.888  30.076  1.00  0.00     0.272 C
HETATM   20  O1  UNL     1       4.277  46.239  30.138  1.00  0.00    -0.301 OA
ENDBRANCH  11  19
ENDBRANCH   3   6
TORSDOF 4
ENDMDL