MODEL 3
REMARK VINA RESULT: -4.699337886      2.566      3.198
REMARK  6 active torsions:
REMARK  status: ('A' for Active; 'I' for Inactive)
REMARK    1  A    between atoms: C1_2  and  N1_3
REMARK    2  A    between atoms: N1_3  and  C2_5
REMARK    3  A    between atoms: C2_5  and  C3_6
REMARK    4  A    between atoms: C2_5  and  N2_13
REMARK    5  A    between atoms: C3_6  and  C4_7
REMARK    6  A    between atoms: N2_13  and  C10_15
ROOT
HETATM    1  C2  UNL     1       2.975  42.910  25.739  1.00  0.00     0.089 C
ENDROOT
BRANCH   1   2
HETATM    2  N1  UNL     1       3.496  44.083  25.736  1.00  0.00    -0.324 N
ATOM      3  H1  UNL     1       3.012  44.822  25.226  1.00  0.00     0.169 HD
BRANCH   2   4
HETATM    4  C1  UNL     1       4.693  44.408  26.393  1.00  0.00     0.354 C
HETATM    5  O1  UNL     1       5.679  44.759  25.670  1.00  0.00    -0.283 OA
ENDBRANCH   2   4
ENDBRANCH   1   2
BRANCH   1   6
HETATM    6  C3  UNL     1       1.901  42.632  26.718  1.00  0.00     0.115 C
BRANCH   6   7
HETATM    7  C4  UNL     1       0.649  43.215  26.180  1.00  0.00    -0.051 A
HETATM    8  C5  UNL     1      -0.404  43.467  27.031  1.00  0.00     0.007 A
HETATM    9  C6  UNL     1      -1.585  44.008  26.572  1.00  0.00     0.001 A
HETATM   10  C7  UNL     1      -1.727  44.308  25.238  1.00  0.00     0.000 A
HETATM   11  C8  UNL     1      -0.674  44.057  24.385  1.00  0.00     0.001 A
HETATM   12  C9  UNL     1       0.505  43.516  24.845  1.00  0.00     0.007 A
ENDBRANCH   6   7
ENDBRANCH   1   6
BRANCH   1  13
HETATM   13  N2  UNL     1       3.376  41.903  24.867  1.00  0.00    -0.325 N
ATOM     14  H2  UNL     1       3.239  40.931  25.144  1.00  0.00     0.169 HD
BRANCH  13  15
HETATM   15  C10 UNL     1       3.926  42.156  23.701  1.00  0.00     0.165 A
HETATM   16  N3  UNL     1       3.291  42.528  22.583  1.00  0.00    -0.279 N
HETATM   17  N4  UNL     1       3.979  42.732  21.540  1.00  0.00    -0.303 N
ATOM     18  H3  UNL     1       2.277  42.645  22.571  1.00  0.00     0.189 HD
HETATM   19  C11 UNL     1       5.293  42.582  21.554  1.00  0.00     0.160 A
ATOM     20  H4  UNL     1       3.514  43.017  20.678  1.00  0.00     0.186 HD
HETATM   21  S1  UNL     1       5.550  42.116  23.176  1.00  0.00    -0.046 SA
ENDBRANCH  13  15
ENDBRANCH   1  13
TORSDOF 6
ENDMDL