MODEL 5
REMARK VINA RESULT: -5.112402755      2.317      2.990
REMARK  4 active torsions:
REMARK  status: ('A' for Active; 'I' for Inactive)
REMARK    1  A    between atoms: N2_5  and  C4_6
REMARK    2  A    between atoms: C4_6  and  C5_7
REMARK    3  A    between atoms: C12_15  and  C13_16
REMARK    4  A    between atoms: C14_17  and  N4_18
ROOT
HETATM    1  C5  UNL     1       0.233  42.517  25.563  1.00  0.00    -0.038 A
HETATM    2  C6  UNL     1       0.284  43.569  24.681  1.00  0.00     0.009 A
HETATM    3  C7  UNL     1      -0.761  44.446  24.481  1.00  0.00     0.002 A
HETATM    4  C8  UNL     1      -1.941  44.278  25.197  1.00  0.00     0.022 A
HETATM    5  C9  UNL     1      -2.020  43.232  26.089  1.00  0.00     0.045 A
HETATM    6  C10 UNL     1      -3.250  43.080  26.816  1.00  0.00     0.099 C
HETATM    7  N3  UNL     1      -4.260  42.948  27.403  1.00  0.00    -0.191 NA
HETATM    8  C11 UNL     1      -0.954  42.362  26.273  1.00  0.00     0.031 A
ENDROOT
BRANCH   1   9
HETATM    9  C4  UNL     1       1.355  41.578  25.780  1.00  0.00     0.169 C
BRANCH   9  10
HETATM   10  N2  UNL     1       2.641  42.253  25.831  1.00  0.00    -0.330 N
HETATM   11  C3  UNL     1       3.642  42.069  24.924  1.00  0.00     0.110 A
HETATM   12  C2  UNL     1       4.714  42.856  25.270  1.00  0.00     0.110 A
HETATM   13  N1  UNL     1       4.361  43.516  26.386  1.00  0.00    -0.339 N
HETATM   14  C1  UNL     1       5.236  44.471  27.086  1.00  0.00     0.158 C
HETATM   15  C12 UNL     1       3.127  43.147  26.705  1.00  0.00     0.167 A
BRANCH  15  16
HETATM   16  C13 UNL     1       2.393  43.644  27.850  1.00  0.00    -0.007 C
HETATM   17  C14 UNL     1       1.783  44.077  28.797  1.00  0.00     0.012 C
BRANCH  17  18
HETATM   18  N4  UNL     1       1.075  44.599  29.886  1.00  0.00    -0.359 N
ATOM     19  H42 UNL     1       1.894  44.767  29.302  1.00  0.00     0.166 HD
ATOM     20  H41 UNL     1       0.549  44.968  30.679  1.00  0.00     0.166 HD
ENDBRANCH  17  18
ENDBRANCH  15  16
ENDBRANCH   9  10
ENDBRANCH   1   9
TORSDOF 4
ENDMDL