MODEL 5
REMARK VINA RESULT: -5.119986962      2.681      3.411
REMARK  5 active torsions:
REMARK  status: ('A' for Active; 'I' for Inactive)
REMARK    1  A    between atoms: N2_6  and  O2_7
REMARK    2  A    between atoms: C4_10  and  C5_11
REMARK    3  A    between atoms: C6_12  and  C7_13
REMARK    4  A    between atoms: C7_13  and  O3_14
REMARK    5  A    between atoms: O3_14  and  C8_15
ROOT
HETATM    1  O1  UNL     1       1.053  41.690  31.581  1.00  0.00    -0.267 OA
HETATM    2  C1  UNL     1       1.399  42.779  31.062  1.00  0.00     0.266 A
HETATM    3  N1  UNL     1       2.283  43.586  31.678  1.00  0.00    -0.316 N
ATOM      4  H1  UNL     1       2.673  43.305  32.578  1.00  0.00     0.170 HD
HETATM    5  C2  UNL     1       2.665  44.758  31.133  1.00  0.00     0.215 A
HETATM    6  N2  UNL     1       2.147  45.126  29.947  1.00  0.00    -0.230 N
HETATM    7  C3  UNL     1       1.258  44.333  29.305  1.00  0.00     0.150 A
HETATM    8  C4  UNL     1       0.848  43.123  29.842  1.00  0.00     0.103 A
ENDROOT
BRANCH   8   9
HETATM    9  C5  UNL     1      -0.095  42.262  29.183  1.00  0.00    -0.058 C
HETATM   10  C6  UNL     1      -0.897  41.550  28.624  1.00  0.00    -0.074 C
BRANCH  10  11
HETATM   11  C7  UNL     1      -1.886  40.698  27.938  1.00  0.00     0.269 C
BRANCH  11  12
HETATM   12  O3  UNL     1      -2.760  41.578  27.257  1.00  0.00    -0.340 OA
BRANCH  12  13
HETATM   13  C8  UNL     1      -2.329  42.376  26.197  1.00  0.00     0.070 A
HETATM   14  C9  UNL     1      -2.215  43.732  26.352  1.00  0.00     0.037 A
HETATM   15  C10 UNL     1      -1.787  44.501  25.293  1.00  0.00     0.003 A
HETATM   16  C11 UNL     1      -1.487  43.858  24.098  1.00  0.00     0.000 A
HETATM   17  C12 UNL     1      -1.600  42.499  23.932  1.00  0.00     0.003 A
HETATM   18  C13 UNL     1      -2.029  41.735  25.001  1.00  0.00     0.037 A
ENDBRANCH  12  13
ENDBRANCH  11  12
ENDBRANCH  10  11
ENDBRANCH   8   9
BRANCH   6  19
HETATM   19  O2  UNL     1       2.551  46.323  29.412  1.00  0.00    -0.282 OA
ATOM     20  H2  UNL     1       2.597  46.396  28.466  1.00  0.00     0.245 HD
ENDBRANCH   6  19
TORSDOF 5
ENDMDL