MODEL 2
REMARK VINA RESULT: -5.400847626      0.061      1.130
REMARK  3 active torsions:
REMARK  status: ('A' for Active; 'I' for Inactive)
REMARK    1  A    between atoms: C2_2  and  C3_3
REMARK    2  A    between atoms: N1_6  and  O1_7
REMARK    3  A    between atoms: N3_13  and  C8_14
ROOT
HETATM    1  C3  UNL     1       2.062  43.255  26.834  1.00  0.00     0.059 A
HETATM    2  C4  UNL     1       3.348  43.710  27.071  1.00  0.00     0.062 A
HETATM    3  C5  UNL     1       4.462  43.293  26.185  1.00  0.00     0.073 C
HETATM    4  N1  UNL     1       3.600  44.537  28.108  1.00  0.00    -0.214 N
HETATM    5  C6  UNL     1       2.639  44.955  28.947  1.00  0.00     0.120 A
HETATM    6  C7  UNL     1       2.943  45.871  30.087  1.00  0.00     0.093 C
HETATM    7  N2  UNL     1       1.395  44.506  28.707  1.00  0.00    -0.280 N
ATOM      8  H2  UNL     1       0.638  44.802  29.323  1.00  0.00     0.189 HD
HETATM    9  N3  UNL     1       1.114  43.683  27.684  1.00  0.00    -0.257 N
ENDROOT
BRANCH   9  10
HETATM   10  C8  UNL     1      -0.225  43.243  27.480  1.00  0.00     0.056 A
HETATM   11  C9  UNL     1      -0.620  42.032  27.994  1.00  0.00     0.033 A
HETATM   12  C10 UNL     1      -1.891  41.561  27.835  1.00  0.00     0.029 A
HETATM   13  C11 UNL     1      -2.795  42.349  27.126  1.00  0.00     0.046 A
HETATM   14  N4  UNL     1      -4.115  41.845  26.969  1.00  0.00    -0.102 NA
HETATM   15  C12 UNL     1      -2.396  43.563  26.610  1.00  0.00     0.029 A
HETATM   16  C13 UNL     1      -1.108  44.027  26.780  1.00  0.00     0.033 A
ENDBRANCH   9  10
BRANCH   1  17
HETATM   17  C2  UNL     1       1.744  42.351  25.716  1.00  0.00     0.057 C
HETATM   18  C1  UNL     1       1.453  43.057  24.422  1.00  0.00     0.011 C
ENDBRANCH   1  17
BRANCH   4  19
HETATM   19  O1  UNL     1       4.892  44.999  28.353  1.00  0.00    -0.281 OA
ATOM     20  H1  UNL     1       5.238  45.748  27.882  1.00  0.00     0.245 HD
ENDBRANCH   4  19
TORSDOF 3
ENDMDL