MODEL 4
REMARK VINA RESULT: -5.611697976      2.005      6.075
REMARK  5 active torsions:
REMARK  status: ('A' for Active; 'I' for Inactive)
REMARK    1  A    between atoms: O1_2  and  C2_3
REMARK    2  A    between atoms: C2_3  and  C3_5
REMARK    3  A    between atoms: C3_5  and  N1_7
REMARK       I    between atoms: N1_7  and  C4_9
REMARK    4  A    between atoms: C4_9  and  C5_11
REMARK    5  A    between atoms: C7_13  and  O4_15
ROOT
HETATM    1  N1  UNL     1      -3.069  53.088  11.541  1.00  0.00    -0.313 N
ATOM      2  H1  UNL     1      -3.321  53.657  10.733  1.00  0.00     0.170 HD
HETATM    3  C4  UNL     1      -1.712  52.707  11.684  1.00  0.00     0.230 C
HETATM    4  O3  UNL     1      -1.431  52.009  12.688  1.00  0.00    -0.273 OA
ENDROOT
BRANCH   1   5
HETATM    5  C3  UNL     1      -4.104  52.733  12.448  1.00  0.00     0.179 C
HETATM    6  S1  UNL     1      -4.858  51.287  12.276  1.00  0.00    -0.054 SA
BRANCH   5   7
HETATM    7  C2  UNL     1      -4.461  53.659  13.500  1.00  0.00     0.321 C
HETATM    8  O2  UNL     1      -4.460  53.261  14.687  1.00  0.00    -0.257 OA
BRANCH   7   9
HETATM    9  O1  UNL     1      -4.807  54.980  13.275  1.00  0.00    -0.321 OA
HETATM   10  C1  UNL     1      -6.025  55.498  13.788  1.00  0.00     0.213 C
ENDBRANCH   7   9
ENDBRANCH   5   7
ENDBRANCH   1   5
BRANCH   3  11
HETATM   11  C5  UNL     1      -0.700  53.104  10.719  1.00  0.00     0.115 A
HETATM   12  C6  UNL     1       0.120  51.926  10.166  1.00  0.00     0.055 A
HETATM   13  C7  UNL     1      -0.731  52.766   9.290  1.00  0.00     0.070 A
HETATM   14  C8  UNL     1      -1.972  52.154   8.659  1.00  0.00     0.047 C
BRANCH  13  15
HETATM   15  O4  UNL     1      -0.079  53.595   8.403  1.00  0.00    -0.384 OA
HETATM   16  C9  UNL     1       1.081  54.077   8.953  1.00  0.00     0.202 C
ENDBRANCH  13  15
ENDBRANCH   3  11
TORSDOF 5
ENDMDL