MODEL 3
REMARK VINA RESULT: -5.759610202      3.247      4.841
REMARK  5 active torsions:
REMARK  status: ('A' for Active; 'I' for Inactive)
REMARK    1  A    between atoms: C2_2  and  O1_4
REMARK    2  A    between atoms: O1_4  and  C4_5
REMARK    3  A    between atoms: C4_5  and  C5_7
REMARK    4  A    between atoms: C5_7  and  C7_9
REMARK    5  A    between atoms: C7_9  and  O3_10
ROOT
HETATM    1  C7  UNL     1      -2.135  51.081  11.900  1.00  0.00     0.280 C
HETATM    2  N1  UNL     1      -0.861  50.427  11.703  1.00  0.00     0.122 N
HETATM    3  C8  UNL     1      -0.130  50.687  10.522  1.00  0.00     0.314 C
HETATM    4  C9  UNL     1      -1.638  49.180  11.555  1.00  0.00     0.290 C
HETATM    5  C10 UNL     1      -2.793  50.094  11.123  1.00  0.00     0.051 A
HETATM    6  C11 UNL     1      -3.346  49.921   9.847  1.00  0.00     0.022 A
HETATM    7  C12 UNL     1      -4.165  49.626  11.128  1.00  0.00    -0.003 A
HETATM    8  C13 UNL     1      -5.321  50.511  11.460  1.00  0.00     0.011 C
ENDROOT
BRANCH   1   9
HETATM    9  C5  UNL     1      -2.207  52.537  11.664  1.00  0.00     0.148 C
HETATM   10  C6  UNL     1      -1.261  53.157  10.739  1.00  0.00     0.025 C
BRANCH   9  11
HETATM   11  C4  UNL     1      -2.061  53.217  13.005  1.00  0.00     0.267 C
HETATM   12  O2  UNL     1      -0.997  53.179  13.662  1.00  0.00    -0.265 OA
BRANCH  11  13
HETATM   13  O1  UNL     1      -3.126  53.919  13.556  1.00  0.00    -0.316 OA
BRANCH  13  14
HETATM   14  C2  UNL     1      -4.446  53.614  13.165  1.00  0.00     0.123 C
HETATM   15  C1  UNL     1      -5.172  54.925  12.946  1.00  0.00     0.040 C
HETATM   16  C3  UNL     1      -5.162  52.876  14.280  1.00  0.00     0.040 C
ENDBRANCH  13  14
ENDBRANCH  11  13
ENDBRANCH   9  11
ENDBRANCH   1   9
BRANCH   1  17
HETATM   17  O3  UNL     1      -2.436  50.895  13.286  1.00  0.00    -0.362 OA
ATOM     18  H3  UNL     1      -1.881  51.507  13.755  1.00  0.00     0.212 HD
ENDBRANCH   1  17
TORSDOF 5
ENDMDL