MODEL 4
REMARK VINA RESULT: -6.180830985      1.264      1.280
REMARK  3 active torsions:
REMARK  status: ('A' for Active; 'I' for Inactive)
REMARK    1  A    between atoms: C7_9  and  C8_10
REMARK    2  A    between atoms: C8_10  and  N2_11
REMARK    3  A    between atoms: N2_11  and  C9_13
ROOT
HETATM    1  C1  UNL     1      -1.671  50.982   8.835  1.00  0.00     0.317 C
HETATM    2  N1  UNL     1      -1.154  51.003  10.194  1.00  0.00     0.147 N
HETATM    3  C2  UNL     1       0.310  51.064  10.105  1.00  0.00     0.279 C
HETATM    4  C3  UNL     1       0.603  52.502   9.716  1.00  0.00     0.038 C
HETATM    5  C4  UNL     1      -0.648  53.280  10.091  1.00  0.00     0.106 C
HETATM    6  C5  UNL     1      -1.425  52.260  10.856  1.00  0.00     0.373 C
HETATM    7  O1  UNL     1      -1.005  52.138  12.180  1.00  0.00    -0.328 OA
HETATM    8  C6  UNL     1      -1.960  51.261  12.686  1.00  0.00     0.207 C
HETATM    9  C7  UNL     1      -3.232  51.779  12.065  1.00  0.00     0.168 C
HETATM   10  O3  UNL     1      -2.769  52.543  11.003  1.00  0.00    -0.322 OA
ENDROOT
BRANCH   9  11
HETATM   11  C8  UNL     1      -4.038  52.576  13.072  1.00  0.00     0.148 C
BRANCH  11  12
HETATM   12  N2  UNL     1      -5.300  52.854  12.505  1.00  0.00    -0.412 N
ATOM     13  H2  UNL     1      -5.472  52.694  11.513  1.00  0.00     0.153 HD
BRANCH  12  14
HETATM   14  C9  UNL     1      -6.318  53.361  13.341  1.00  0.00     0.102 C
HETATM   15  C10 UNL     1      -7.642  53.609  12.723  1.00  0.00     0.053 C
HETATM   16  C11 UNL     1      -7.675  55.142  12.630  1.00  0.00     0.169 C
HETATM   17  O2  UNL     1      -7.047  55.529  13.814  1.00  0.00    -0.389 OA
HETATM   18  C12 UNL     1      -5.908  54.741  13.818  1.00  0.00     0.192 C
ENDBRANCH  12  14
ENDBRANCH  11  12
ENDBRANCH   9  11
TORSDOF 3
ENDMDL