MODEL 3
REMARK VINA RESULT: -5.603103189      1.066      1.097
REMARK  4 active torsions:
REMARK  status: ('A' for Active; 'I' for Inactive)
REMARK    1  A    between atoms: C2_2  and  O1_3
REMARK    2  A    between atoms: O1_3  and  C3_4
REMARK    3  A    between atoms: C3_4  and  O2_5
REMARK    4  A    between atoms: C7_11  and  O4_12
ROOT
HETATM    1  C3  UNL     1      -3.399  51.619  10.810  1.00  0.00     0.247 C
HETATM    2  C4  UNL     1      -3.621  52.465  12.048  1.00  0.00     0.101 C
HETATM    3  C5  UNL     1      -4.622  51.841  12.997  1.00  0.00     0.026 C
HETATM    4  C6  UNL     1      -5.048  52.895  13.984  1.00  0.00     0.176 C
HETATM    5  O3  UNL     1      -5.985  53.778  13.493  1.00  0.00    -0.361 OA
HETATM    6  C7  UNL     1      -7.168  53.082  13.156  1.00  0.00     0.259 C
HETATM    7  C9  UNL     1      -6.805  52.282  11.902  1.00  0.00     0.071 C
HETATM    8  C10 UNL     1      -5.808  51.238  12.327  1.00  0.00     0.035 C
HETATM    9  C11 UNL     1      -5.367  50.340  11.208  1.00  0.00     0.068 C
HETATM   10  N1  UNL     1      -3.984  50.349  11.046  1.00  0.00    -0.344 N
HETATM   11  C12 UNL     1      -3.201  49.306  11.504  1.00  0.00     0.154 C
ENDROOT
BRANCH   1  12
HETATM   12  O1  UNL     1      -2.070  51.558  10.442  1.00  0.00    -0.339 OA
BRANCH  12  13
HETATM   13  C2  UNL     1      -1.465  52.731  10.890  1.00  0.00     0.169 C
HETATM   14  C1  UNL     1      -0.378  53.197   9.939  1.00  0.00     0.033 C
ENDBRANCH  12  13
ENDBRANCH   1  12
BRANCH   1  15
HETATM   15  O2  UNL     1      -4.078  52.163   9.690  1.00  0.00    -0.348 OA
ATOM     16  H2  UNL     1      -4.980  52.271   9.968  1.00  0.00     0.215 HD
ENDBRANCH   1  15
BRANCH   6  17
HETATM   17  O4  UNL     1      -8.136  54.014  12.839  1.00  0.00    -0.366 OA
HETATM   18  C8  UNL     1      -7.528  55.223  12.516  1.00  0.00     0.204 C
ENDBRANCH   6  17
TORSDOF 4
ENDMDL