MODEL 3
REMARK VINA RESULT: -6.170911582      0.030      1.025
REMARK  3 active torsions:
REMARK  status: ('A' for Active; 'I' for Inactive)
REMARK    1  A    between atoms: C3_4  and  C4_5
REMARK    2  A    between atoms: C4_5  and  N2_6
REMARK    3  A    between atoms: N2_6  and  C5_8
ROOT
HETATM    1  C1  UNL     1      -4.074  50.296  11.922  1.00  0.00     0.314 C
HETATM    2  N1  UNL     1      -3.575  51.358  12.758  1.00  0.00     0.127 N
HETATM    3  C2  UNL     1      -4.668  52.135  13.240  1.00  0.00     0.309 C
HETATM    4  C3  UNL     1      -4.513  53.593  12.971  1.00  0.00     0.167 C
HETATM    5  O1  UNL     1      -3.281  54.010  13.452  1.00  0.00    -0.378 OA
HETATM    6  C9  UNL     1      -2.293  53.448  12.689  1.00  0.00     0.243 C
HETATM    7  C10 UNL     1      -2.610  52.132  12.066  1.00  0.00     0.314 C
HETATM    8  C11 UNL     1      -1.269  51.394  11.917  1.00  0.00     0.106 C
HETATM    9  C12 UNL     1      -0.711  52.222  10.748  1.00  0.00     0.215 C
HETATM   10  O2  UNL     1      -1.826  52.837  10.186  1.00  0.00    -0.238 OA
HETATM   11  O3  UNL     1      -2.900  52.275  10.687  1.00  0.00    -0.194 OA
ENDROOT
BRANCH   4  12
HETATM   12  C4  UNL     1      -5.611  54.418  13.597  1.00  0.00     0.148 C
BRANCH  12  13
HETATM   13  N2  UNL     1      -6.161  55.325  12.641  1.00  0.00    -0.411 N
ATOM     14  H2  UNL     1      -5.705  56.203  12.395  1.00  0.00     0.154 HD
BRANCH  13  15
HETATM   15  C5  UNL     1      -7.398  54.913  12.054  1.00  0.00     0.014 C
HETATM   16  C6  UNL     1      -8.006  53.700  12.726  1.00  0.00     0.037 C
HETATM   17  C7  UNL     1      -8.447  56.000  12.017  1.00  0.00     0.037 C
HETATM   18  C8  UNL     1      -7.166  54.494  10.598  1.00  0.00     0.037 C
ENDBRANCH  13  15
ENDBRANCH  12  13
ENDBRANCH   4  12
TORSDOF 3
ENDMDL