MODEL 1
REMARK VINA RESULT: -5.871546230      0.000      0.000
REMARK  4 active torsions:
REMARK  status: ('A' for Active; 'I' for Inactive)
REMARK    1  A    between atoms: C2_2  and  N1_4
REMARK       I    between atoms: N1_4  and  C4_6
REMARK    2  A    between atoms: C4_6  and  O2_8
REMARK    3  A    between atoms: O2_8  and  C5_9
REMARK    4  A    between atoms: C9_15  and  N2_16
ROOT
HETATM    1  C5  UNL     1      -6.373  54.147  13.168  1.00  0.00     0.201 C
HETATM    2  C6  UNL     1      -4.961  54.460  13.598  1.00  0.00     0.187 C
HETATM    3  O3  UNL     1      -4.100  54.584  12.534  1.00  0.00    -0.356 OA
HETATM    4  C7  UNL     1      -3.144  53.598  12.621  1.00  0.00     0.339 C
HETATM    5  O4  UNL     1      -3.580  52.630  13.491  1.00  0.00    -0.357 OA
HETATM    6  C8  UNL     1      -4.821  52.997  13.969  1.00  0.00     0.192 C
HETATM    7  C9  UNL     1      -5.986  52.718  13.035  1.00  0.00     0.285 C
ENDROOT
BRANCH   1   8
HETATM    8  O2  UNL     1      -6.844  54.813  12.046  1.00  0.00    -0.294 OA
BRANCH   8   9
HETATM    9  C4  UNL     1      -8.054  55.491  12.063  1.00  0.00     0.361 C
HETATM   10  N1  UNL     1      -8.636  56.005  10.852  1.00  0.00    -0.333 N
ATOM     11  H1  UNL     1      -8.157  55.872   9.962  1.00  0.00     0.165 HD
HETATM   12  O1  UNL     1      -8.620  55.639  13.173  1.00  0.00    -0.238 OA
BRANCH  10  13
HETATM   13  C2  UNL     1      -9.895  56.706  10.893  1.00  0.00     0.078 C
HETATM   14  C1  UNL     1     -10.935  55.935  10.108  1.00  0.00     0.032 C
HETATM   15  C3  UNL     1      -9.684  58.084  10.284  1.00  0.00     0.032 C
ENDBRANCH  10  13
ENDBRANCH   8   9
ENDBRANCH   1   8
BRANCH   7  16
HETATM   16  N2  UNL     1      -5.502  52.270  11.764  1.00  0.00     0.089 N
HETATM   17  C10 UNL     1      -5.380  50.805  11.855  1.00  0.00     0.310 C
HETATM   18  C11 UNL     1      -6.379  52.533  10.664  1.00  0.00     0.310 C
ENDBRANCH   7  16
TORSDOF 4
ENDMDL