MODEL 3
REMARK VINA RESULT: -6.031306750      1.189      1.190
REMARK  5 active torsions:
REMARK  status: ('A' for Active; 'I' for Inactive)
REMARK    1  A    between atoms: C2_2  and  C3_3
REMARK    2  A    between atoms: C3_3  and  O2_5
REMARK    3  A    between atoms: O2_5  and  C4_6
REMARK    4  A    between atoms: C5_7  and  O3_8
REMARK    5  A    between atoms: C5_7  and  C6_10
ROOT
HETATM    1  C4  UNL     1      -3.235  52.245  11.965  1.00  0.00     0.319 C
HETATM    2  C5  UNL     1      -3.744  51.211  10.988  1.00  0.00     0.119 C
HETATM    3  C8  UNL     1      -2.635  50.251  10.699  1.00  0.00     0.073 C
HETATM    4  C9  UNL     1      -1.656  50.112  11.847  1.00  0.00     0.193 C
HETATM    5  O4  UNL     1      -0.687  51.125  11.818  1.00  0.00    -0.274 OA
HETATM    6  S1  UNL     1      -1.499  52.586  11.672  1.00  0.00     0.296 S
HETATM    7  O5  UNL     1      -1.351  53.160  10.283  1.00  0.00    -0.196 OA
HETATM    8  O6  UNL     1      -1.073  53.576  12.703  1.00  0.00    -0.196 OA
ENDROOT
BRANCH   1   9
HETATM    9  O2  UNL     1      -3.946  53.436  11.928  1.00  0.00    -0.291 OA
BRANCH   9  10
HETATM   10  C3  UNL     1      -4.334  54.048  13.107  1.00  0.00     0.283 C
HETATM   11  O1  UNL     1      -4.008  55.248  13.276  1.00  0.00    -0.260 OA
BRANCH  10  12
HETATM   12  C2  UNL     1      -5.091  53.378  14.141  1.00  0.00     0.072 C
HETATM   13  C1  UNL     1      -6.343  53.038  13.927  1.00  0.00     0.017 C
ENDBRANCH  10  12
ENDBRANCH   9  10
ENDBRANCH   1   9
BRANCH   2  14
HETATM   14  O3  UNL     1      -4.159  51.770   9.792  1.00  0.00    -0.382 OA
ATOM     15  H3  UNL     1      -3.813  52.645   9.658  1.00  0.00     0.211 HD
ENDBRANCH   2  14
BRANCH   2  16
HETATM   16  C6  UNL     1      -4.933  50.563  11.614  1.00  0.00     0.004 C
HETATM   17  C7  UNL     1      -6.132  50.585  11.079  1.00  0.00     0.010 C
ENDBRANCH   2  16
TORSDOF 5
ENDMDL