MODEL 3
REMARK VINA RESULT: -5.740343523      2.664      5.120
REMARK  3 active torsions:
REMARK  status: ('A' for Active; 'I' for Inactive)
REMARK    1  A    between atoms: O1_2  and  N1_3
REMARK    2  A    between atoms: C2_5  and  N2_6
REMARK    3  A    between atoms: N2_6  and  C3_8
ROOT
HETATM    1  C3  UNL     1      -4.393  53.402  12.305  1.00  0.00     0.093 C
HETATM    2  C4  UNL     1      -4.574  53.309  13.811  1.00  0.00     0.041 C
HETATM    3  C5  UNL     1      -6.034  53.177  14.173  1.00  0.00     0.142 C
HETATM    4  S1  UNL     1      -7.069  54.007  12.997  1.00  0.00     0.145 S
HETATM    5  O2  UNL     1      -8.480  53.540  13.279  1.00  0.00    -0.228 OA
HETATM    6  O3  UNL     1      -6.954  55.496  13.109  1.00  0.00    -0.228 OA
HETATM    7  C6  UNL     1      -6.631  53.425  11.386  1.00  0.00     0.152 C
HETATM    8  C7  UNL     1      -5.380  52.570  11.573  1.00  0.00    -0.003 A
HETATM    9  C8  UNL     1      -5.664  51.164  11.943  1.00  0.00     0.018 A
HETATM   10  C9  UNL     1      -5.011  51.518  10.645  1.00  0.00    -0.006 A
HETATM   11  C10 UNL     1      -5.810  51.441   9.361  1.00  0.00     0.011 C
ENDROOT
BRANCH   1  12
HETATM   12  N2  UNL     1      -3.020  53.206  11.926  1.00  0.00    -0.379 N
ATOM     13  H2  UNL     1      -2.825  53.162  10.926  1.00  0.00     0.160 HD
BRANCH  12  14
HETATM   14  C2  UNL     1      -1.921  53.069  12.786  1.00  0.00     0.200 C
HETATM   15  N1  UNL     1      -1.310  51.946  13.009  1.00  0.00    -0.263 N
ATOM     16  H1  UNL     1      -0.518  51.938  13.652  1.00  0.00     0.195 HD
BRANCH  15  17
HETATM   17  O1  UNL     1      -1.688  50.766  12.413  1.00  0.00    -0.284 OA
HETATM   18  C1  UNL     1      -2.438  49.785  13.102  1.00  0.00     0.237 C
ENDBRANCH  15  17
ENDBRANCH  12  14
ENDBRANCH   1  12
TORSDOF 3
ENDMDL