MODEL 2
REMARK VINA RESULT: -7.177533907      1.625      2.317
REMARK  5 active torsions:
REMARK  status: ('A' for Active; 'I' for Inactive)
REMARK    1  A    between atoms: C2_2  and  C3_4
REMARK    2  A    between atoms: C6_8  and  C7_9
REMARK    3  A    between atoms: C7_9  and  O4_11
REMARK    4  A    between atoms: O4_11  and  C8_12
REMARK    5  A    between atoms: C12_16  and  O5_17
ROOT
HETATM    1  C7  UNL     1      -1.838  53.093  12.101  1.00  0.00     0.266 C
HETATM    2  O3  UNL     1      -1.046  53.207  13.057  1.00  0.00    -0.265 OA
ENDROOT
BRANCH   1   3
HETATM    3  C6  UNL     1      -1.576  52.104  11.044  1.00  0.00     0.122 C
HETATM    4  C3  UNL     1      -0.232  52.344  10.394  1.00  0.00     0.094 C
HETATM    5  C4  UNL     1       0.393  50.994  10.332  1.00  0.00     0.180 C
HETATM    6  O2  UNL     1      -0.473  50.068  10.843  1.00  0.00    -0.389 OA
HETATM    7  C5  UNL     1      -1.439  50.700  11.582  1.00  0.00     0.183 C
BRANCH   4   8
HETATM    8  C2  UNL     1      -0.443  52.977   9.076  1.00  0.00     0.130 C
HETATM    9  C1  UNL     1      -1.426  52.372   8.148  1.00  0.00     0.091 C
HETATM   10  O1  UNL     1       0.169  53.987   8.729  1.00  0.00    -0.298 OA
ENDBRANCH   4   8
ENDBRANCH   1   3
BRANCH   1  11
HETATM   11  O4  UNL     1      -2.948  53.936  12.105  1.00  0.00    -0.313 OA
BRANCH  11  12
HETATM   12  C8  UNL     1      -3.852  53.971  13.189  1.00  0.00     0.160 C
HETATM   13  C9  UNL     1      -4.448  52.565  13.345  1.00  0.00     0.035 C
HETATM   14  C10 UNL     1      -5.612  52.889  14.287  1.00  0.00     0.005 C
HETATM   15  C11 UNL     1      -6.246  54.048  13.545  1.00  0.00     0.034 C
HETATM   16  C12 UNL     1      -5.060  54.805  12.942  1.00  0.00     0.147 C
BRANCH  16  17
HETATM   17  O5  UNL     1      -4.967  56.002  13.653  1.00  0.00    -0.393 OA
ATOM     18  H5  UNL     1      -4.639  55.833  14.529  1.00  0.00     0.210 HD
ENDBRANCH  16  17
ENDBRANCH  11  12
ENDBRANCH   1  11
TORSDOF 5
ENDMDL