MODEL 3
REMARK VINA RESULT: -5.652192759      3.829      5.453
REMARK  4 active torsions:
REMARK  status: ('A' for Active; 'I' for Inactive)
REMARK    1  A    between atoms: O1_2  and  C2_3
REMARK    2  A    between atoms: C2_3  and  C3_5
REMARK    3  A    between atoms: C8_12  and  O3_13
REMARK    4  A    between atoms: C9_15  and  C10_16
ROOT
HETATM    1  C3  UNL     1      -8.276  55.355  10.676  1.00  0.00     0.049 C
HETATM    2  C4  UNL     1      -9.147  56.206  10.205  1.00  0.00     0.018 C
HETATM    3  C5  UNL     1      -9.996  56.981  11.143  1.00  0.00     0.069 C
HETATM    4  N1  UNL     1      -9.293  56.473   8.807  1.00  0.00    -0.364 N
ATOM      5  H1  UNL     1      -9.997  57.148   8.507  1.00  0.00     0.165 HD
HETATM    6  C6  UNL     1      -8.577  55.900   7.925  1.00  0.00     0.021 C
HETATM    7  C7  UNL     1      -8.811  56.240   6.501  1.00  0.00     0.066 C
HETATM    8  C8  UNL     1      -7.511  54.959   8.315  1.00  0.00     0.139 C
HETATM    9  C9  UNL     1      -7.570  53.648   7.568  1.00  0.00     0.231 C
HETATM   10  O5  UNL     1      -7.411  52.647   8.515  1.00  0.00    -0.369 OA
HETATM   11  C12 UNL     1      -7.934  53.108   9.693  1.00  0.00     0.130 C
HETATM   12  C13 UNL     1      -9.430  52.965   9.664  1.00  0.00     0.040 C
HETATM   13  C14 UNL     1      -7.480  54.547   9.724  1.00  0.00     0.099 C
ENDROOT
BRANCH   1  14
HETATM   14  C2  UNL     1      -8.081  55.120  12.093  1.00  0.00     0.291 C
HETATM   15  O2  UNL     1      -8.699  54.289  12.796  1.00  0.00    -0.260 OA
BRANCH  14  16
HETATM   16  O1  UNL     1      -7.120  55.871  12.775  1.00  0.00    -0.323 OA
HETATM   17  C1  UNL     1      -6.195  55.284  13.665  1.00  0.00     0.213 C
ENDBRANCH  14  16
ENDBRANCH   1  14
BRANCH   8  18
HETATM   18  O3  UNL     1      -6.310  55.642   8.043  1.00  0.00    -0.380 OA
ATOM     19  H3  UNL     1      -5.631  55.106   8.435  1.00  0.00     0.211 HD
ENDBRANCH   8  18
BRANCH   9  20
HETATM   20  C10 UNL     1      -6.495  53.512   6.566  1.00  0.00     0.155 C
HETATM   21  C11 UNL     1      -6.828  53.507   5.126  1.00  0.00     0.094 C
HETATM   22  O4  UNL     1      -5.329  53.401   6.886  1.00  0.00    -0.295 OA
ENDBRANCH   9  20
TORSDOF 4
ENDMDL