MODEL 4
REMARK VINA RESULT: -5.790760120      1.710      5.471
REMARK  4 active torsions:
REMARK  status: ('A' for Active; 'I' for Inactive)
REMARK    1  A    between atoms: C2_2  and  C3_3
REMARK    2  A    between atoms: C8_10  and  O3_11
REMARK    3  A    between atoms: C11_17  and  C12_18
REMARK    4  A    between atoms: C12_18  and  O7_20
ROOT
HETATM    1  C3  UNL     1      -7.874  54.543  10.321  1.00  0.00     0.184 C
HETATM    2  O1  UNL     1      -6.779  54.289  11.129  1.00  0.00    -0.346 OA
HETATM    3  C4  UNL     1      -6.631  52.970  11.480  1.00  0.00     0.296 C
HETATM    4  O2  UNL     1      -5.278  52.692  11.578  1.00  0.00    -0.346 OA
HETATM    5  C5  UNL     1      -4.888  52.841  12.877  1.00  0.00     0.085 C
HETATM    6  C6  UNL     1      -4.110  51.603  13.323  1.00  0.00     0.048 C
HETATM    7  C7  UNL     1      -3.997  54.058  13.095  1.00  0.00     0.048 C
HETATM    8  C8  UNL     1      -6.084  52.984  13.748  1.00  0.00     0.189 C
HETATM    9  C9  UNL     1      -7.222  52.629  12.823  1.00  0.00     0.247 C
HETATM   10  O4  UNL     1      -8.375  53.321  13.115  1.00  0.00    -0.222 OA
HETATM   11  O5  UNL     1      -9.210  53.211  12.084  1.00  0.00    -0.199 OA
HETATM   12  C10 UNL     1      -8.992  53.692  10.793  1.00  0.00     0.119 C
HETATM   13  C11 UNL     1      -9.877  53.354   9.885  1.00  0.00     0.120 C
ENDROOT
BRANCH   1  14
HETATM   14  C2  UNL     1      -8.274  56.001  10.587  1.00  0.00     0.034 C
HETATM   15  C1  UNL     1      -8.890  56.547   9.296  1.00  0.00     0.008 C
ENDBRANCH   1  14
BRANCH  13  16
HETATM   16  C12 UNL     1     -11.023  52.510  10.256  1.00  0.00     0.285 C
HETATM   17  O6  UNL     1     -10.995  51.261  10.175  1.00  0.00    -0.260 OA
BRANCH  16  18
HETATM   18  O7  UNL     1     -12.199  53.085  10.718  1.00  0.00    -0.323 OA
HETATM   19  C13 UNL     1     -12.852  54.105   9.986  1.00  0.00     0.213 C
ENDBRANCH  16  18
ENDBRANCH  13  16
BRANCH   8  20
HETATM   20  O3  UNL     1      -6.301  54.299  14.185  1.00  0.00    -0.390 OA
ATOM     21  H3  UNL     1      -5.924  54.481  15.038  1.00  0.00     0.210 HD
ENDBRANCH   8  20
TORSDOF 4
ENDMDL