MODEL 4
REMARK VINA RESULT: -5.976634786      2.508      4.753
REMARK  4 active torsions:
REMARK  status: ('A' for Active; 'I' for Inactive)
REMARK    1  A    between atoms: C3_3  and  C4_4
REMARK    2  A    between atoms: C5_5  and  O1_6
REMARK    3  A    between atoms: C12_19  and  O5_20
REMARK    4  A    between atoms: O5_20  and  C13_21
ROOT
HETATM    1  C4  UNL     1      -6.509  51.374  11.256  1.00  0.00     0.089 C
HETATM    2  C5  UNL     1      -6.886  52.432  10.288  1.00  0.00     0.227 C
HETATM    3  N1  UNL     1      -7.355  53.590  10.970  1.00  0.00    -0.368 N
ATOM      4  H1  UNL     1      -8.201  53.966  10.543  1.00  0.00     0.161 HD
HETATM    5  C6  UNL     1      -6.996  54.257  11.954  1.00  0.00     0.018 C
HETATM    6  C7  UNL     1      -7.848  55.459  12.324  1.00  0.00     0.066 C
HETATM    7  C8  UNL     1      -5.872  54.098  12.856  1.00  0.00     0.136 C
HETATM    8  C9  UNL     1      -6.030  54.880  14.142  1.00  0.00     0.056 C
HETATM    9  O2  UNL     1      -4.605  54.503  12.315  1.00  0.00    -0.278 OA
HETATM   10  C10 UNL     1      -3.694  53.903  13.204  1.00  0.00     0.408 C
HETATM   11  O3  UNL     1      -2.501  54.332  13.301  1.00  0.00    -0.229 OA
HETATM   12  O4  UNL     1      -4.308  52.856  13.879  1.00  0.00    -0.286 OA
HETATM   13  C11 UNL     1      -5.553  52.662  13.211  1.00  0.00     0.205 C
HETATM   14  C12 UNL     1      -5.270  51.824  12.010  1.00  0.00     0.176 C
ENDROOT
BRANCH  14  15
HETATM   15  O5  UNL     1      -4.629  50.641  12.464  1.00  0.00    -0.313 OA
BRANCH  15  16
HETATM   16  C13 UNL     1      -3.315  50.328  12.140  1.00  0.00     0.255 C
HETATM   17  C14 UNL     1      -2.694  49.134  12.783  1.00  0.00     0.126 C
HETATM   18  O6  UNL     1      -2.722  51.056  11.331  1.00  0.00    -0.266 OA
ENDBRANCH  15  16
ENDBRANCH  14  15
BRANCH   1  19
HETATM   19  C3  UNL     1      -6.229  50.039  10.696  1.00  0.00    -0.020 C
HETATM   20  C2  UNL     1      -7.068  49.122  10.312  1.00  0.00    -0.034 C
HETATM   21  C1  UNL     1      -6.613  47.814   9.766  1.00  0.00     0.036 C
ENDBRANCH   1  19
BRANCH   2  22
HETATM   22  O1  UNL     1      -7.882  52.006   9.388  1.00  0.00    -0.376 OA
ATOM     23  H1  UNL     1      -8.068  52.655   8.719  1.00  0.00     0.212 HD
ENDBRANCH   2  22
TORSDOF 4
ENDMDL