MODEL 3
REMARK VINA RESULT: -6.802135777      2.079      3.539
REMARK  5 active torsions:
REMARK  status: ('A' for Active; 'I' for Inactive)
REMARK    1  A    between atoms: C2_2  and  N1_4
REMARK       I    between atoms: N1_4  and  C4_6
REMARK    2  A    between atoms: C4_6  and  O2_8
REMARK    3  A    between atoms: O2_8  and  C5_9
REMARK    4  A    between atoms: C5_9  and  C6_11
REMARK    5  A    between atoms: C6_11  and  C7_12
ROOT
HETATM    1  C6  UNL     1      -3.920  52.531  13.368  1.00  0.00     0.136 C
ENDROOT
BRANCH   1   2
HETATM    2  C5  UNL     1      -4.662  53.813  13.324  1.00  0.00     0.268 C
HETATM    3  O3  UNL     1      -4.114  54.905  13.022  1.00  0.00    -0.265 OA
BRANCH   2   4
HETATM    4  O2  UNL     1      -6.026  53.887  13.619  1.00  0.00    -0.227 OA
BRANCH   4   5
HETATM    5  C4  UNL     1      -6.994  54.211  12.681  1.00  0.00     0.368 C
HETATM    6  N1  UNL     1      -6.713  54.867  11.460  1.00  0.00    -0.333 N
ATOM      7  H1  UNL     1      -5.756  55.129  11.224  1.00  0.00     0.165 HD
HETATM    8  O1  UNL     1      -8.188  53.873  12.996  1.00  0.00    -0.238 OA
BRANCH   6   9
HETATM    9  C2  UNL     1      -7.793  55.161  10.553  1.00  0.00     0.078 C
HETATM   10  C1  UNL     1      -7.342  55.123   9.096  1.00  0.00     0.032 C
HETATM   11  C3  UNL     1      -8.435  56.503  10.847  1.00  0.00     0.032 C
ENDBRANCH   6   9
ENDBRANCH   4   5
ENDBRANCH   2   4
ENDBRANCH   1   2
BRANCH   1  12
HETATM   12  C7  UNL     1      -3.030  52.353  12.189  1.00  0.00     0.194 C
HETATM   13  C8  UNL     1      -2.984  50.895  11.819  1.00  0.00     0.275 C
HETATM   14  O4  UNL     1      -3.910  50.168  12.146  1.00  0.00    -0.264 OA
HETATM   15  O5  UNL     1      -1.840  50.529  11.117  1.00  0.00    -0.283 OA
HETATM   16  C9  UNL     1      -0.996  51.495  10.514  1.00  0.00     0.175 C
HETATM   17  C10 UNL     1      -1.688  51.945   9.238  1.00  0.00     0.079 C
HETATM   18  C11 UNL     1       0.360  50.877  10.230  1.00  0.00     0.079 C
HETATM   19  O6  UNL     1      -0.765  52.625  11.355  1.00  0.00    -0.283 OA
HETATM   20  C12 UNL     1      -1.619  52.795  12.424  1.00  0.00     0.275 C
HETATM   21  O7  UNL     1      -1.297  53.268  13.511  1.00  0.00    -0.264 OA
ENDBRANCH   1  12
TORSDOF 5
ENDMDL