MODEL 5
REMARK VINA RESULT: -6.846063548      2.018      2.615
REMARK  3 active torsions:
REMARK  status: ('A' for Active; 'I' for Inactive)
REMARK    1  A    between atoms: C6_9  and  O4_10
REMARK    2  A    between atoms: C7_12  and  C8_13
REMARK    3  A    between atoms: C12_17  and  N1_18
ROOT
HETATM    1  C1  UNL     1      -1.836  47.472   8.822  1.00  0.00     0.078 C
HETATM    2  C2  UNL     1      -1.577  48.194  10.116  1.00  0.00     0.165 C
HETATM    3  C3  UNL     1      -0.281  47.704  10.680  1.00  0.00     0.078 C
HETATM    4  O1  UNL     1      -2.629  47.786  10.996  1.00  0.00    -0.303 OA
HETATM    5  C4  UNL     1      -3.137  48.936  11.385  1.00  0.00     0.418 C
HETATM    6  O2  UNL     1      -1.951  49.505  11.944  1.00  0.00    -0.305 OA
HETATM    7  C5  UNL     1      -1.626  50.410  10.930  1.00  0.00     0.300 C
HETATM    8  O3  UNL     1      -1.569  49.561   9.830  1.00  0.00    -0.323 OA
HETATM    9  C6  UNL     1      -2.881  51.282  11.025  1.00  0.00     0.207 C
HETATM   10  C7  UNL     1      -3.811  50.827  12.141  1.00  0.00     0.193 C
HETATM   11  O7  UNL     1      -4.047  49.420  12.163  1.00  0.00    -0.326 OA
ENDROOT
BRANCH  10  12
HETATM   12  C8  UNL     1      -5.024  51.598  12.229  1.00  0.00    -0.024 A
HETATM   13  C9  UNL     1      -6.223  51.149  11.711  1.00  0.00     0.010 A
HETATM   14  C10 UNL     1      -7.364  51.918  11.815  1.00  0.00     0.003 A
HETATM   15  C11 UNL     1      -7.327  53.144  12.435  1.00  0.00     0.036 A
HETATM   16  C12 UNL     1      -6.136  53.634  12.971  1.00  0.00     0.103 A
HETATM   17  C13 UNL     1      -5.029  52.834  12.844  1.00  0.00     0.045 A
BRANCH  16  18
HETATM   18  N1  UNL     1      -6.085  54.890  13.609  1.00  0.00    -0.116 N
HETATM   19  O5  UNL     1      -5.006  55.469  13.767  1.00  0.00    -0.532 OA
HETATM   20  O6  UNL     1      -7.236  55.473  14.056  1.00  0.00    -0.532 OA
ENDBRANCH  16  18
ENDBRANCH  10  12
BRANCH   9  21
HETATM   21  O4  UNL     1      -2.459  52.559  11.384  1.00  0.00    -0.388 OA
ATOM     22  H4  UNL     1      -1.875  52.458  12.126  1.00  0.00     0.210 HD
ENDBRANCH   9  21
TORSDOF 3
ENDMDL