MODEL 2
REMARK VINA RESULT: -6.851831895      1.875      3.110
REMARK  3 active torsions:
REMARK  status: ('A' for Active; 'I' for Inactive)
REMARK    1  A    between atoms: C2_2  and  C3_3
REMARK    2  A    between atoms: C3_3  and  C5_5
REMARK    3  A    between atoms: C13_19  and  O7_20
ROOT
HETATM    1  C5  UNL     1      -7.790  55.106  11.309  1.00  0.00     0.152 C
HETATM    2  C6  UNL     1      -7.955  55.475  12.727  1.00  0.00     0.200 C
HETATM    3  O1  UNL     1      -6.781  55.212  13.447  1.00  0.00    -0.376 OA
HETATM    4  C7  UNL     1      -6.445  53.893  13.330  1.00  0.00     0.213 C
HETATM    5  C8  UNL     1      -6.167  53.674  11.830  1.00  0.00     0.298 C
HETATM    6  O2  UNL     1      -7.380  53.742  11.214  1.00  0.00    -0.351 OA
HETATM    7  O3  UNL     1      -5.574  52.443  11.867  1.00  0.00    -0.295 OA
HETATM    8  C9  UNL     1      -4.566  52.587  12.817  1.00  0.00     0.345 C
HETATM    9  O4  UNL     1      -4.284  51.330  13.395  1.00  0.00    -0.165 OA
HETATM   10  O5  UNL     1      -3.716  50.732  12.344  1.00  0.00    -0.196 OA
HETATM   11  C10 UNL     1      -2.786  51.702  11.966  1.00  0.00     0.196 C
HETATM   12  C11 UNL     1      -1.555  51.483  12.820  1.00  0.00     0.081 C
HETATM   13  C12 UNL     1      -2.477  51.583  10.495  1.00  0.00     0.081 C
HETATM   14  O6  UNL     1      -3.351  52.938  12.290  1.00  0.00    -0.290 OA
HETATM   15  C13 UNL     1      -5.081  53.554  13.860  1.00  0.00     0.247 C
ENDROOT
BRANCH  15  16
HETATM   16  O7  UNL     1      -5.082  52.978  15.102  1.00  0.00    -0.385 OA
ATOM     17  H7  UNL     1      -5.769  53.289  15.680  1.00  0.00     0.210 HD
ENDBRANCH  15  16
BRANCH   1  18
HETATM   18  C3  UNL     1      -8.922  55.248  10.379  1.00  0.00     0.012 C
HETATM   19  C4  UNL     1      -8.255  55.606   9.009  1.00  0.00     0.012 C
BRANCH  18  20
HETATM   20  C2  UNL     1      -9.960  56.266  10.627  1.00  0.00     0.002 C
HETATM   21  C1  UNL     1      -9.645  57.604  10.049  1.00  0.00     0.005 C
ENDBRANCH  18  20
ENDBRANCH   1  18
TORSDOF 3
ENDMDL