MODEL 1
REMARK VINA RESULT: -6.931222682      0.000      0.000
REMARK  5 active torsions:
REMARK  status: ('A' for Active; 'I' for Inactive)
REMARK    1  A    between atoms: O1_2  and  C2_3
REMARK    2  A    between atoms: C2_3  and  C3_5
REMARK    3  A    between atoms: C4_7  and  O4_8
REMARK    4  A    between atoms: C6_11  and  O5_12
REMARK    5  A    between atoms: O5_12  and  C7_13
ROOT
HETATM    1  C3  UNL     1      -5.509  53.311  12.929  1.00  0.00     0.372 C
HETATM    2  O3  UNL     1      -6.086  53.893  14.077  1.00  0.00    -0.289 OA
HETATM    3  C4  UNL     1      -6.551  55.199  14.003  1.00  0.00     0.181 C
HETATM    4  C5  UNL     1      -7.072  55.567  12.831  1.00  0.00     0.096 C
HETATM    5  C6  UNL     1      -7.088  54.543  11.766  1.00  0.00     0.296 C
HETATM    6  O7  UNL     1      -5.853  53.923  11.754  1.00  0.00    -0.318 OA
ENDROOT
BRANCH   5   7
HETATM    7  O5  UNL     1      -8.060  53.572  11.993  1.00  0.00    -0.324 OA
BRANCH   7   8
HETATM    8  C7  UNL     1      -8.590  53.089  10.778  1.00  0.00     0.299 A
HETATM    9  O6  UNL     1      -9.812  53.702  10.610  1.00  0.00    -0.328 OA
HETATM   10  C8  UNL     1     -11.009  53.049  10.588  1.00  0.00     0.139 A
HETATM   11  C9  UNL     1     -11.112  51.739  10.727  1.00  0.00     0.031 A
HETATM   12  C10 UNL     1      -9.857  51.028  10.908  1.00  0.00    -0.053 A
HETATM   13  C11 UNL     1      -9.832  49.534  11.080  1.00  0.00     0.048 C
HETATM   14  C12 UNL     1      -8.699  51.632  10.934  1.00  0.00    -0.023 A
HETATM   15  C13 UNL     1      -7.445  50.800  11.129  1.00  0.00     0.049 C
ENDBRANCH   7   8
ENDBRANCH   5   7
BRANCH   3  16
HETATM   16  O4  UNL     1      -6.486  56.082  15.074  1.00  0.00    -0.341 OA
ATOM     17  H4  UNL     1      -5.805  56.738  15.158  1.00  0.00     0.220 HD
ENDBRANCH   3  16
BRANCH   1  18
HETATM   18  C2  UNL     1      -4.019  53.406  13.063  1.00  0.00     0.314 C
HETATM   19  O2  UNL     1      -3.419  54.515  13.011  1.00  0.00    -0.260 OA
BRANCH  18  20
HETATM   20  O1  UNL     1      -3.240  52.271  13.249  1.00  0.00    -0.323 OA
HETATM   21  C1  UNL     1      -3.681  51.027  12.761  1.00  0.00     0.213 C
ENDBRANCH  18  20
ENDBRANCH   1  18
TORSDOF 5
ENDMDL