MODEL 1
REMARK VINA RESULT: -7.903250935      0.000      0.000
REMARK  3 active torsions:
REMARK  status: ('A' for Active; 'I' for Inactive)
REMARK    1  A    between atoms: C5_7  and  O3_8
REMARK    2  A    between atoms: O3_8  and  C6_9
REMARK    3  A    between atoms: C7_12  and  C8_13
ROOT
HETATM    1  C1  UNL     1      -5.262  47.674  10.293  1.00  0.00     0.078 C
HETATM    2  C2  UNL     1      -4.455  48.926  10.579  1.00  0.00     0.160 C
HETATM    3  C3  UNL     1      -3.001  48.499  10.591  1.00  0.00     0.078 C
HETATM    4  O1  UNL     1      -4.604  49.891   9.622  1.00  0.00    -0.323 OA
HETATM    5  C4  UNL     1      -4.799  51.113  10.298  1.00  0.00     0.296 C
HETATM    6  O2  UNL     1      -3.619  51.730  10.611  1.00  0.00    -0.327 OA
HETATM    7  C5  UNL     1      -3.540  51.912  11.962  1.00  0.00     0.286 C
HETATM    8  C7  UNL     1      -4.897  51.699  12.559  1.00  0.00     0.108 C
HETATM    9  C14 UNL     1      -5.447  50.657  11.572  1.00  0.00     0.193 C
HETATM   10  O6  UNL     1      -4.894  49.425  11.781  1.00  0.00    -0.345 OA
ENDROOT
BRANCH   8  11
HETATM   11  C8  UNL     1      -5.767  52.868  12.590  1.00  0.00    -0.045 A
HETATM   12  C9  UNL     1      -6.766  53.089  11.675  1.00  0.00     0.008 A
HETATM   13  C10 UNL     1      -7.590  54.213  11.737  1.00  0.00     0.002 A
HETATM   14  C11 UNL     1      -7.394  55.129  12.749  1.00  0.00     0.026 A
HETATM   15  C12 UNL     1      -6.385  54.929  13.693  1.00  0.00     0.046 A
HETATM   16  N1  UNL     1      -6.248  55.904  14.692  1.00  0.00    -0.102 NA
HETATM   17  C13 UNL     1      -5.590  53.806  13.599  1.00  0.00     0.034 A
ENDBRANCH   8  11
BRANCH   7  18
HETATM   18  O3  UNL     1      -2.950  53.133  12.344  1.00  0.00    -0.263 OA
BRANCH  18  19
HETATM   19  C6  UNL     1      -1.583  53.293  12.437  1.00  0.00     0.335 C
HETATM   20  O4  UNL     1      -1.100  53.298  13.608  1.00  0.00    -0.624 OA
HETATM   21  O5  UNL     1      -0.764  53.444  11.313  1.00  0.00    -0.624 OA
ENDBRANCH  18  19
ENDBRANCH   7  18
TORSDOF 3
ENDMDL