MODEL 4
REMARK VINA RESULT: -6.333725323      2.145      3.613
REMARK  4 active torsions:
REMARK  status: ('A' for Active; 'I' for Inactive)
REMARK    1  A    between atoms: O1_2  and  C2_3
REMARK    2  A    between atoms: C7_8  and  O2_9
REMARK    3  A    between atoms: O2_9  and  C8_10
REMARK    4  A    between atoms: C12_18  and  C13_19
ROOT
HETATM    1  C2  UNL     1      -5.069  52.836  13.011  1.00  0.00     0.103 A
HETATM    2  C3  UNL     1      -4.771  51.610  12.398  1.00  0.00     0.052 A
HETATM    3  C4  UNL     1      -5.749  50.897  11.756  1.00  0.00     0.017 A
HETATM    4  C5  UNL     1      -7.070  51.362  11.689  1.00  0.00     0.084 A
HETATM    5  C6  UNL     1      -7.348  52.554  12.287  1.00  0.00     0.077 A
HETATM    6  C7  UNL     1      -6.361  53.275  12.937  1.00  0.00     0.118 A
HETATM    7  O5  UNL     1      -7.968  50.554  11.012  1.00  0.00    -0.314 OA
HETATM    8  C9  UNL     1      -7.512  49.781   9.891  1.00  0.00     0.164 C
HETATM    9  C10 UNL     1      -8.011  50.384   8.594  1.00  0.00     0.079 C
HETATM   10  C11 UNL     1      -8.123  48.419  10.035  1.00  0.00     0.079 C
HETATM   11  O6  UNL     1      -6.122  49.749   9.812  1.00  0.00    -0.335 OA
HETATM   12  C12 UNL     1      -5.541  49.588  11.074  1.00  0.00     0.261 C
ENDROOT
BRANCH   6  13
HETATM   13  O2  UNL     1      -6.655  54.493  13.546  1.00  0.00    -0.250 OA
BRANCH  13  14
HETATM   14  C8  UNL     1      -7.634  55.305  12.979  1.00  0.00     0.338 C
HETATM   15  O3  UNL     1      -7.494  55.831  11.830  1.00  0.00    -0.623 OA
HETATM   16  O4  UNL     1      -8.811  55.558  13.679  1.00  0.00    -0.623 OA
ENDBRANCH  13  14
ENDBRANCH   6  13
BRANCH   1  17
HETATM   17  O1  UNL     1      -4.047  53.490  13.632  1.00  0.00    -0.353 OA
HETATM   18  C1  UNL     1      -2.804  53.805  13.110  1.00  0.00     0.210 C
ENDBRANCH   1  17
BRANCH  12  19
HETATM   19  C13 UNL     1      -4.136  49.218  10.877  1.00  0.00     0.208 C
HETATM   20  O7  UNL     1      -3.564  48.399  11.630  1.00  0.00    -0.646 OA
HETATM   21  O8  UNL     1      -3.411  49.778   9.839  1.00  0.00    -0.646 OA
ENDBRANCH  12  19
TORSDOF 4
ENDMDL