MODEL 4
REMARK VINA RESULT: -6.515098838      2.766      6.560
REMARK  5 active torsions:
REMARK  status: ('A' for Active; 'I' for Inactive)
REMARK    1  A    between atoms: C2_2  and  O2_4
REMARK    2  A    between atoms: O2_4  and  C3_5
REMARK    3  A    between atoms: C9_13  and  C10_14
REMARK    4  A    between atoms: C10_14  and  C11_16
REMARK    5  A    between atoms: C11_16  and  O6_17
ROOT
HETATM    1  C3  UNL     1      -3.849  51.583  12.097  1.00  0.00     0.272 C
HETATM    2  C4  UNL     1      -2.413  51.635  12.470  1.00  0.00     0.097 C
HETATM    3  C5  UNL     1      -1.512  50.611  11.852  1.00  0.00     0.174 C
HETATM    4  O3  UNL     1      -0.292  51.281  11.609  1.00  0.00    -0.347 OA
HETATM    5  C6  UNL     1      -0.399  51.845  10.366  1.00  0.00     0.159 C
HETATM    6  C7  UNL     1       0.889  51.467   9.618  1.00  0.00     0.078 C
HETATM    7  C8  UNL     1      -0.398  53.367  10.370  1.00  0.00     0.078 C
HETATM    8  O4  UNL     1      -1.537  51.343   9.746  1.00  0.00    -0.332 OA
HETATM    9  C9  UNL     1      -1.946  50.213  10.522  1.00  0.00     0.178 C
HETATM   10  C12 UNL     1      -3.470  50.179  10.406  1.00  0.00     0.165 C
HETATM   11  C13 UNL     1      -4.073  49.171  11.303  1.00  0.00     0.043 C
HETATM   12  O7  UNL     1      -3.993  51.425  10.742  1.00  0.00    -0.352 OA
ENDROOT
BRANCH   9  13
HETATM   13  C10 UNL     1      -1.419  49.039   9.875  1.00  0.00     0.189 C
HETATM   14  O5  UNL     1      -1.701  48.910   8.660  1.00  0.00    -0.292 OA
BRANCH  13  15
HETATM   15  C11 UNL     1      -0.598  47.922  10.329  1.00  0.00     0.245 C
BRANCH  15  16
HETATM   16  O6  UNL     1       0.728  47.916  10.089  1.00  0.00    -0.393 OA
ATOM     17  H6  UNL     1       1.162  47.112   9.829  1.00  0.00     0.209 HD
ENDBRANCH  15  16
ENDBRANCH  13  15
ENDBRANCH   9  13
BRANCH   1  18
HETATM   18  O2  UNL     1      -4.404  52.877  12.397  1.00  0.00    -0.290 OA
BRANCH  18  19
HETATM   19  C2  UNL     1      -5.303  53.100  13.412  1.00  0.00     0.257 C
HETATM   20  C1  UNL     1      -6.773  52.976  13.248  1.00  0.00     0.126 C
HETATM   21  O1  UNL     1      -4.804  53.428  14.542  1.00  0.00    -0.266 OA
ENDBRANCH  18  19
ENDBRANCH   1  18
TORSDOF 5
ENDMDL