MODEL 1
REMARK VINA RESULT: -6.085504712      0.000      0.000
REMARK  4 active torsions:
REMARK  status: ('A' for Active; 'I' for Inactive)
REMARK    1  A    between atoms: C2_2  and  C3_3
REMARK    2  A    between atoms: N1_5  and  C5_6
REMARK    3  A    between atoms: N2_7  and  N3_9
REMARK    4  A    between atoms: C6_10  and  O1_11
ROOT
HETATM    1  C5  UNL     1      -2.340  52.655  12.482  1.00  0.00     0.196 C
HETATM    2  N2  UNL     1      -2.254  52.223  11.283  1.00  0.00    -0.285 N
ATOM      3  H2  UNL     1      -3.100  52.229  10.713  1.00  0.00     0.188 HD
ENDROOT
BRANCH   2   4
HETATM    4  N3  UNL     1      -1.086  51.744  10.706  1.00  0.00    -0.205 N
HETATM    5  C6  UNL     1      -0.184  52.544  10.089  1.00  0.00     0.179 A
HETATM    6  C7  UNL     1       0.839  51.731   9.641  1.00  0.00     0.148 A
HETATM    7  N4  UNL     1       0.510  50.480  10.007  1.00  0.00    -0.337 N
HETATM    8  C8  UNL     1      -0.666  50.466  10.661  1.00  0.00     0.199 A
ATOM      9  H4  UNL     1       1.074  49.653   9.815  1.00  0.00     0.167 HD
HETATM   10  S1  UNL     1      -1.425  49.146  11.275  1.00  0.00    -0.039 SA
BRANCH   5  11
HETATM   11  O1  UNL     1      -0.267  53.930   9.932  1.00  0.00    -0.344 OA
ATOM     12  H1  UNL     1       0.129  54.588  10.490  1.00  0.00     0.219 HD
ENDBRANCH   5  11
ENDBRANCH   2   4
BRANCH   1  13
HETATM   13  N1  UNL     1      -3.578  53.122  12.978  1.00  0.00    -0.376 N
HETATM   14  C4  UNL     1      -4.503  52.195  13.597  1.00  0.00     0.129 C
HETATM   15  C3  UNL     1      -5.932  52.413  13.122  1.00  0.00     0.022 C
HETATM   16  C11 UNL     1      -6.194  53.889  13.168  1.00  0.00     0.089 C
HETATM   17  C10 UNL     1      -5.268  54.624  12.234  1.00  0.00     0.040 C
HETATM   18 CL1  UNL     1      -7.880  54.341  12.996  1.00  0.00    -0.124 Cl
HETATM   19  C9  UNL     1      -3.873  54.540  12.843  1.00  0.00     0.125 C
BRANCH  15  20
HETATM   20  C2  UNL     1      -6.153  51.788  11.772  1.00  0.00     0.003 C
HETATM   21  C1  UNL     1      -5.390  50.504  11.594  1.00  0.00     0.005 C
ENDBRANCH  15  20
ENDBRANCH   1  13
TORSDOF 4
ENDMDL