MODEL 4
REMARK VINA RESULT: -5.524082072      2.706      3.748
REMARK  4 active torsions:
REMARK  status: ('A' for Active; 'I' for Inactive)
REMARK    1  A    between atoms: C2_3  and  N2_4
REMARK    2  A    between atoms: N2_4  and  C3_6
REMARK    3  A    between atoms: N4_13  and  C7_15
REMARK    4  A    between atoms: C7_15  and  C8_16
ROOT
HETATM    1  N1  UNL     1      -3.831  52.126  10.004  1.00  0.00    -0.195 NA
HETATM    2  C1  UNL     1      -2.956  52.235  10.758  1.00  0.00     0.091 C
HETATM    3  C2  UNL     1      -1.857  52.397  11.706  1.00  0.00     0.128 C
HETATM    4  C4  UNL     1      -0.911  53.451  11.148  1.00  0.00     0.057 C
HETATM    5  C5  UNL     1      -0.580  53.234   9.706  1.00  0.00     0.084 C
HETATM    6  S2  UNL     1       0.324  51.644   9.617  1.00  0.00    -0.117 SA
HETATM    7  C6  UNL     1      -0.538  50.522  10.711  1.00  0.00     0.045 C
HETATM    8  N4  UNL     1      -0.573  49.281  10.405  1.00  0.00    -0.387 N
ATOM      9  H4  UNL     1      -0.118  48.942   9.557  1.00  0.00     0.159 HD
HETATM   10  C9  UNL     1      -1.177  51.092  11.930  1.00  0.00     0.111 C
ENDROOT
BRANCH   3  11
HETATM   11  N2  UNL     1      -2.385  52.895  12.944  1.00  0.00    -0.347 N
ATOM     12  H2  UNL     1      -1.865  52.654  13.787  1.00  0.00     0.163 HD
BRANCH  11  13
HETATM   13  C3  UNL     1      -3.534  53.675  13.125  1.00  0.00     0.182 C
HETATM   14  N3  UNL     1      -3.531  55.046  12.679  1.00  0.00    -0.070 NA
HETATM   15  S1  UNL     1      -4.930  53.168  13.802  1.00  0.00    -0.044 SA
ENDBRANCH  11  13
ENDBRANCH   3  11
BRANCH   8  16
HETATM   16  C7  UNL     1      -1.257  48.381  11.269  1.00  0.00     0.135 C
BRANCH  16  17
HETATM   17  C8  UNL     1      -2.444  47.800  10.519  1.00  0.00     0.134 C
HETATM   18 CL1  UNL     1      -3.925  48.709  10.881  1.00  0.00    -0.129 Cl
ENDBRANCH  16  17
ENDBRANCH   8  16
TORSDOF 4
ENDMDL