MODEL 2
REMARK VINA RESULT: -6.374519927      3.056      5.730
REMARK  6 active torsions:
REMARK  status: ('A' for Active; 'I' for Inactive)
REMARK    1  A    between atoms: C2_2  and  C4_5
REMARK    2  A    between atoms: C5_7  and  N1_8
REMARK    3  A    between atoms: N1_8  and  C6_10
REMARK    4  A    between atoms: C6_10  and  C7_11
REMARK    5  A    between atoms: C7_11  and  O1_12
REMARK    6  A    between atoms: C8_16  and  N3_17
ROOT
HETATM    1  C4  UNL     1      -3.672  51.614  11.168  1.00  0.00     0.069 A
HETATM    2  S1  UNL     1      -4.966  51.953  12.253  1.00  0.00    -0.051 SA
HETATM    3  C5  UNL     1      -4.093  52.819  13.430  1.00  0.00     0.146 A
HETATM    4  N2  UNL     1      -2.853  52.814  12.947  1.00  0.00    -0.322 N
ATOM      5  H2  UNL     1      -2.095  53.271  13.453  1.00  0.00     0.169 HD
HETATM    6  C8  UNL     1      -2.624  52.208  11.805  1.00  0.00     0.122 A
ENDROOT
BRANCH   3   7
HETATM    7  N1  UNL     1      -4.549  53.354  14.536  1.00  0.00    -0.368 N
ATOM      8  H1  UNL     1      -3.969  53.388  15.374  1.00  0.00     0.161 HD
BRANCH   7   9
HETATM    9  C6  UNL     1      -5.874  53.886  14.546  1.00  0.00     0.147 C
BRANCH   9  10
HETATM   10  C7  UNL     1      -5.956  55.328  14.170  1.00  0.00     0.183 C
BRANCH  10  11
HETATM   11  O1  UNL     1      -5.930  56.095  15.356  1.00  0.00    -0.399 OA
ATOM     12  H1  UNL     1      -6.823  56.335  15.574  1.00  0.00     0.209 HD
ENDBRANCH  10  11
ENDBRANCH   9  10
ENDBRANCH   7   9
ENDBRANCH   3   7
BRANCH   1  13
HETATM   13  C2  UNL     1      -3.751  50.859   9.885  1.00  0.00     0.133 C
HETATM   14  C1  UNL     1      -3.616  51.690   8.660  1.00  0.00     0.057 C
HETATM   15  C3  UNL     1      -5.155  50.234   9.851  1.00  0.00     0.057 C
HETATM   16  F1  UNL     1      -2.876  49.794   9.834  1.00  0.00    -0.238 F
ENDBRANCH   1  13
BRANCH   6  17
HETATM   17  N3  UNL     1      -1.281  52.184  11.250  1.00  0.00    -0.366 N
HETATM   18  C9  UNL     1      -0.408  51.058  11.340  1.00  0.00     0.124 C
HETATM   19  C10 UNL     1       0.051  50.579   9.982  1.00  0.00     0.020 C
HETATM   20  C11 UNL     1      -0.234  51.585   8.897  1.00  0.00     0.003 C
HETATM   21  C12 UNL     1      -0.043  53.018   9.315  1.00  0.00     0.020 C
HETATM   22  C13 UNL     1      -0.847  53.377  10.555  1.00  0.00     0.124 C
ENDBRANCH   6  17
TORSDOF 6
ENDMDL