MODEL 1
REMARK VINA RESULT: -6.254247193      0.000      0.000
REMARK  5 active torsions:
REMARK  status: ('A' for Active; 'I' for Inactive)
REMARK    1  A    between atoms: N1_4  and  C4_5
REMARK    2  A    between atoms: C4_5  and  C5_6
REMARK    3  A    between atoms: C5_6  and  N2_7
REMARK    4  A    between atoms: C6_8  and  O1_9
REMARK    5  A    between atoms: C9_13  and  O2_14
ROOT
HETATM    1  N2  UNL     1      -7.603  55.905  12.161  1.00  0.00    -0.306 N
HETATM    2  C6  UNL     1      -8.768  56.290  12.716  1.00  0.00     0.152 A
HETATM    3  C7  UNL     1      -9.557  56.789  11.714  1.00  0.00     0.013 A
HETATM    4  C8  UNL     1      -8.833  56.693  10.542  1.00  0.00     0.031 A
HETATM    5  C9  UNL     1      -7.600  56.133  10.838  1.00  0.00     0.153 A
HETATM    6  C10 UNL     1      -9.701  57.235   9.452  1.00  0.00     0.087 C
HETATM    7 CL1  UNL     1      -9.310  56.756   7.874  1.00  0.00    -0.109 Cl
HETATM    8  C11 UNL     1      -9.872  58.690   9.729  1.00  0.00     0.001 C
HETATM    9  C12 UNL     1     -10.578  58.793  10.880  1.00  0.00    -0.019 C
HETATM   10  C13 UNL     1     -10.858  57.397  11.344  1.00  0.00     0.048 C
HETATM   11  C14 UNL     1     -11.069  56.736   9.969  1.00  0.00     0.048 C
ENDROOT
BRANCH   1  12
HETATM   12  C5  UNL     1      -6.501  55.312  12.888  1.00  0.00     0.163 C
BRANCH  12  13
HETATM   13  C4  UNL     1      -6.561  53.812  12.781  1.00  0.00     0.293 C
BRANCH  13  14
HETATM   14  N1  UNL     1      -5.298  53.264  12.531  1.00  0.00     0.098 N
HETATM   15  C2  UNL     1      -4.947  51.983  12.083  1.00  0.00     0.247 A
HETATM   16  C1  UNL     1      -5.852  50.895  11.672  1.00  0.00     0.045 C
HETATM   17  C3  UNL     1      -4.768  52.359  13.534  1.00  0.00     0.308 A
ENDBRANCH  13  14
ENDBRANCH  12  13
ENDBRANCH   1  12
BRANCH   2  18
HETATM   18  O1  UNL     1      -9.081  56.187  14.053  1.00  0.00    -0.345 OA
ATOM     19  H1  UNL     1      -9.957  56.238  14.415  1.00  0.00     0.219 HD
ENDBRANCH   2  18
BRANCH   5  20
HETATM   20  O2  UNL     1      -6.553  55.858   9.932  1.00  0.00    -0.345 OA
ATOM     21  H2  UNL     1      -6.066  56.488   9.415  1.00  0.00     0.219 HD
ENDBRANCH   5  20
TORSDOF 5
ENDMDL