MODEL 5
REMARK VINA RESULT: -6.576928131      1.848      2.185
REMARK  6 active torsions:
REMARK  status: ('A' for Active; 'I' for Inactive)
REMARK    1  A    between atoms: C6_6  and  N1_7
REMARK    2  A    between atoms: N1_7  and  C7_9
REMARK    3  A    between atoms: N3_13  and  C9_14
REMARK    4  A    between atoms: C9_14  and  C10_15
REMARK    5  A    between atoms: C10_15  and  C13_18
REMARK    6  A    between atoms: C13_18  and  O1_20
ROOT
HETATM    1  C7  UNL     1      -1.999  52.987  11.384  1.00  0.00     0.694 A
HETATM    2  N2  UNL     1      -2.053  51.774  11.954  1.00  0.00    -0.185 N
ATOM      3  H2  UNL     1      -1.473  50.979  11.688  1.00  0.00     0.185 HD
HETATM    4  C8  UNL     1      -2.980  51.759  12.922  1.00  0.00     0.218 A
HETATM    5  N3  UNL     1      -3.522  52.986  12.965  1.00  0.00    -0.272 N
HETATM    6  N4  UNL     1      -2.922  53.710  12.036  1.00  0.00    -0.129 N
ATOM      7  H4  UNL     1      -3.132  54.688  11.840  1.00  0.00     0.206 HD
ENDROOT
BRANCH   5   8
HETATM    8  C9  UNL     1      -4.565  53.488  13.837  1.00  0.00     0.164 C
BRANCH   8   9
HETATM    9  C10 UNL     1      -5.893  53.589  13.117  1.00  0.00     0.031 C
HETATM   10  C11 UNL     1      -7.006  53.205  14.048  1.00  0.00     0.022 C
HETATM   11  C12 UNL     1      -5.913  52.595  11.956  1.00  0.00     0.022 C
BRANCH   9  12
HETATM   12  C13 UNL     1      -6.131  54.944  12.546  1.00  0.00     0.207 C
HETATM   13  C14 UNL     1      -7.555  55.383  12.576  1.00  0.00     0.085 C
HETATM   14  F1  UNL     1      -5.402  55.852  13.315  1.00  0.00    -0.211 F
BRANCH  12  15
HETATM   15  O1  UNL     1      -5.662  55.080  11.244  1.00  0.00    -0.361 OA
ATOM     16  H1  UNL     1      -5.265  55.927  11.076  1.00  0.00     0.213 HD
ENDBRANCH  12  15
ENDBRANCH   9  12
ENDBRANCH   8   9
ENDBRANCH   5   8
BRANCH   1  17
HETATM   17  N1  UNL     1      -1.240  53.389  10.425  1.00  0.00    -0.220 N
ATOM     18  H1  UNL     1      -0.971  54.370  10.358  1.00  0.00     0.178 HD
BRANCH  17  19
HETATM   19  C6  UNL     1      -0.769  52.433   9.442  1.00  0.00     0.103 C
HETATM   20  C2  UNL     1      -1.383  52.748   8.100  1.00  0.00     0.005 C
HETATM   21  C1  UNL     1      -1.256  51.515   7.240  1.00  0.00     0.012 C
HETATM   22  C3  UNL     1      -0.554  53.878   7.547  1.00  0.00     0.006 C
HETATM   23  C4  UNL     1       0.597  54.093   8.497  1.00  0.00     0.002 C
HETATM   24  C5  UNL     1       0.701  52.757   9.190  1.00  0.00     0.026 C
ENDBRANCH  17  19
ENDBRANCH   1  17
TORSDOF 6
ENDMDL