MODEL 3
REMARK VINA RESULT: -5.614619571      1.504      1.571
REMARK  5 active torsions:
REMARK  status: ('A' for Active; 'I' for Inactive)
REMARK    1  A    between atoms: C1_2  and  S2_4
REMARK    2  A    between atoms: S2_4  and  C2_5
REMARK    3  A    between atoms: C2_5  and  C3_6
REMARK    4  A    between atoms: C5_10  and  N3_11
REMARK    5  A    between atoms: N3_11  and  C6_13
ROOT
HETATM    1  C3  UNL     1      -4.154  52.717  12.560  1.00  0.00     0.011 A
HETATM    2  C4  UNL     1      -3.383  53.584  13.292  1.00  0.00     0.105 A
HETATM    3  N2  UNL     1      -2.172  53.820  12.867  1.00  0.00    -0.346 N
ATOM      4  H2  UNL     1      -1.560  54.458  13.376  1.00  0.00     0.167 HD
HETATM    5  C5  UNL     1      -1.749  53.217  11.761  1.00  0.00     0.145 A
HETATM    6  S3  UNL     1      -3.096  52.283  11.294  1.00  0.00    -0.057 SA
ENDROOT
BRANCH   5   7
HETATM    7  N3  UNL     1      -0.565  53.333  11.186  1.00  0.00    -0.364 N
ATOM      8  H3  UNL     1       0.292  53.223  11.729  1.00  0.00     0.162 HD
BRANCH   7   9
HETATM    9  C6  UNL     1      -0.511  53.621   9.767  1.00  0.00     0.103 A
HETATM   10  C7  UNL     1       0.789  53.785   9.070  1.00  0.00     0.049 A
HETATM   11  C8  UNL     1       0.051  52.479   8.928  1.00  0.00     0.107 A
HETATM   12 CL1  UNL     1       0.839  51.129   9.812  1.00  0.00    -0.123 Cl
ENDBRANCH   7   9
ENDBRANCH   5   7
BRANCH   1  13
HETATM   13  C2  UNL     1      -5.570  52.287  12.840  1.00  0.00     0.129 C
BRANCH  13  14
HETATM   14  S2  UNL     1      -6.124  53.225  14.269  1.00  0.00    -0.098 SA
BRANCH  14  15
HETATM   15  C1  UNL     1      -6.456  54.932  13.856  1.00  0.00     0.149 C
HETATM   16  N1  UNL     1      -6.044  55.974  14.707  1.00  0.00    -0.082 NA
HETATM   17  S1  UNL     1      -7.240  55.299  12.488  1.00  0.00    -0.056 SA
ENDBRANCH  14  15
ENDBRANCH  13  14
ENDBRANCH   1  13
TORSDOF 5
ENDMDL