MODEL 3
REMARK VINA RESULT: -6.345309903      2.384      2.892
REMARK  4 active torsions:
REMARK  status: ('A' for Active; 'I' for Inactive)
REMARK    1  A    between atoms: C2_2  and  N1_5
REMARK    2  A    between atoms: N1_5  and  C4_7
REMARK    3  A    between atoms: C5_8  and  N2_9
REMARK    4  A    between atoms: N2_9  and  C6_11
ROOT
HETATM    1  C4  UNL     1      -6.014  54.873  12.501  1.00  0.00     0.115 A
HETATM    2  C5  UNL     1      -5.273  53.689  12.646  1.00  0.00     0.114 A
HETATM    3  C11 UNL     1      -5.187  53.992  13.991  1.00  0.00     0.252 A
HETATM    4  O2  UNL     1      -4.647  53.433  15.007  1.00  0.00    -0.281 OA
HETATM    5  C12 UNL     1      -5.916  55.154  13.844  1.00  0.00     0.252 A
HETATM    6  O3  UNL     1      -6.274  56.025  14.673  1.00  0.00    -0.281 OA
ENDROOT
BRANCH   2   7
HETATM    7  N2  UNL     1      -4.821  52.671  11.760  1.00  0.00    -0.380 N
ATOM      8  H2  UNL     1      -5.499  52.158  11.195  1.00  0.00     0.160 HD
BRANCH   7   9
HETATM    9  C6  UNL     1      -3.435  52.357  11.650  1.00  0.00     0.085 C
HETATM   10  C7  UNL     1      -2.983  51.334  12.679  1.00  0.00     0.051 C
HETATM   11  C8  UNL     1      -1.555  50.958  12.257  1.00  0.00     0.169 C
HETATM   12  O1  UNL     1      -0.782  52.104  12.414  1.00  0.00    -0.391 OA
HETATM   13  C9  UNL     1      -1.147  53.136  11.549  1.00  0.00     0.169 C
HETATM   14  C10 UNL     1      -2.548  53.580  11.930  1.00  0.00     0.051 C
ENDBRANCH   7   9
ENDBRANCH   2   7
BRANCH   1  15
HETATM   15  N1  UNL     1      -6.618  55.506  11.383  1.00  0.00    -0.363 N
ATOM     16  H1  UNL     1      -6.027  56.027  10.735  1.00  0.00     0.161 HD
BRANCH  15  17
HETATM   17  C2  UNL     1      -8.048  55.438  11.128  1.00  0.00     0.100 C
HETATM   18  C1  UNL     1      -8.573  54.036  11.274  1.00  0.00     0.056 C
HETATM   19  C3  UNL     1      -8.384  55.913   9.737  1.00  0.00     0.056 C
HETATM   20 CL1  UNL     1      -8.914  56.473  12.283  1.00  0.00    -0.097 Cl
ENDBRANCH  15  17
ENDBRANCH   1  15
TORSDOF 4
ENDMDL