MODEL 3
REMARK VINA RESULT: -6.626958913      4.779      8.411
REMARK  6 active torsions:
REMARK  status: ('A' for Active; 'I' for Inactive)
REMARK    1  A    between atoms: C5_5  and  C6_6
REMARK    2  A    between atoms: C6_6  and  C7_7
REMARK    3  A    between atoms: N1_8  and  N2_10
REMARK    4  A    between atoms: N2_10  and  C8_12
REMARK    5  A    between atoms: C8_12  and  N3_14
REMARK    6  A    between atoms: N3_14  and  C9_16
ROOT
HETATM    1  C1  UNL     1       1.841  54.658   8.617  1.00  0.00     0.017 C
HETATM    2  C2  UNL     1       1.081  53.746   8.850  1.00  0.00    -0.083 C
HETATM    3  C3  UNL     1       0.181  52.655   9.102  1.00  0.00    -0.013 C
HETATM    4  C4  UNL     1      -1.127  52.630   8.396  1.00  0.00     0.057 C
HETATM    5  C5  UNL     1       0.510  51.711   9.936  1.00  0.00    -0.006 C
ENDROOT
BRANCH   5   6
HETATM    6  C6  UNL     1      -0.386  50.569  10.228  1.00  0.00     0.074 C
BRANCH   6   7
HETATM    7  C7  UNL     1      -1.169  50.840  11.484  1.00  0.00     0.084 C
HETATM    8  N1  UNL     1      -2.142  50.036  11.744  1.00  0.00    -0.313 N
ATOM      9  H1  UNL     1      -2.366  49.255  11.126  1.00  0.00     0.185 HD
BRANCH   8  10
HETATM   10  N2  UNL     1      -2.875  50.277  12.904  1.00  0.00    -0.277 N
ATOM     11  H2  UNL     1      -2.594  49.836  13.780  1.00  0.00     0.189 HD
BRANCH  10  12
HETATM   12  C8  UNL     1      -4.011  51.131  12.882  1.00  0.00     0.192 C
HETATM   13  S1  UNL     1      -5.188  50.870  11.780  1.00  0.00    -0.039 SA
BRANCH  12  14
HETATM   14  N3  UNL     1      -4.164  52.200  13.776  1.00  0.00    -0.314 N
ATOM     15  H3  UNL     1      -4.380  51.965  14.745  1.00  0.00     0.170 HD
BRANCH  14  16
HETATM   16  C9  UNL     1      -4.058  53.439  13.489  1.00  0.00     0.170 A
HETATM   17  N4  UNL     1      -2.993  54.216  13.262  1.00  0.00    -0.222 N
HETATM   18  O1  UNL     1      -3.370  55.434  13.002  1.00  0.00    -0.154 OA
ATOM     19  H4  UNL     1      -2.025  53.899  13.288  1.00  0.00     0.198 HD
HETATM   20  N5  UNL     1      -4.670  55.490  13.052  1.00  0.00    -0.226 N
HETATM   21  C10 UNL     1      -5.160  54.273  13.352  1.00  0.00     0.171 A
ATOM     22  H5  UNL     1      -5.230  56.327  12.890  1.00  0.00     0.198 HD
HETATM   23 CL1  UNL     1      -6.850  53.808  13.540  1.00  0.00    -0.058 Cl
ENDBRANCH  14  16
ENDBRANCH  12  14
ENDBRANCH  10  12
ENDBRANCH   8  10
ENDBRANCH   6   7
ENDBRANCH   5   6
TORSDOF 6
ENDMDL