MODEL 2
REMARK VINA RESULT: -5.628601201      3.663      5.115
REMARK  3 active torsions:
REMARK  status: ('A' for Active; 'I' for Inactive)
REMARK    1  A    between atoms: C3_5  and  N2_6
REMARK    2  A    between atoms: C6_9  and  N3_10
REMARK    3  A    between atoms: C7_13  and  C8_14
ROOT
HETATM    1  C1  UNL     1      -7.642  50.830  10.822  1.00  0.00     0.069 C
HETATM    2  C2  UNL     1      -7.929  52.270  11.140  1.00  0.00     0.016 A
HETATM    3  N1  UNL     1      -8.873  52.977  10.469  1.00  0.00    -0.344 N
ATOM      4  H1  UNL     1      -9.413  52.622   9.681  1.00  0.00     0.167 HD
HETATM    5  C3  UNL     1      -8.994  54.206  10.986  1.00  0.00     0.137 A
HETATM    6  C6  UNL     1      -8.068  54.255  12.029  1.00  0.00     0.155 A
HETATM    7  C7  UNL     1      -7.391  53.036  12.144  1.00  0.00     0.008 A
ENDROOT
BRANCH   7   8
HETATM    8  C8  UNL     1      -6.304  52.549  12.972  1.00  0.00     0.069 C
HETATM    9  C9  UNL     1      -6.246  53.376  14.299  1.00  0.00     0.243 C
HETATM   10  N4  UNL     1      -5.019  52.793  14.834  1.00  0.00    -0.073 N
HETATM   11  C10 UNL     1      -4.112  53.100  13.726  1.00  0.00     0.253 C
ATOM     12  H42 UNL     1      -4.730  53.121  15.757  1.00  0.00     0.277 HD
ATOM     13  H41 UNL     1      -5.071  51.814  15.116  1.00  0.00     0.277 HD
HETATM   14  C11 UNL     1      -4.907  52.703  12.475  1.00  0.00     0.118 C
HETATM   15 CL1  UNL     1      -4.204  51.146  11.960  1.00  0.00    -0.122 Cl
ENDBRANCH   7   8
BRANCH   6  16
HETATM   16  N3  UNL     1      -7.767  55.423  12.733  1.00  0.00    -0.111 N
HETATM   17  O1  UNL     1      -6.816  56.180  12.600  1.00  0.00    -0.532 OA
HETATM   18  O2  UNL     1      -8.698  55.794  13.725  1.00  0.00    -0.532 OA
ENDBRANCH   6  16
BRANCH   5  19
HETATM   19  N2  UNL     1      -9.893  55.193  10.515  1.00  0.00    -0.374 N
HETATM   20  C4  UNL     1     -11.299  54.869  10.174  1.00  0.00     0.150 C
HETATM   21  C5  UNL     1      -9.585  56.584  10.317  1.00  0.00     0.150 C
ENDBRANCH   5  19
TORSDOF 3
ENDMDL