MODEL 3
REMARK VINA RESULT: -6.432872192      1.816      2.207
REMARK  5 active torsions:
REMARK  status: ('A' for Active; 'I' for Inactive)
REMARK    1  A    between atoms: C2_3  and  O1_4
REMARK    2  A    between atoms: C2_3  and  C3_6
REMARK    3  A    between atoms: C5_10  and  C6_11
REMARK    4  A    between atoms: C6_11  and  C7_12
REMARK    5  A    between atoms: C7_12  and  C8_13
ROOT
HETATM    1  C3  UNL     1      -4.159  52.822  12.060  1.00  0.00     0.115 C
HETATM    2  C4  UNL     1      -2.893  52.475  11.347  1.00  0.00     0.095 A
HETATM    3  N2  UNL     1      -2.091  53.305  10.655  1.00  0.00    -0.344 N
ATOM      4  H2  UNL     1      -2.260  54.303  10.531  1.00  0.00     0.167 HD
HETATM    5  C5  UNL     1      -1.038  52.640  10.149  1.00  0.00     0.049 A
HETATM    6  C9  UNL     1      -1.235  51.322  10.574  1.00  0.00     0.122 A
HETATM    7  N3  UNL     1      -2.369  51.260  11.298  1.00  0.00    -0.339 N
HETATM    8  C10 UNL     1      -3.024  50.144  11.963  1.00  0.00     0.091 C
HETATM    9  C11 UNL     1      -4.320  49.785  11.248  1.00  0.00     0.026 C
HETATM   10  C12 UNL     1      -5.372  50.724  11.764  1.00  0.00     0.008 C
HETATM   11  C13 UNL     1      -4.665  51.602  12.790  1.00  0.00     0.005 C
HETATM   12  C14 UNL     1      -3.557  50.710  13.283  1.00  0.00     0.031 C
ENDROOT
BRANCH   1  13
HETATM   13  C2  UNL     1      -3.958  53.974  12.962  1.00  0.00     0.068 C
HETATM   14  C1  UNL     1      -4.866  54.914  13.108  1.00  0.00     0.132 C
HETATM   15  N1  UNL     1      -6.104  54.860  12.393  1.00  0.00    -0.113 NA
BRANCH  13  16
HETATM   16  O1  UNL     1      -2.779  54.067  13.673  1.00  0.00    -0.363 OA
ATOM     17  H1  UNL     1      -2.248  53.287  13.788  1.00  0.00     0.217 HD
ENDBRANCH  13  16
ENDBRANCH   1  13
BRANCH   5  18
HETATM   18  C6  UNL     1       0.054  53.160   9.346  1.00  0.00     0.038 C
BRANCH  18  19
HETATM   19  C7  UNL     1      -0.135  53.537   8.103  1.00  0.00     0.086 C
BRANCH  19  20
HETATM   20  C8  UNL     1      -1.142  52.895   7.265  1.00  0.00     0.198 C
HETATM   21  O2  UNL     1      -2.215  53.522   6.969  1.00  0.00    -0.645 OA
HETATM   22  O3  UNL     1      -1.003  51.631   6.763  1.00  0.00    -0.645 OA
ENDBRANCH  19  20
ENDBRANCH  18  19
ENDBRANCH   5  18
TORSDOF 5
ENDMDL