MODEL 5
REMARK VINA RESULT: -6.253120110      2.010      2.062
REMARK  3 active torsions:
REMARK  status: ('A' for Active; 'I' for Inactive)
REMARK    1  A    between atoms: C3_6  and  C4_7
REMARK    2  A    between atoms: C4_7  and  S1_8
REMARK    3  A    between atoms: S1_8  and  C5_9
ROOT
HETATM    1  C1  UNL     1     -40.640 -25.662  11.647  1.00  0.00     0.081 C
HETATM    2  C2  UNL     1     -41.804 -24.919  11.056  1.00  0.00     0.095 A
HETATM    3  O1  UNL     1     -41.993 -23.705  10.719  1.00  0.00    -0.241 OA
HETATM    4  N1  UNL     1     -43.179 -23.505  10.266  1.00  0.00    -0.263 N
ATOM      5  H1  UNL     1     -43.538 -22.606   9.944  1.00  0.00     0.194 HD
HETATM    6  C3  UNL     1     -43.863 -24.626  10.278  1.00  0.00     0.065 A
HETATM    7  C7  UNL     1     -42.983 -25.601  10.793  1.00  0.00     0.101 A
HETATM    8  C8  UNL     1     -43.342 -26.969  11.011  1.00  0.00     0.104 C
HETATM    9  N2  UNL     1     -43.612 -28.086  11.211  1.00  0.00    -0.191 NA
ENDROOT
BRANCH   6  10
HETATM   10  C4  UNL     1     -45.240 -25.007   9.833  1.00  0.00     0.140 C
BRANCH  10  11
HETATM   11  S1  UNL     1     -45.888 -23.858   8.607  1.00  0.00    -0.115 SA
BRANCH  11  12
HETATM   12  C5  UNL     1     -47.350 -23.058   9.092  1.00  0.00     0.058 C
HETATM   13 BR1  UNL     1     -48.374 -21.952   7.984  1.00  0.00    -0.043 Br
HETATM   14  C6  UNL     1     -47.733 -23.262  10.366  1.00  0.00     0.110 C
HETATM   15 CL1  UNL     1     -49.102 -22.606  11.167  1.00  0.00    -0.095 Cl
ENDBRANCH  11  12
ENDBRANCH  10  11
ENDBRANCH   6  10
TORSDOF 3
ENDMDL