MODEL 1
REMARK VINA RESULT: -8.208906499      0.000      0.000
REMARK  2 active torsions:
REMARK  status: ('A' for Active; 'I' for Inactive)
REMARK    1  A    between atoms: C2_2  and  O1_3
REMARK    2  A    between atoms: O1_3  and  C3_4
ROOT
HETATM    1  C3  UNL     1     -47.204 -27.254   9.267  1.00  0.00     0.264 C
HETATM    2  C4  UNL     1     -45.758 -27.415   9.612  1.00  0.00     0.102 C
HETATM    3  C5  UNL     1     -45.110 -26.107   9.736  1.00  0.00    -0.018 A
HETATM    4  C6  UNL     1     -43.931 -25.923  10.440  1.00  0.00     0.065 A
HETATM    5 CL1  UNL     1     -43.211 -27.330  11.200  1.00  0.00    -0.082 Cl
HETATM    6  C7  UNL     1     -43.318 -24.695  10.559  1.00  0.00     0.092 A
HETATM    7 CL2  UNL     1     -41.847 -24.527  11.450  1.00  0.00    -0.079 Cl
HETATM    8  C8  UNL     1     -43.906 -23.601   9.950  1.00  0.00     0.129 A
HETATM    9  C9  UNL     1     -45.085 -23.760   9.242  1.00  0.00     0.116 A
HETATM   10  C10 UNL     1     -45.683 -25.013   9.137  1.00  0.00     0.015 A
HETATM   11  C11 UNL     1     -46.926 -25.132   8.380  1.00  0.00     0.157 C
HETATM   12  C12 UNL     1     -46.733 -24.541   6.975  1.00  0.00     0.045 C
HETATM   13  O2  UNL     1     -47.416 -26.393   8.201  1.00  0.00    -0.351 OA
HETATM   14  O3  UNL     1     -45.460 -22.510   8.732  1.00  0.00    -0.322 OA
HETATM   15  C13 UNL     1     -44.336 -21.657   8.819  1.00  0.00     0.352 C
HETATM   16  O4  UNL     1     -43.570 -22.243   9.866  1.00  0.00    -0.321 OA
ENDROOT
BRANCH   1  17
HETATM   17  O1  UNL     1     -47.683 -28.510   8.884  1.00  0.00    -0.361 OA
BRANCH  17  18
HETATM   18  C2  UNL     1     -46.654 -29.417   8.680  1.00  0.00     0.166 C
HETATM   19  C1  UNL     1     -46.886 -30.310   7.494  1.00  0.00     0.033 C
ENDBRANCH  17  18
ENDBRANCH   1  17
TORSDOF 2
ENDMDL