MODEL 2
REMARK VINA RESULT: -7.830779253      1.420      1.841
REMARK  3 active torsions:
REMARK  status: ('A' for Active; 'I' for Inactive)
REMARK    1  A    between atoms: C7_8  and  O1_9
REMARK    2  A    between atoms: O1_9  and  C8_10
REMARK    3  A    between atoms: C8_10  and  C9_12
ROOT
HETATM    1  O1  UNL     1     -45.515 -23.385   8.999  1.00  0.00    -0.312 OA
ENDROOT
BRANCH   1   2
HETATM    2  C7  UNL     1     -46.503 -22.450   9.415  1.00  0.00     0.136 C
HETATM    3  C6  UNL     1     -47.389 -22.233   8.168  1.00  0.00     0.068 C
HETATM    4  C5  UNL     1     -48.843 -22.133   8.550  1.00  0.00     0.225 C
HETATM    5  N1  UNL     1     -48.876 -21.438   9.796  1.00  0.00     0.093 N
HETATM    6  C4  UNL     1     -49.369 -23.530   8.777  1.00  0.00     0.038 C
HETATM    7  C1  UNL     1     -50.044 -20.641   9.974  1.00  0.00     0.310 C
HETATM    8  C2  UNL     1     -48.668 -22.487  10.734  1.00  0.00     0.225 C
HETATM    9  C3  UNL     1     -49.589 -23.616  10.254  1.00  0.00     0.038 C
HETATM   10  C13 UNL     1     -47.248 -23.009  10.575  1.00  0.00     0.068 C
ENDBRANCH   1   2
BRANCH   1  11
HETATM   11  C8  UNL     1     -44.361 -23.683   9.725  1.00  0.00     0.296 C
HETATM   12  O2  UNL     1     -43.560 -22.849  10.021  1.00  0.00    -0.259 OA
BRANCH  11  13
HETATM   13  C9  UNL     1     -44.223 -25.144  10.077  1.00  0.00     0.070 A
HETATM   14  C10 UNL     1     -45.186 -26.023   9.731  1.00  0.00     0.051 A
HETATM   15  C11 UNL     1     -45.050 -27.313  10.169  1.00  0.00     0.077 A
HETATM   16 CL1  UNL     1     -46.122 -28.681   9.888  1.00  0.00    -0.076 Cl
HETATM   17  S1  UNL     1     -43.570 -27.258  11.060  1.00  0.00    -0.065 SA
HETATM   18  C12 UNL     1     -43.198 -25.585  10.833  1.00  0.00     0.092 A
HETATM   19 CL2  UNL     1     -41.795 -24.682  11.445  1.00  0.00    -0.075 Cl
ENDBRANCH  11  13
ENDBRANCH   1  11
TORSDOF 3
ENDMDL