MODEL 1
REMARK VINA RESULT: -6.529184863      0.000      0.000
REMARK  3 active torsions:
REMARK  status: ('A' for Active; 'I' for Inactive)
REMARK    1  A    between atoms: C6_9  and  S2_10
REMARK    2  A    between atoms: S2_10  and  N1_13
REMARK    3  A    between atoms: N1_13  and  C7_15
ROOT
HETATM    1  C1  UNL     1     -47.396 -25.549   8.616  1.00  0.00     0.018 C
HETATM    2  C2  UNL     1     -46.362 -25.831   9.199  1.00  0.00    -0.074 C
HETATM    3  C3  UNL     1     -45.119 -26.160   9.914  1.00  0.00     0.071 A
HETATM    4  C4  UNL     1     -44.922 -27.453  10.316  1.00  0.00     0.096 A
HETATM    5 CL1  UNL     1     -45.964 -28.873  10.114  1.00  0.00    -0.075 Cl
HETATM    6  S1  UNL     1     -43.406 -27.409  11.083  1.00  0.00    -0.063 SA
HETATM    7  C5  UNL     1     -43.051 -25.753  10.878  1.00  0.00     0.101 A
HETATM    8 CL2  UNL     1     -41.616 -24.847  11.403  1.00  0.00    -0.074 Cl
HETATM    9  C6  UNL     1     -44.142 -25.276  10.207  1.00  0.00     0.129 A
ENDROOT
BRANCH   9  10
HETATM   10  S2  UNL     1     -44.240 -23.554   9.767  1.00  0.00     0.266 S
HETATM   11  O1  UNL     1     -42.889 -22.973   9.944  1.00  0.00    -0.200 OA
HETATM   12  O2  UNL     1     -44.664 -23.413   8.334  1.00  0.00    -0.200 OA
BRANCH  10  13
HETATM   13  N1  UNL     1     -45.441 -22.787  10.724  1.00  0.00    -0.281 N
ATOM     14  H1  UNL     1     -45.410 -22.819  11.743  1.00  0.00     0.179 HD
BRANCH  13  15
HETATM   15  C7  UNL     1     -46.381 -22.169  10.101  1.00  0.00     0.181 C
HETATM   16  S3  UNL     1     -47.878 -21.807   9.631  1.00  0.00    -0.074 SA
ENDBRANCH  13  15
ENDBRANCH  10  13
ENDBRANCH   9  10
TORSDOF 3
ENDMDL