MODEL 3
REMARK VINA RESULT: -6.196779336      3.136      3.856
REMARK  3 active torsions:
REMARK  status: ('A' for Active; 'I' for Inactive)
REMARK    1  A    between atoms: C1_2  and  O2_3
REMARK    2  A    between atoms: C1_2  and  C6_8
REMARK    3  A    between atoms: O2_3  and  C2_4
ROOT
HETATM    1  C6  UNL     1     -44.491 -23.105   9.678  1.00  0.00     0.083 A
HETATM    2  C7  UNL     1     -44.764 -22.782   8.375  1.00  0.00     0.050 A
HETATM    3  C8  UNL     1     -45.904 -22.125   8.131  1.00  0.00     0.059 A
HETATM    4 CL1  UNL     1     -46.425 -21.622   6.494  1.00  0.00    -0.082 Cl
HETATM    5  C9  UNL     1     -46.706 -21.829   9.198  1.00  0.00     0.074 A
HETATM    6 BR1  UNL     1     -48.385 -20.920   9.267  1.00  0.00    -0.041 Br
HETATM    7  S1  UNL     1     -45.851 -22.472  10.514  1.00  0.00    -0.075 SA
ENDROOT
BRANCH   1   8
HETATM    8  C1  UNL     1     -43.318 -23.819  10.220  1.00  0.00     0.300 C
HETATM    9  O1  UNL     1     -42.202 -23.307   9.990  1.00  0.00    -0.259 OA
BRANCH   8  10
HETATM   10  O2  UNL     1     -43.427 -24.978  10.936  1.00  0.00    -0.312 OA
BRANCH  10  11
HETATM   11  C2  UNL     1     -43.827 -26.150  10.297  1.00  0.00     0.132 C
HETATM   12  C3  UNL     1     -45.323 -26.378  10.198  1.00  0.00     0.032 C
HETATM   13  C4  UNL     1     -44.985 -27.874  10.307  1.00  0.00     0.005 C
HETATM   14  C5  UNL     1     -43.814 -27.405  11.183  1.00  0.00     0.032 C
ENDBRANCH  10  11
ENDBRANCH   8  10
ENDBRANCH   1   8
TORSDOF 3
ENDMDL