MODEL 3
REMARK VINA RESULT: -8.704092984      1.530      1.566
REMARK  2 active torsions:
REMARK  status: ('A' for Active; 'I' for Inactive)
REMARK    1  A    between atoms: C2_2  and  C6_8
REMARK    2  A    between atoms: C3_3  and  C4_4
ROOT
HETATM    1  C6  UNL     1     -45.947 -26.888   9.593  1.00  0.00     0.002 A
HETATM    2  C7  UNL     1     -45.769 -28.115  10.097  1.00  0.00    -0.005 A
HETATM    3  C8  UNL     1     -44.488 -28.242  10.783  1.00  0.00     0.095 A
HETATM    4  C9  UNL     1     -43.886 -26.897  10.629  1.00  0.00     0.084 A
HETATM    5  C10 UNL     1     -44.742 -26.146   9.946  1.00  0.00     0.112 A
HETATM    6  O1  UNL     1     -44.461 -24.810   9.634  1.00  0.00    -0.314 OA
HETATM    7  C11 UNL     1     -43.876 -23.840  10.462  1.00  0.00     0.298 A
HETATM    8  O2  UNL     1     -42.765 -23.142  10.003  1.00  0.00    -0.345 OA
HETATM    9  C12 UNL     1     -42.676 -24.106  11.123  1.00  0.00     0.209 A
HETATM   10  C13 UNL     1     -41.891 -25.330  10.863  1.00  0.00     0.158 C
HETATM   11  C14 UNL     1     -40.677 -25.404  11.797  1.00  0.00     0.043 C
HETATM   12  O3  UNL     1     -42.622 -26.534  11.140  1.00  0.00    -0.345 OA
ENDROOT
BRANCH   1  13
HETATM   13  C2  UNL     1     -47.101 -26.405   8.850  1.00  0.00    -0.049 C
HETATM   14  C1  UNL     1     -46.873 -25.675   7.552  1.00  0.00     0.049 C
HETATM   15  C3  UNL     1     -48.356 -26.548   9.211  1.00  0.00     0.010 C
BRANCH  15  16
HETATM   16  C4  UNL     1     -49.423 -26.027   8.391  1.00  0.00     0.037 C
HETATM   17  C5  UNL     1     -50.627 -25.876   8.914  1.00  0.00     0.103 C
HETATM   18 CL1  UNL     1     -50.937 -26.302  10.583  1.00  0.00    -0.071 Cl
HETATM   19 CL2  UNL     1     -51.921 -25.243   7.916  1.00  0.00    -0.071 Cl
ENDBRANCH  15  16
ENDBRANCH   1  13
TORSDOF 2
ENDMDL