MODEL 3
REMARK VINA RESULT: -6.765153059      1.515      1.826
REMARK  4 active torsions:
REMARK  status: ('A' for Active; 'I' for Inactive)
REMARK    1  A    between atoms: O1_2  and  C2_3
REMARK    2  A    between atoms: C2_3  and  C3_5
REMARK    3  A    between atoms: C4_6  and  C5_7
REMARK    4  A    between atoms: C9_14  and  C10_15
ROOT
HETATM    1  C5  UNL     1     -47.022 -22.283   8.184  1.00  0.00     0.057 C
HETATM    2  C6  UNL     1     -46.598 -22.050   6.783  1.00  0.00     0.037 C
HETATM    3  S1  UNL     1     -48.428 -23.491   8.035  1.00  0.00    -0.068 SA
HETATM    4  C7  UNL     1     -47.234 -24.811   7.869  1.00  0.00     0.232 C
HETATM    5  O3  UNL     1     -47.346 -25.810   7.131  1.00  0.00    -0.279 OA
HETATM    6  C8  UNL     1     -46.169 -24.393   8.793  1.00  0.00     0.097 C
HETATM    7 CL1  UNL     1     -45.250 -25.775   9.498  1.00  0.00    -0.079 Cl
HETATM    8  C9  UNL     1     -46.038 -23.110   8.970  1.00  0.00    -0.009 C
ENDROOT
BRANCH   1   9
HETATM    9  C4  UNL     1     -47.620 -21.155   8.871  1.00  0.00     0.004 C
HETATM   10  C3  UNL     1     -48.875 -21.031   9.257  1.00  0.00     0.080 C
BRANCH  10  11
HETATM   11  C2  UNL     1     -49.433 -19.882   9.944  1.00  0.00     0.282 C
HETATM   12  O2  UNL     1     -48.858 -18.751   9.961  1.00  0.00    -0.260 OA
BRANCH  11  13
HETATM   13  O1  UNL     1     -50.636 -19.962  10.623  1.00  0.00    -0.323 OA
HETATM   14  C1  UNL     1     -51.108 -21.199  11.121  1.00  0.00     0.213 C
ENDBRANCH  11  13
ENDBRANCH  10  11
ENDBRANCH   1   9
BRANCH   8  15
HETATM   15  C10 UNL     1     -45.008 -22.535   9.875  1.00  0.00     0.057 C
HETATM   16  C11 UNL     1     -43.656 -23.195   9.842  1.00  0.00     0.037 C
HETATM   17  C12 UNL     1     -45.469 -22.604  11.348  1.00  0.00     0.037 C
HETATM   18 CL2  UNL     1     -44.725 -20.822   9.578  1.00  0.00    -0.115 Cl
ENDBRANCH   8  15
TORSDOF 4
ENDMDL