MODEL 4
REMARK VINA RESULT: -6.824452572      3.011      6.663
REMARK  6 active torsions:
REMARK  status: ('A' for Active; 'I' for Inactive)
REMARK    1  A    between atoms: C5_5  and  C6_6
REMARK    2  A    between atoms: C6_6  and  C7_9
REMARK    3  A    between atoms: C7_9  and  O1_10
REMARK    4  A    between atoms: C7_9  and  N1_12
REMARK       I    between atoms: N1_12  and  C9_14
REMARK    5  A    between atoms: C9_14  and  O3_16
REMARK    6  A    between atoms: O3_16  and  C10_17
ROOT
HETATM    1  C7  UNL     1     -46.199 -21.971   7.813  1.00  0.00     0.185 C
ENDROOT
BRANCH   1   2
HETATM    2  C6  UNL     1     -46.063 -23.416   7.649  1.00  0.00     0.281 C
HETATM    3  F1  UNL     1     -45.339 -23.827   6.555  1.00  0.00    -0.209 F
HETATM    4 CL1  UNL     1     -47.691 -24.132   7.578  1.00  0.00    -0.068 Cl
BRANCH   2   5
HETATM    5  C5  UNL     1     -45.339 -24.019   8.838  1.00  0.00     0.046 C
HETATM    6  C4  UNL     1     -45.663 -25.270   9.545  1.00  0.00     0.059 C
HETATM    7  C3  UNL     1     -44.346 -25.648  10.180  1.00  0.00     0.030 C
HETATM    8  C2  UNL     1     -43.819 -24.232  10.479  1.00  0.00     0.077 C
HETATM    9  C1  UNL     1     -42.325 -24.209  10.492  1.00  0.00     0.032 C
HETATM   10  N2  UNL     1     -44.329 -23.474   9.370  1.00  0.00    -0.388 N
ATOM     11  H2  UNL     1     -43.922 -22.596   9.048  1.00  0.00     0.159 HD
ENDBRANCH   2   5
ENDBRANCH   1   2
BRANCH   1  12
HETATM   12  O1  UNL     1     -45.140 -21.216   7.737  1.00  0.00    -0.345 OA
ATOM     13  H1  UNL     1     -44.472 -21.280   8.409  1.00  0.00     0.219 HD
ENDBRANCH   1  12
BRANCH   1  14
HETATM   14  N1  UNL     1     -47.396 -21.303   8.054  1.00  0.00    -0.278 N
HETATM   15  C8  UNL     1     -48.025 -20.598   6.895  1.00  0.00     0.163 C
HETATM   16  C9  UNL     1     -48.097 -21.207   9.255  1.00  0.00     0.369 C
HETATM   17  O2  UNL     1     -47.784 -21.707  10.354  1.00  0.00    -0.238 OA
BRANCH  16  18
HETATM   18  O3  UNL     1     -49.304 -20.483   9.305  1.00  0.00    -0.293 OA
BRANCH  18  19
HETATM   19  C10 UNL     1     -50.557 -21.139   9.441  1.00  0.00     0.061 C
HETATM   20  C11 UNL     1     -51.507 -20.447   8.481  1.00  0.00     0.046 C
HETATM   21  C12 UNL     1     -51.119 -21.012  10.824  1.00  0.00     0.046 C
HETATM   22  C13 UNL     1     -50.473 -22.588   9.020  1.00  0.00     0.046 C
ENDBRANCH  18  19
ENDBRANCH  16  18
ENDBRANCH   1  14
TORSDOF 6
ENDMDL