MODEL 4
REMARK VINA RESULT: -7.117773077      1.866      1.996
REMARK  4 active torsions:
REMARK  status: ('A' for Active; 'I' for Inactive)
REMARK    1  A    between atoms: C2_2  and  C3_4
REMARK    2  A    between atoms: C2_2  and  C5_7
REMARK    3  A    between atoms: C5_7  and  C6_9
REMARK    4  A    between atoms: N2_13  and  C8_14
ROOT
HETATM    1  C3  UNL     1     -44.310 -24.943   9.962  1.00  0.00    -0.055 C
HETATM    2  C4  UNL     1     -44.328 -26.054  10.427  1.00  0.00     0.007 C
HETATM    3 CL2  UNL     1     -44.327 -27.663  11.086  1.00  0.00    -0.023 Cl
ENDROOT
BRANCH   1   4
HETATM    4  C2  UNL     1     -44.275 -23.584   9.373  1.00  0.00     0.162 C
HETATM    5  C1  UNL     1     -42.851 -23.175   9.209  1.00  0.00     0.056 C
HETATM    6 CL1  UNL     1     -45.009 -23.729   7.764  1.00  0.00    -0.097 Cl
BRANCH   4   7
HETATM    7  C5  UNL     1     -45.059 -22.636  10.201  1.00  0.00     0.197 C
HETATM    8  O1  UNL     1     -45.088 -22.798  11.456  1.00  0.00    -0.289 OA
BRANCH   7   9
HETATM    9  C6  UNL     1     -45.794 -21.529   9.630  1.00  0.00     0.047 A
HETATM   10  C7  UNL     1     -45.295 -20.301   9.248  1.00  0.00     0.124 A
HETATM   11  N1  UNL     1     -46.331 -19.557   8.760  1.00  0.00    -0.309 N
HETATM   12  N2  UNL     1     -47.446 -20.270   8.825  1.00  0.00    -0.298 N
ATOM     13  H1  UNL     1     -46.257 -18.604   8.403  1.00  0.00     0.186 HD
HETATM   14  C13 UNL     1     -47.143 -21.472   9.351  1.00  0.00     0.127 A
BRANCH  12  15
HETATM   15  C8  UNL     1     -48.759 -19.855   8.413  1.00  0.00     0.111 C
HETATM   16  C9  UNL     1     -49.724 -19.780   9.594  1.00  0.00     0.053 C
HETATM   17  C10 UNL     1     -51.057 -19.321   9.040  1.00  0.00     0.169 C
HETATM   18  O2  UNL     1     -51.563 -20.260   8.153  1.00  0.00    -0.391 OA
HETATM   19  C11 UNL     1     -50.741 -20.453   7.053  1.00  0.00     0.169 C
HETATM   20  C12 UNL     1     -49.345 -20.853   7.437  1.00  0.00     0.053 C
ENDBRANCH  12  15
ENDBRANCH   7   9
ENDBRANCH   4   7
ENDBRANCH   1   4
TORSDOF 4
ENDMDL