MODEL 3
REMARK VINA RESULT: -5.277430993      1.834      6.262
REMARK  7 active torsions:
REMARK  status: ('A' for Active; 'I' for Inactive)
REMARK    1  A    between atoms: N1_1  and  C1_4
REMARK    2  A    between atoms: N4_10  and  C4_11
REMARK    3  A    between atoms: C5_14  and  N6_15
REMARK    4  A    between atoms: N7_18  and  N8_19
REMARK    5  A    between atoms: N8_19  and  N9_21
REMARK    6  A    between atoms: N9_21  and  N10_23
REMARK    7  A    between atoms: C6_26  and  O1_27
ROOT
HETATM    1  C4  UNL     1      14.961   9.437  12.341  1.00  0.00     0.172 A
HETATM    2  N5  UNL     1      15.050  10.778  12.399  1.00  0.00    -0.172 N
ATOM      3  H5  UNL     1      14.189  11.323  12.351  1.00  0.00     0.186 HD
HETATM    4  C5  UNL     1      16.219  11.441  12.518  1.00  0.00     0.702 A
HETATM    5  N7  UNL     1      17.343  10.714  12.581  1.00  0.00    -0.046 N
HETATM    6  C6  UNL     1      17.305   9.347  12.528  1.00  0.00     0.209 A
HETATM    7  C7  UNL     1      16.118   8.663  12.406  1.00  0.00     0.145 A
HETATM    8  N11 UNL     1      16.046   7.242  12.347  1.00  0.00    -0.094 NA
ENDROOT
BRANCH   1   9
HETATM    9  N4  UNL     1      13.726   8.741  12.206  1.00  0.00    -0.138 N
HETATM   10  C1  UNL     1      13.260   8.156  11.063  1.00  0.00     0.685 A
HETATM   11  N2  UNL     1      12.065   7.603  11.308  1.00  0.00    -0.177 N
HETATM   12  C2  UNL     1      11.730   7.812  12.600  1.00  0.00     0.148 A
ATOM     13  H2  UNL     1      11.496   7.102  10.625  1.00  0.00     0.185 HD
HETATM   14  N3  UNL     1      10.535   7.383  13.252  1.00  0.00    -0.081 NA
HETATM   15  C3  UNL     1      12.786   8.525  13.135  1.00  0.00     0.162 A
BRANCH  10  16
HETATM   16  N1  UNL     1      13.918   8.172   9.955  1.00  0.00    -0.234 N
ATOM     17  H12 UNL     1      13.462   8.173   9.043  1.00  0.00     0.174 HD
ATOM     18  H11 UNL     1      14.930   8.183   9.823  1.00  0.00     0.174 HD
ENDBRANCH  10  16
ENDBRANCH   1   9
BRANCH   4  19
HETATM   19  N6  UNL     1      16.219  12.730  12.577  1.00  0.00    -0.233 N
ATOM     20  H62 UNL     1      15.476  13.299  12.173  1.00  0.00     0.174 HD
ATOM     21  H61 UNL     1      16.991  13.215  13.036  1.00  0.00     0.174 HD
ENDBRANCH   4  19
BRANCH   6  22
HETATM   22  O1  UNL     1      18.480   8.603  12.594  1.00  0.00    -0.343 OA
ATOM     23  H1  UNL     1      18.470   7.713  12.925  1.00  0.00     0.219 HD
ENDBRANCH   6  22
BRANCH   5  24
HETATM   24  N8  UNL     1      18.587  11.335  12.681  1.00  0.00    -0.205 N
ATOM     25  H8  UNL     1      18.964  11.800  11.854  1.00  0.00     0.211 HD
BRANCH  24  26
HETATM   26  N9  UNL     1      19.340  11.354  13.848  1.00  0.00    -0.234 N
ATOM     27  H9  UNL     1      19.050  11.884  14.669  1.00  0.00     0.209 HD
BRANCH  26  28
HETATM   28  N10 UNL     1      20.498  10.617  13.831  1.00  0.00    -0.330 N
ATOM     29 2H10 UNL     1      20.486   9.623  13.599  1.00  0.00     0.178 HD
ATOM     30 1H10 UNL     1      21.354  11.121  14.061  1.00  0.00     0.178 HD
ENDBRANCH  26  28
ENDBRANCH  24  26
ENDBRANCH   5  24
TORSDOF 7
ENDMDL