MODEL 4
REMARK VINA RESULT: -5.291956430      6.143      8.915
REMARK  8 active torsions:
REMARK  status: ('A' for Active; 'I' for Inactive)
REMARK    1  A    between atoms: N1_1  and  C1_4
REMARK    2  A    between atoms: C2_7  and  C3_8
REMARK    3  A    between atoms: C3_8  and  O1_9
REMARK    4  A    between atoms: C3_8  and  C4_11
REMARK    5  A    between atoms: C4_11  and  C5_12
REMARK    6  A    between atoms: C5_12  and  O2_13
REMARK    7  A    between atoms: C8_25  and  N8_26
REMARK    8  A    between atoms: N8_26  and  O3_28
ROOT
HETATM    1  C1  UNL     1      13.809   9.139  12.288  1.00  0.00     0.130 A
HETATM    2  N2  UNL     1      14.338   9.883  13.270  1.00  0.00    -0.328 N
ATOM      3  H2  UNL     1      14.455   9.468  14.194  1.00  0.00     0.169 HD
HETATM    4  C2  UNL     1      14.724  11.178  13.073  1.00  0.00     0.116 A
HETATM    5  N7  UNL     1      14.542  11.664  11.833  1.00  0.00    -0.351 N
ATOM      6  H7  UNL     1      14.819  12.628  11.650  1.00  0.00     0.166 HD
HETATM    7  C7  UNL     1      14.015  10.957  10.819  1.00  0.00     0.124 A
HETATM    8  C8  UNL     1      13.633   9.662  11.029  1.00  0.00     0.113 A
ENDROOT
BRANCH   4   9
HETATM    9  C3  UNL     1      15.308  11.957  14.195  1.00  0.00     0.233 C
BRANCH   9  10
HETATM   10  O1  UNL     1      14.954  11.437  15.445  1.00  0.00    -0.384 OA
ATOM     11  H1  UNL     1      14.938  12.103  16.122  1.00  0.00     0.210 HD
ENDBRANCH   9  10
BRANCH   9  12
HETATM   12  C4  UNL     1      16.788  12.134  14.125  1.00  0.00     0.174 C
HETATM   13  N3  UNL     1      17.475  11.746  15.320  1.00  0.00    -0.357 N
HETATM   14  C6  UNL     1      18.709  11.067  15.119  1.00  0.00     0.192 C
ATOM     15  H3  UNL     1      17.105  11.943  16.250  1.00  0.00     0.162 HD
HETATM   16  N4  UNL     1      19.411  11.396  13.928  1.00  0.00    -0.284 N
HETATM   17  N5  UNL     1      18.607  11.486  12.795  1.00  0.00    -0.028 NA
ATOM     18  H4  UNL     1      20.419  11.553  13.904  1.00  0.00     0.184 HD
HETATM   19  N6  UNL     1      17.267  11.265  13.057  1.00  0.00    -0.089 NA
BRANCH  12  20
HETATM   20  C5  UNL     1      17.098  13.578  13.836  1.00  0.00     0.217 C
BRANCH  20  21
HETATM   21  O2  UNL     1      16.729  13.961  12.556  1.00  0.00    -0.397 OA
ATOM     22  H2  UNL     1      17.371  13.718  11.899  1.00  0.00     0.209 HD
ENDBRANCH  20  21
ENDBRANCH  12  20
ENDBRANCH   9  12
ENDBRANCH   4   9
BRANCH   1  23
HETATM   23  N1  UNL     1      13.467   7.930  12.538  1.00  0.00    -0.383 N
ATOM     24  H12 UNL     1      12.668   7.737  13.142  1.00  0.00     0.157 HD
ATOM     25  H11 UNL     1      14.005   7.167  12.127  1.00  0.00     0.157 HD
ENDBRANCH   1  23
BRANCH   8  26
HETATM   26  N8  UNL     1      13.066   8.841  10.002  1.00  0.00    -0.264 N
ATOM     27  H8  UNL     1      13.679   8.392   9.322  1.00  0.00     0.194 HD
BRANCH  26  28
HETATM   28  O3  UNL     1      11.840   8.668   9.925  1.00  0.00    -0.289 OA
ATOM     29  H3  UNL     1      11.428   7.903  10.310  1.00  0.00     0.244 HD
ENDBRANCH  26  28
ENDBRANCH   8  26
TORSDOF 8
ENDMDL