MODEL 2
REMARK VINA RESULT: -6.014489733      7.994      8.622
REMARK  4 active torsions:
REMARK  status: ('A' for Active; 'I' for Inactive)
REMARK    1  A    between atoms: C5_14  and  N6_15
REMARK    2  A    between atoms: N6_15  and  C6_17
REMARK    3  A    between atoms: C6_17  and  O2_18
REMARK    4  A    between atoms: C6_17  and  N7_20
REMARK       I    between atoms: N7_20  and  C7_22
REMARK       I    between atoms: C7_22  and  N8_23
REMARK       I    between atoms: C7_22  and  N9_27
ROOT
HETATM    1  N6  UNL     1      18.359  11.595  12.751  1.00  0.00    -0.343 N
ATOM      2  H6  UNL     1      18.698  12.218  12.018  1.00  0.00     0.164 HD
ENDROOT
BRANCH   1   3
HETATM    3  C5  UNL     1      16.977  11.263  12.756  1.00  0.00     0.103 A
HETATM    4  C1  UNL     1      16.036  12.211  13.088  1.00  0.00     0.148 A
HETATM    5  N1  UNL     1      16.474  13.523  13.420  1.00  0.00    -0.080 NA
HETATM    6  N2  UNL     1      14.707  11.939  13.107  1.00  0.00    -0.308 N
HETATM    7  C2  UNL     1      14.260  10.715  12.798  1.00  0.00     0.277 A
ATOM      8  H2  UNL     1      14.043  12.671  13.358  1.00  0.00     0.170 HD
HETATM    9  O1  UNL     1      13.030  10.450  12.813  1.00  0.00    -0.266 OA
HETATM   10  C3  UNL     1      15.176   9.730  12.458  1.00  0.00     0.144 A
HETATM   11  N3  UNL     1      15.046   8.423  12.102  1.00  0.00    -0.277 N
HETATM   12  C4  UNL     1      16.529   9.987  12.432  1.00  0.00     0.109 A
HETATM   13  N4  UNL     1      16.266   7.942  11.880  1.00  0.00    -0.021 NA
ATOM     14  H3  UNL     1      14.171   7.906  12.020  1.00  0.00     0.184 HD
HETATM   15  N5  UNL     1      17.176   8.883  12.077  1.00  0.00    -0.280 N
ATOM     16  H5  UNL     1      18.186   8.779  11.976  1.00  0.00     0.184 HD
ENDBRANCH   1   3
BRANCH   1  17
HETATM   17  C6  UNL     1      19.317  11.107  13.721  1.00  0.00     0.325 C
BRANCH  17  18
HETATM   18  O2  UNL     1      19.921   9.957  13.269  1.00  0.00    -0.360 OA
ATOM     19  H2  UNL     1      19.525   9.668  12.456  1.00  0.00     0.214 HD
ENDBRANCH  17  18
BRANCH  17  20
HETATM   20  N7  UNL     1      18.705  11.030  14.989  1.00  0.00    -0.332 N
HETATM   21  C7  UNL     1      18.966   9.906  15.801  1.00  0.00     0.479 C
HETATM   22  N8  UNL     1      20.354   9.714  16.143  1.00  0.00    -0.033 N
HETATM   23  N9  UNL     1      18.445   8.686  15.288  1.00  0.00    -0.033 N
ATOM     24  H83 UNL     1      20.923   9.678  15.298  1.00  0.00     0.278 HD
ATOM     25  H82 UNL     1      20.731  10.557  16.576  1.00  0.00     0.278 HD
ATOM     26  H81 UNL     1      20.542   8.902  16.730  1.00  0.00     0.278 HD
ATOM     27  H93 UNL     1      17.445   8.773  15.107  1.00  0.00     0.278 HD
ATOM     28  H92 UNL     1      18.779   8.526  14.338  1.00  0.00     0.278 HD
ATOM     29  H91 UNL     1      18.634   7.874  15.875  1.00  0.00     0.278 HD
ATOM     30  H7  UNL     1      18.085  11.772  15.312  1.00  0.00     0.161 HD
ENDBRANCH  17  20
ENDBRANCH   1  17
TORSDOF 4
ENDMDL