MODEL 2
REMARK VINA RESULT: -5.210720838      1.128      1.212
REMARK  8 active torsions:
REMARK  status: ('A' for Active; 'I' for Inactive)
REMARK    1  A    between atoms: N3_6  and  N4_8
REMARK    2  A    between atoms: N4_8  and  N5_10
REMARK       I    between atoms: N5_10  and  C3_12
REMARK       I    between atoms: C3_12  and  N7_16
REMARK    3  A    between atoms: N7_16  and  N8_18
REMARK    4  A    between atoms: C4_21  and  N9_22
REMARK    5  A    between atoms: N9_22  and  O1_24
REMARK    6  A    between atoms: C5_26  and  C6_27
REMARK    7  A    between atoms: C6_27  and  N10_28
REMARK    8  A    between atoms: C6_27  and  O2_32
ROOT
HETATM    1  C1  UNL     1      19.472  10.510  13.643  1.00  0.00     0.178 C
HETATM    2  N1  UNL     1      18.142  10.260  13.119  1.00  0.00    -0.292 N
HETATM    3  N2  UNL     1      17.641   9.093  12.818  1.00  0.00    -0.280 N
ATOM      4  H2  UNL     1      18.137   8.207  12.918  1.00  0.00     0.189 HD
HETATM    5  C2  UNL     1      16.387   9.218  12.359  1.00  0.00     0.167 A
HETATM    6  N3  UNL     1      15.566   8.323  11.963  1.00  0.00    -0.267 N
ATOM      7  H3  UNL     1      15.878   7.353  11.986  1.00  0.00     0.190 HD
HETATM    8  C4  UNL     1      16.115  10.568  12.388  1.00  0.00     0.129 A
HETATM    9  C5  UNL     1      17.238  11.201  12.870  1.00  0.00     0.116 A
ENDROOT
BRANCH   6  10
HETATM   10  N4  UNL     1      14.285   8.576  11.507  1.00  0.00    -0.227 N
ATOM     11  H4  UNL     1      13.774   9.358  11.916  1.00  0.00     0.209 HD
BRANCH  10  12
HETATM   12  N5  UNL     1      13.652   7.820  10.518  1.00  0.00    -0.117 N
HETATM   13  C3  UNL     1      13.094   8.409   9.354  1.00  0.00     0.705 C
HETATM   14  N6  UNL     1      12.644   9.611   9.381  1.00  0.00    -0.232 N
HETATM   15  N7  UNL     1      13.032   7.662   8.145  1.00  0.00    -0.138 N
ATOM     16  H62 UNL     1      12.689  10.146  10.248  1.00  0.00     0.174 HD
ATOM     17  H61 UNL     1      12.243  10.034   8.544  1.00  0.00     0.174 HD
ATOM     18  H7  UNL     1      12.121   7.528   7.706  1.00  0.00     0.205 HD
ATOM     19  H5  UNL     1      13.589   6.809  10.636  1.00  0.00     0.207 HD
BRANCH  15  20
HETATM   20  N8  UNL     1      14.155   7.103   7.528  1.00  0.00    -0.331 N
ATOM     21  H82 UNL     1      14.973   6.932   8.112  1.00  0.00     0.177 HD
ATOM     22  H81 UNL     1      14.190   6.864   6.537  1.00  0.00     0.177 HD
ENDBRANCH  15  20
ENDBRANCH  10  12
ENDBRANCH   6  10
BRANCH   8  23
HETATM   23  N9  UNL     1      14.873  11.183  11.980  1.00  0.00    -0.263 N
ATOM     24  H9  UNL     1      14.222  11.507  12.697  1.00  0.00     0.194 HD
BRANCH  23  25
HETATM   25  O1  UNL     1      14.576  11.326  10.789  1.00  0.00    -0.289 OA
ATOM     26  H1  UNL     1      13.685  11.217  10.478  1.00  0.00     0.244 HD
ENDBRANCH  23  25
ENDBRANCH   8  23
BRANCH   9  27
HETATM   27  C6  UNL     1      17.331  12.667  13.048  1.00  0.00     0.371 C
BRANCH  27  28
HETATM   28  N10 UNL     1      16.723  13.135  14.257  1.00  0.00    -0.047 N
ATOM     29 3H10 UNL     1      15.825  13.578  14.061  1.00  0.00     0.277 HD
ATOM     30 2H10 UNL     1      16.404  12.352  14.828  1.00  0.00     0.277 HD
ATOM     31 1H10 UNL     1      17.321  13.757  14.799  1.00  0.00     0.277 HD
ENDBRANCH  27  28
BRANCH  27  32
HETATM   32  O2  UNL     1      16.749  13.262  11.930  1.00  0.00    -0.365 OA
ATOM     33  H2  UNL     1      16.761  14.201  12.068  1.00  0.00     0.212 HD
ENDBRANCH  27  32
ENDBRANCH   9  27
TORSDOF 8
ENDMDL