MODEL 5
REMARK VINA RESULT: -5.482234831      2.686      3.629
REMARK  8 active torsions:
REMARK  status: ('A' for Active; 'I' for Inactive)
REMARK    1  A    between atoms: N1_1  and  C1_4
REMARK    2  A    between atoms: C2_7  and  S1_8
REMARK    3  A    between atoms: S1_8  and  C3_9
REMARK    4  A    between atoms: C4_12  and  N4_13
REMARK    5  A    between atoms: N6_18  and  C5_19
REMARK    6  A    between atoms: C5_19  and  O1_20
REMARK    7  A    between atoms: N7_22  and  N8_24
REMARK    8  A    between atoms: N8_24  and  N9_26
ROOT
HETATM    1  C3  UNL     1      12.738  16.992  17.189  1.00  0.00     0.192 A
HETATM    2  N3  UNL     1      12.852  16.937  18.529  1.00  0.00    -0.167 N
ATOM      3  H3  UNL     1      12.145  16.624  19.194  1.00  0.00     0.186 HD
HETATM    4  C4  UNL     1      14.108  17.388  18.817  1.00  0.00     0.693 A
HETATM    5  N5  UNL     1      14.700  17.695  17.655  1.00  0.00    -0.120 N
ATOM      6  H5  UNL     1      15.648  18.058  17.562  1.00  0.00     0.206 HD
HETATM    7  N6  UNL     1      13.867  17.457  16.633  1.00  0.00    -0.180 N
ENDROOT
BRANCH   1   8
HETATM    8  S1  UNL     1      11.283  16.514  16.255  1.00  0.00    -0.013 SA
BRANCH   8   9
HETATM    9  C2  UNL     1      11.554  14.959  15.424  1.00  0.00     0.182 A
HETATM   10  N2  UNL     1      12.538  14.102  15.740  1.00  0.00    -0.168 N
HETATM   11  C1  UNL     1      12.466  13.017  14.920  1.00  0.00     0.692 A
ATOM     12  H2  UNL     1      13.229  14.241  16.478  1.00  0.00     0.186 HD
HETATM   13  N11 UNL     1      11.437  13.217  14.104  1.00  0.00    -0.130 N
HETATM   14  N10 UNL     1      10.888  14.389  14.409  1.00  0.00    -0.265 N
ATOM     15  H11 UNL     1      11.123  12.582  13.371  1.00  0.00     0.205 HD
ATOM     16  H10 UNL     1      10.078  14.794  13.940  1.00  0.00     0.189 HD
BRANCH  11  17
HETATM   17  N1  UNL     1      13.275  12.003  14.965  1.00  0.00    -0.233 N
ATOM     18  H12 UNL     1      13.165  11.086  14.532  1.00  0.00     0.174 HD
ATOM     19  H11 UNL     1      14.166  11.993  15.461  1.00  0.00     0.174 HD
ENDBRANCH  11  17
ENDBRANCH   8   9
ENDBRANCH   1   8
BRANCH   7  20
HETATM   20  C5  UNL     1      14.085  17.640  15.247  1.00  0.00     0.262 C
HETATM   21  N7  UNL     1      14.011  18.790  14.681  1.00  0.00    -0.249 N
ATOM     22  H7  UNL     1      13.786  19.607  15.249  1.00  0.00     0.192 HD
BRANCH  20  23
HETATM   23  O1  UNL     1      14.390  16.541  14.465  1.00  0.00    -0.330 OA
ATOM     24  H1  UNL     1      14.013  16.475  13.596  1.00  0.00     0.221 HD
ENDBRANCH  20  23
BRANCH  21  25
HETATM   25  N8  UNL     1      14.227  18.958  13.320  1.00  0.00    -0.246 N
ATOM     26  H8  UNL     1      15.166  19.204  13.004  1.00  0.00     0.208 HD
BRANCH  25  27
HETATM   27  N9  UNL     1      13.228  18.807  12.371  1.00  0.00    -0.331 N
ATOM     28  H92 UNL     1      12.422  18.237  12.624  1.00  0.00     0.178 HD
ATOM     29  H91 UNL     1      13.269  19.237  11.447  1.00  0.00     0.178 HD
ENDBRANCH  25  27
ENDBRANCH  21  25
ENDBRANCH   7  20
BRANCH   4  30
HETATM   30  N4  UNL     1      14.540  17.462  20.022  1.00  0.00    -0.233 N
ATOM     31  H42 UNL     1      14.204  17.021  20.878  1.00  0.00     0.174 HD
ATOM     32  H41 UNL     1      15.348  18.032  20.270  1.00  0.00     0.174 HD
ENDBRANCH   4  30
TORSDOF 8
ENDMDL