MODEL 3
REMARK VINA RESULT: -7.634043132      0.776      1.059
REMARK  7 active torsions:
REMARK  status: ('A' for Active; 'I' for Inactive)
REMARK    1  A    between atoms: C2_2  and  C3_6
REMARK    2  A    between atoms: C3_6  and  N2_7
REMARK    3  A    between atoms: C3_6  and  C4_11
REMARK    4  A    between atoms: C4_11  and  O1_12
REMARK    5  A    between atoms: N3_14  and  C5_16
REMARK    6  A    between atoms: N5_18  and  C6_19
REMARK    7  A    between atoms: C8_26  and  O3_27
ROOT
HETATM    1  C4  UNL     1      16.393  17.501  18.070  1.00  0.00     0.149 C
HETATM    2  N3  UNL     1      15.704  18.185  17.224  1.00  0.00    -0.349 N
ATOM      3  H3  UNL     1      16.145  18.987  16.773  1.00  0.00     0.163 HD
ENDROOT
BRANCH   2   4
HETATM    4  C5  UNL     1      14.352  17.875  16.886  1.00  0.00     0.246 C
HETATM    5  N4  UNL     1      14.234  16.791  15.931  1.00  0.00    -0.089 NA
HETATM    6  N5  UNL     1      13.123  16.068  16.348  1.00  0.00    -0.171 N
HETATM    7  N8  UNL     1      13.092  16.156  17.740  1.00  0.00    -0.083 NA
HETATM    8  C8  UNL     1      13.523  17.500  18.068  1.00  0.00     0.273 C
BRANCH   6   9
HETATM    9  C6  UNL     1      12.196  15.372  15.509  1.00  0.00     0.243 A
HETATM   10  O2  UNL     1      12.228  14.673  14.421  1.00  0.00    -0.212 OA
HETATM   11  N6  UNL     1      10.952  14.442  14.390  1.00  0.00    -0.241 N
HETATM   12  C7  UNL     1      10.836  15.165  15.535  1.00  0.00     0.192 A
ATOM     13  H6  UNL     1      10.313  13.939  13.775  1.00  0.00     0.196 HD
HETATM   14  N7  UNL     1       9.771  15.552  16.404  1.00  0.00    -0.076 NA
ENDBRANCH   6   9
BRANCH   8  15
HETATM   15  O3  UNL     1      12.365  18.297  18.088  1.00  0.00    -0.374 OA
ATOM     16  H3  UNL     1      12.557  19.133  17.679  1.00  0.00     0.212 HD
ENDBRANCH   8  15
ENDBRANCH   2   4
BRANCH   1  17
HETATM   17  C3  UNL     1      17.779  17.797  18.434  1.00  0.00     0.301 C
BRANCH  17  18
HETATM   18  C2  UNL     1      18.099  19.224  18.517  1.00  0.00     0.014 C
HETATM   19  C1  UNL     1      18.066  20.021  19.767  1.00  0.00     0.065 C
HETATM   20  N1  UNL     1      18.431  19.832  17.439  1.00  0.00    -0.404 N
ATOM     21  H12 UNL     1      18.654  20.825  17.496  1.00  0.00     0.155 HD
ATOM     22  H11 UNL     1      18.454  19.284  16.579  1.00  0.00     0.155 HD
ENDBRANCH  17  18
BRANCH  17  23
HETATM   23  N2  UNL     1      18.684  17.094  17.580  1.00  0.00    -0.062 N
ATOM     24  H23 UNL     1      18.952  17.662  16.777  1.00  0.00     0.275 HD
ATOM     25  H22 UNL     1      19.600  16.990  18.017  1.00  0.00     0.275 HD
ATOM     26  H21 UNL     1      18.309  16.191  17.287  1.00  0.00     0.275 HD
ENDBRANCH  17  23
ENDBRANCH   1  17
BRANCH   1  27
HETATM   27  O1  UNL     1      15.767  16.416  18.667  1.00  0.00    -0.348 OA
ATOM     28  H1  UNL     1      15.954  15.545  18.335  1.00  0.00     0.219 HD
ENDBRANCH   1  27
TORSDOF 7
ENDMDL