MODEL 3
REMARK VINA RESULT: -6.050728895      3.038      6.981
REMARK  9 active torsions:
REMARK  status: ('A' for Active; 'I' for Inactive)
REMARK       I    between atoms: C1_4  and  N2_5
REMARK       I    between atoms: C1_4  and  N8_27
REMARK    1  A    between atoms: N2_5  and  C2_7
REMARK    2  A    between atoms: C3_8  and  C4_9
REMARK    3  A    between atoms: C4_9  and  N3_10
REMARK    4  A    between atoms: C4_9  and  O1_14
REMARK    5  A    between atoms: C5_17  and  N4_18
REMARK    6  A    between atoms: N5_21  and  C6_22
REMARK    7  A    between atoms: C6_22  and  N6_23
REMARK    8  A    between atoms: N6_23  and  N7_24
REMARK    9  A    between atoms: N8_27  and  N9_29
ROOT
HETATM    1  C2  UNL     1      13.397  16.677  16.856  1.00  0.00     0.162 A
HETATM    2  C3  UNL     1      14.055  17.331  15.866  1.00  0.00     0.157 A
HETATM    3  O2  UNL     1      15.089  17.964  16.470  1.00  0.00    -0.275 OA
HETATM    4  C5  UNL     1      15.075  17.724  17.739  1.00  0.00     0.227 A
HETATM    5  N5  UNL     1      14.049  16.929  18.056  1.00  0.00    -0.280 N
ENDROOT
BRANCH   1   6
HETATM    6  N2  UNL     1      12.297  15.832  16.801  1.00  0.00    -0.173 N
HETATM    7  C1  UNL     1      11.865  14.880  15.876  1.00  0.00     0.696 C
HETATM    8  N1  UNL     1      10.765  15.122  15.197  1.00  0.00    -0.233 N
HETATM    9  N8  UNL     1      12.459  13.617  15.620  1.00  0.00    -0.072 N
ATOM     10  H12 UNL     1      10.339  16.030  15.381  1.00  0.00     0.174 HD
ATOM     11  H11 UNL     1      10.450  14.427  14.520  1.00  0.00     0.174 HD
ATOM     12  H8  UNL     1      13.425  13.467  15.914  1.00  0.00     0.212 HD
ATOM     13  H2  UNL     1      11.675  15.926  17.604  1.00  0.00     0.186 HD
BRANCH   9  14
HETATM   14  N9  UNL     1      11.794  12.573  14.988  1.00  0.00    -0.024 N
HETATM   15  O3  UNL     1      11.998  11.416  15.388  1.00  0.00    -0.516 OA
HETATM   16  O4  UNL     1      10.928  12.766  13.949  1.00  0.00    -0.516 OA
ENDBRANCH   9  14
ENDBRANCH   1   6
BRANCH   2  17
HETATM   17  C4  UNL     1      13.857  17.462  14.402  1.00  0.00     0.378 C
BRANCH  17  18
HETATM   18  N3  UNL     1      13.696  18.766  13.884  1.00  0.00    -0.047 N
ATOM     19  H33 UNL     1      12.756  18.863  13.500  1.00  0.00     0.277 HD
ATOM     20  H32 UNL     1      13.657  19.433  14.654  1.00  0.00     0.277 HD
ATOM     21  H31 UNL     1      14.378  19.083  13.196  1.00  0.00     0.277 HD
ENDBRANCH  17  18
BRANCH  17  22
HETATM   22  O1  UNL     1      12.907  16.577  13.890  1.00  0.00    -0.365 OA
ATOM     23  H1  UNL     1      12.916  15.728  14.314  1.00  0.00     0.212 HD
ENDBRANCH  17  22
ENDBRANCH   2  17
BRANCH   5  24
HETATM   24  C6  UNL     1      13.710  16.448  19.375  1.00  0.00     0.269 C
BRANCH  24  25
HETATM   25  N6  UNL     1      13.339  17.539  20.248  1.00  0.00    -0.128 NA
BRANCH  25  26
HETATM   26  N7  UNL     1      14.199  17.683  21.315  1.00  0.00    -0.347 N
ATOM     27  H72 UNL     1      14.107  17.143  22.175  1.00  0.00     0.172 HD
ATOM     28  H71 UNL     1      14.924  18.379  21.146  1.00  0.00     0.172 HD
ENDBRANCH  25  26
ENDBRANCH  24  25
ENDBRANCH   5  24
BRANCH   4  29
HETATM   29  N4  UNL     1      15.947  18.202  18.564  1.00  0.00    -0.365 N
ATOM     30  H42 UNL     1      15.775  18.450  19.539  1.00  0.00     0.159 HD
ATOM     31  H41 UNL     1      16.919  18.383  18.314  1.00  0.00     0.159 HD
ENDBRANCH   4  29
TORSDOF 9
ENDMDL