MODEL 4
REMARK VINA RESULT: -6.273010992      4.891      6.839
REMARK  6 active torsions:
REMARK  status: ('A' for Active; 'I' for Inactive)
REMARK    1  A    between atoms: O1_2  and  C2_3
REMARK    2  A    between atoms: C4_9  and  N3_10
REMARK    3  A    between atoms: C5_15  and  N5_16
REMARK    4  A    between atoms: N5_16  and  C6_18
REMARK    5  A    between atoms: C7_21  and  N8_22
REMARK    6  A    between atoms: N8_22  and  N9_23
ROOT
HETATM    1  C2  UNL     1      18.552  12.627  14.001  1.00  0.00     0.187 A
HETATM    2  N1  UNL     1      19.575  11.775  13.846  1.00  0.00    -0.277 N
ATOM      3  H1  UNL     1      20.550  11.959  14.081  1.00  0.00     0.189 HD
HETATM    4  N2  UNL     1      19.096  10.654  13.333  1.00  0.00    -0.293 N
ATOM      5  H2  UNL     1      19.662   9.834  13.113  1.00  0.00     0.187 HD
HETATM    6  C3  UNL     1      17.764  10.734  13.139  1.00  0.00     0.124 A
HETATM    7  C4  UNL     1      16.807   9.862  12.642  1.00  0.00     0.145 A
HETATM    8  N4  UNL     1      15.517  10.294  12.590  1.00  0.00    -0.175 N
ATOM      9  H4  UNL     1      14.801   9.665  12.227  1.00  0.00     0.186 HD
HETATM   10  C5  UNL     1      15.155  11.520  13.002  1.00  0.00     0.681 A
HETATM   11  N10 UNL     1      16.119  12.358  13.488  1.00  0.00    -0.185 N
ATOM     12  H10 UNL     1      15.849  13.291  13.801  1.00  0.00     0.184 HD
HETATM   13  C8  UNL     1      17.410  11.996  13.566  1.00  0.00     0.133 A
ENDROOT
BRANCH  10  14
HETATM   14  N5  UNL     1      13.811  11.917  12.922  1.00  0.00    -0.203 N
ATOM     15  H5  UNL     1      13.494  12.309  12.035  1.00  0.00     0.179 HD
BRANCH  14  16
HETATM   16  C6  UNL     1      12.853  11.821  13.971  1.00  0.00     0.247 A
HETATM   17  N6  UNL     1      13.309  11.536  15.294  1.00  0.00    -0.117 NA
HETATM   18  N7  UNL     1      12.901  12.743  15.876  1.00  0.00    -0.119 NA
HETATM   19  C7  UNL     1      12.455  13.157  14.558  1.00  0.00     0.247 A
BRANCH  19  20
HETATM   20  N8  UNL     1      11.013  13.324  14.542  1.00  0.00    -0.122 NA
BRANCH  20  21
HETATM   21  N9  UNL     1      10.737  14.671  14.661  1.00  0.00    -0.347 N
ATOM     22  H92 UNL     1      11.335  15.354  15.125  1.00  0.00     0.172 HD
ATOM     23  H91 UNL     1       9.842  14.852  14.208  1.00  0.00     0.172 HD
ENDBRANCH  20  21
ENDBRANCH  19  20
ENDBRANCH  14  16
ENDBRANCH  10  14
BRANCH   7  24
HETATM   24  N3  UNL     1      17.141   8.683  12.244  1.00  0.00    -0.383 N
ATOM     25  H32 UNL     1      17.878   8.540  11.554  1.00  0.00     0.157 HD
ATOM     26  H31 UNL     1      16.670   7.858  12.617  1.00  0.00     0.157 HD
ENDBRANCH   7  24
BRANCH   1  27
HETATM   27  O1  UNL     1      18.685  13.904  14.515  1.00  0.00    -0.338 OA
HETATM   28  C1  UNL     1      18.375  14.223  15.833  1.00  0.00     0.211 C
ENDBRANCH   1  27
TORSDOF 6
ENDMDL