MODEL 3
REMARK VINA RESULT: -5.790719765      8.986     11.266
REMARK  7 active torsions:
REMARK  status: ('A' for Active; 'I' for Inactive)
REMARK    1  A    between atoms: N1_1  and  C1_4
REMARK    2  A    between atoms: C3_11  and  N4_12
REMARK    3  A    between atoms: N5_14  and  N6_16
REMARK    4  A    between atoms: N6_16  and  N7_18
REMARK    5  A    between atoms: N7_18  and  C4_20
REMARK    6  A    between atoms: C6_25  and  N11_26
REMARK    7  A    between atoms: N11_26  and  N12_28
ROOT
HETATM    1  C1  UNL     1      13.009  17.030  17.637  1.00  0.00     0.135 A
HETATM    2  N2  UNL     1      12.836  17.052  18.970  1.00  0.00    -0.293 N
ATOM      3  H2  UNL     1      11.917  16.844  19.362  1.00  0.00     0.172 HD
HETATM    4  C2  UNL     1      13.859  17.343  19.795  1.00  0.00     0.327 A
HETATM    5  O1  UNL     1      13.636  17.347  21.040  1.00  0.00    -0.247 OA
HETATM    6  N3  UNL     1      15.052  17.612  19.273  1.00  0.00    -0.291 N
ATOM      7  H3  UNL     1      15.826  17.834  19.898  1.00  0.00     0.172 HD
HETATM    8  C3  UNL     1      15.270  17.602  17.946  1.00  0.00     0.157 A
HETATM    9  C6  UNL     1      14.241  17.308  17.085  1.00  0.00     0.137 A
ENDROOT
BRANCH   8  10
HETATM   10  N4  UNL     1      16.553  17.892  17.399  1.00  0.00    -0.268 N
HETATM   11  N5  UNL     1      17.470  18.438  18.049  1.00  0.00    -0.227 N
ATOM     12  H5  UNL     1      17.323  18.702  19.024  1.00  0.00     0.210 HD
ATOM     13  H4  UNL     1      16.733  17.642  16.427  1.00  0.00     0.190 HD
BRANCH  11  14
HETATM   14  N6  UNL     1      18.691  18.683  17.431  1.00  0.00    -0.231 N
ATOM     15  H6  UNL     1      18.894  19.605  17.046  1.00  0.00     0.209 HD
BRANCH  14  16
HETATM   16  N7  UNL     1      19.617  17.685  17.343  1.00  0.00    -0.298 N
ATOM     17  H7  UNL     1      19.787  17.190  16.467  1.00  0.00     0.183 HD
BRANCH  16  18
HETATM   18  C4  UNL     1      20.331  17.369  18.522  1.00  0.00     0.227 C
HETATM   19  C5  UNL     1      20.159  15.928  18.957  1.00  0.00     0.177 C
HETATM   20  N8  UNL     1      20.499  16.008  20.358  1.00  0.00    -0.127 NA
HETATM   21  N9  UNL     1      20.500  17.337  20.725  1.00  0.00    -0.038 NA
HETATM   22  N10 UNL     1      19.862  18.061  19.708  1.00  0.00    -0.102 NA
ENDBRANCH  16  18
ENDBRANCH  14  16
ENDBRANCH  11  14
ENDBRANCH   8  10
BRANCH   9  23
HETATM   23  N11 UNL     1      14.412  17.282  15.667  1.00  0.00    -0.300 N
ATOM     24  H11 UNL     1      14.764  16.435  15.221  1.00  0.00     0.186 HD
BRANCH  23  25
HETATM   25  N12 UNL     1      14.108  18.393  14.881  1.00  0.00    -0.344 N
ATOM     26 2H12 UNL     1      14.313  19.320  15.253  1.00  0.00     0.176 HD
ATOM     27 1H12 UNL     1      13.690  18.289  13.957  1.00  0.00     0.176 HD
ENDBRANCH  23  25
ENDBRANCH   9  23
BRANCH   1  28
HETATM   28  N1  UNL     1      12.048  16.755  16.819  1.00  0.00    -0.383 N
ATOM     29  H12 UNL     1      11.362  16.065  17.126  1.00  0.00     0.157 HD
ATOM     30  H11 UNL     1      11.966  17.197  15.904  1.00  0.00     0.157 HD
ENDBRANCH   1  28
TORSDOF 7
ENDMDL