MODEL 5
REMARK VINA RESULT: -5.369953740      3.268      6.180
REMARK  7 active torsions:
REMARK  status: ('A' for Active; 'I' for Inactive)
REMARK    1  A    between atoms: N1_1  and  C1_4
REMARK    2  A    between atoms: C3_7  and  N3_8
REMARK    3  A    between atoms: N3_8  and  C4_10
REMARK    4  A    between atoms: C4_10  and  C5_11
REMARK    5  A    between atoms: C5_11  and  O1_12
REMARK    6  A    between atoms: C7_18  and  N6_19
REMARK    7  A    between atoms: N6_19  and  C8_21
ROOT
HETATM    1  C1  UNL     1      14.698   9.794  13.089  1.00  0.00     0.084 A
HETATM    2  C2  UNL     1      13.545  10.404  13.473  1.00  0.00     0.118 A
HETATM    3  N2  UNL     1      12.387   9.580  13.670  1.00  0.00    -0.096 NA
HETATM    4  C3  UNL     1      13.413  11.780  13.689  1.00  0.00     0.129 A
HETATM    5  N4  UNL     1      14.501  12.531  13.501  1.00  0.00    -0.328 N
ATOM      6  H4  UNL     1      14.461  13.541  13.644  1.00  0.00     0.168 HD
HETATM    7  C6  UNL     1      15.661  11.939  13.118  1.00  0.00     0.147 A
HETATM    8  N5  UNL     1      16.826  12.756  12.918  1.00  0.00    -0.080 NA
HETATM    9  C7  UNL     1      15.807  10.598  12.903  1.00  0.00     0.105 A
ENDROOT
BRANCH   9  10
HETATM   10  N6  UNL     1      17.018   9.986  12.505  1.00  0.00    -0.323 N
ATOM     11  H6  UNL     1      17.056   9.541  11.588  1.00  0.00     0.169 HD
BRANCH  10  12
HETATM   12  C8  UNL     1      18.180   9.958  13.312  1.00  0.00     0.193 C
HETATM   13  N7  UNL     1      18.476   9.272  14.341  1.00  0.00    -0.346 N
HETATM   14  C9  UNL     1      19.791   9.577  14.845  1.00  0.00     0.259 C
ATOM     15  H7  UNL     1      17.852   8.584  14.762  1.00  0.00     0.163 HD
HETATM   16  N8  UNL     1      20.432  10.213  13.738  1.00  0.00    -0.119 NA
HETATM   17  N9  UNL     1      19.323  10.786  13.062  1.00  0.00    -0.274 N
ATOM     18  H9  UNL     1      19.337  11.636  12.498  1.00  0.00     0.185 HD
ENDBRANCH  10  12
ENDBRANCH   9  10
BRANCH   1  19
HETATM   19  N1  UNL     1      14.761   8.507  12.904  1.00  0.00    -0.396 N
ATOM     20  H12 UNL     1      13.951   7.910  13.070  1.00  0.00     0.156 HD
ATOM     21  H11 UNL     1      15.617   8.053  12.586  1.00  0.00     0.156 HD
ENDBRANCH   1  19
BRANCH   4  22
HETATM   22  N3  UNL     1      12.181  12.353  14.069  1.00  0.00    -0.373 N
ATOM     23  H3  UNL     1      11.356  12.059  13.546  1.00  0.00     0.161 HD
BRANCH  22  24
HETATM   24  C4  UNL     1      11.976  13.300  15.111  1.00  0.00     0.147 C
BRANCH  24  25
HETATM   25  C5  UNL     1      11.570  14.674  14.681  1.00  0.00     0.183 C
BRANCH  25  26
HETATM   26  O1  UNL     1      12.057  14.841  13.370  1.00  0.00    -0.399 OA
ATOM     27  H1  UNL     1      12.828  15.391  13.439  1.00  0.00     0.209 HD
ENDBRANCH  25  26
ENDBRANCH  24  25
ENDBRANCH  22  24
ENDBRANCH   4  22
TORSDOF 7
ENDMDL