MODEL 1
REMARK VINA RESULT: -9.191518651      0.000      0.000
REMARK  4 active torsions:
REMARK  status: ('A' for Active; 'I' for Inactive)
REMARK    1  A    between atoms: C2_2  and  C4_4
REMARK    2  A    between atoms: N2_7  and  C5_8
REMARK    3  A    between atoms: C8_14  and  C9_15
REMARK    4  A    between atoms: N5_17  and  C11_18
ROOT
HETATM    1  C5  UNL     1      31.909   8.262   8.004  1.00  0.00     0.229 C
HETATM    2  C6  UNL     1      32.139   9.284   9.123  1.00  0.00     0.052 C
HETATM    3  C7  UNL     1      32.894   7.209   8.061  1.00  0.00     0.088 C
HETATM    4  N3  UNL     1      33.739   6.426   8.202  1.00  0.00    -0.195 NA
ENDROOT
BRANCH   1   5
HETATM    5  N2  UNL     1      30.589   7.737   8.101  1.00  0.00    -0.216 N
HETATM    6  N1  UNL     1      29.653   7.799   7.066  1.00  0.00    -0.285 N
HETATM    7  C4  UNL     1      28.531   7.294   7.386  1.00  0.00     0.055 A
ATOM      8  H1  UNL     1      29.849   8.207   6.151  1.00  0.00     0.188 HD
HETATM    9  C8  UNL     1      28.658   6.882   8.786  1.00  0.00     0.060 A
HETATM   10  N4  UNL     1      29.897   7.202   9.004  1.00  0.00    -0.285 N
ATOM     11  H4  UNL     1      30.313   7.018   9.917  1.00  0.00     0.188 HD
BRANCH   7  12
HETATM   12  C2  UNL     1      27.260   7.291   6.663  1.00  0.00     0.031 C
HETATM   13  C1  UNL     1      27.376   8.457   5.631  1.00  0.00     0.016 C
HETATM   14  C3  UNL     1      27.163   6.025   5.776  1.00  0.00     0.016 C
ENDBRANCH   7  12
BRANCH   9  15
HETATM   15  C9  UNL     1      27.515   6.434   9.584  1.00  0.00     0.096 C
HETATM   16  C10 UNL     1      27.139   5.056   9.110  1.00  0.00     0.287 C
HETATM   17  N5  UNL     1      26.032   4.487   9.862  1.00  0.00     0.100 N
HETATM   18  C16 UNL     1      26.645   4.116  11.182  1.00  0.00     0.247 C
HETATM   19  C17 UNL     1      26.186   5.105  12.234  1.00  0.00     0.040 C
HETATM   20  C20 UNL     1      28.129   3.959  11.172  1.00  0.00     0.204 C
HETATM   21  C18 UNL     1      26.945   6.394  12.061  1.00  0.00     0.035 C
HETATM   22  C19 UNL     1      28.052   6.265  11.055  1.00  0.00     0.133 C
HETATM   23  O2  UNL     1      28.830   5.148  11.231  1.00  0.00    -0.383 OA
BRANCH  17  24
HETATM   24  C11 UNL     1      25.699   3.221   9.248  1.00  0.00     0.227 C
HETATM   25  C12 UNL     1      26.434   3.038   7.934  1.00  0.00     0.062 C
HETATM   26  C13 UNL     1      25.805   1.904   7.180  1.00  0.00     0.169 C
HETATM   27  O1  UNL     1      24.923   1.155   7.933  1.00  0.00    -0.391 OA
HETATM   28  C14 UNL     1      23.836   1.874   8.399  1.00  0.00     0.169 C
HETATM   29  C15 UNL     1      24.207   3.313   8.751  1.00  0.00     0.062 C
ENDBRANCH  17  24
ENDBRANCH   9  15
ENDBRANCH   1   5
TORSDOF 4
ENDMDL