MODEL 2
REMARK VINA RESULT: -7.280928052      2.900      4.312
REMARK  6 active torsions:
REMARK  status: ('A' for Active; 'I' for Inactive)
REMARK    1  A    between atoms: C2_2  and  N1_3
REMARK    2  A    between atoms: C4_7  and  O1_8
REMARK    3  A    between atoms: C4_7  and  O2_10
REMARK    4  A    between atoms: N3_12  and  C6_13
REMARK       I    between atoms: N4_16  and  C9_17
REMARK    5  A    between atoms: C9_17  and  O4_19
REMARK    6  A    between atoms: O4_19  and  C10_20
ROOT
HETATM    1  N1  UNL     1      22.062   5.956  16.806  1.00  0.00    -0.273 N
HETATM    2  N2  UNL     1      21.372   5.308  15.792  1.00  0.00    -0.277 N
ATOM      3  H2  UNL     1      20.409   4.982  15.877  1.00  0.00     0.189 HD
HETATM    4  C3  UNL     1      22.098   5.161  14.712  1.00  0.00     0.183 A
HETATM    5  C4  UNL     1      21.594   4.513  13.522  1.00  0.00     0.225 C
HETATM    6  N3  UNL     1      23.364   5.745  14.992  1.00  0.00    -0.306 N
HETATM    7  C15 UNL     1      23.359   6.271  16.351  1.00  0.00     0.158 A
HETATM    8  C16 UNL     1      24.227   6.952  17.003  1.00  0.00     0.170 C
HETATM    9  C17 UNL     1      23.974   7.526  18.365  1.00  0.00     0.115 C
HETATM   10  N5  UNL     1      23.832   8.022  19.426  1.00  0.00    -0.190 NA
HETATM   11  C18 UNL     1      25.594   7.326  16.666  1.00  0.00     0.115 C
HETATM   12  N6  UNL     1      26.704   7.652  16.444  1.00  0.00    -0.190 NA
ENDROOT
BRANCH   1  13
HETATM   13  C2  UNL     1      21.417   6.101  18.111  1.00  0.00     0.146 C
HETATM   14  C1  UNL     1      20.069   6.767  17.972  1.00  0.00     0.028 C
ENDBRANCH   1  13
BRANCH   6  15
HETATM   15  C6  UNL     1      24.463   5.819  14.111  1.00  0.00     0.096 C
HETATM   16  C7  UNL     1      24.354   6.739  12.920  1.00  0.00     0.045 C
HETATM   17  C8  UNL     1      25.839   6.995  12.505  1.00  0.00     0.130 C
HETATM   18  N4  UNL     1      26.279   5.738  11.971  1.00  0.00    -0.328 N
HETATM   19  C9  UNL     1      27.456   5.665  11.154  1.00  0.00     0.363 C
HETATM   20  C13 UNL     1      25.555   4.534  12.220  1.00  0.00     0.130 C
HETATM   21  O3  UNL     1      27.857   4.572  10.683  1.00  0.00    -0.238 OA
HETATM   22  C14 UNL     1      24.972   4.481  13.582  1.00  0.00     0.045 C
BRANCH  19  23
HETATM   23  O4  UNL     1      28.207   6.788  10.846  1.00  0.00    -0.299 OA
BRANCH  23  24
HETATM   24  C10 UNL     1      29.340   6.760  10.001  1.00  0.00     0.125 C
HETATM   25  C11 UNL     1      28.978   7.234   8.594  1.00  0.00     0.040 C
HETATM   26  C12 UNL     1      30.476   7.611  10.477  1.00  0.00     0.040 C
ENDBRANCH  23  24
ENDBRANCH  19  23
ENDBRANCH   6  15
BRANCH   5  27
HETATM   27  O1  UNL     1      20.349   4.098  13.638  1.00  0.00    -0.338 OA
ATOM     28  H1  UNL     1      20.115   3.846  14.524  1.00  0.00     0.220 HD
ENDBRANCH   5  27
BRANCH   5  29
HETATM   29  O2  UNL     1      22.122   4.245  12.329  1.00  0.00    -0.333 OA
HETATM   30  C5  UNL     1      21.973   3.065  11.573  1.00  0.00     0.212 C
ENDBRANCH   5  29
TORSDOF 6
ENDMDL