MODEL 5
REMARK VINA RESULT: -8.840316769      4.523      8.319
REMARK  4 active torsions:
REMARK  status: ('A' for Active; 'I' for Inactive)
REMARK    1  A    between atoms: C2_2  and  O1_4
REMARK    2  A    between atoms: O1_4  and  C4_5
REMARK    3  A    between atoms: C5_8  and  N2_9
REMARK    4  A    between atoms: C14_21  and  N4_22
ROOT
HETATM    1  C4  UNL     1      25.512   9.353  16.638  1.00  0.00     0.252 A
HETATM    2  N1  UNL     1      25.447   8.674  15.493  1.00  0.00    -0.154 N
ATOM      3  H1  UNL     1      25.767   9.135  14.642  1.00  0.00     0.188 HD
HETATM    4  C5  UNL     1      24.982   7.416  15.396  1.00  0.00     0.698 A
HETATM    5  N3  UNL     1      24.568   6.844  16.551  1.00  0.00    -0.022 N
ATOM      6  H3  UNL     1      24.209   5.889  16.523  1.00  0.00     0.203 HD
HETATM    7  C14 UNL     1      24.611   7.476  17.723  1.00  0.00     0.698 A
HETATM    8  N5  UNL     1      25.083   8.723  17.753  1.00  0.00    -0.154 N
ATOM      9  H5  UNL     1      25.121   9.215  18.646  1.00  0.00     0.188 HD
ENDROOT
BRANCH   4  10
HETATM   10  N2  UNL     1      24.927   6.720  14.156  1.00  0.00    -0.217 N
HETATM   11  C6  UNL     1      24.157   5.502  14.077  1.00  0.00     0.144 C
HETATM   12  C7  UNL     1      25.074   4.456  13.450  1.00  0.00     0.058 C
HETATM   13  C8  UNL     1      25.413   4.955  12.066  1.00  0.00     0.067 C
HETATM   14  C9  UNL     1      26.230   6.213  12.135  1.00  0.00     0.058 C
HETATM   15  C11 UNL     1      26.192   3.880  11.323  1.00  0.00     0.069 C
HETATM   16  O2  UNL     1      24.393   4.941  11.145  1.00  0.00    -0.375 OA
HETATM   17  C10 UNL     1      25.641   7.263  13.033  1.00  0.00     0.144 C
HETATM   18  C12 UNL     1      24.902   3.791  10.544  1.00  0.00     0.121 C
HETATM   19  C13 UNL     1      25.133   3.930   9.042  1.00  0.00     0.040 C
ENDBRANCH   4  10
BRANCH   1  20
HETATM   20  O1  UNL     1      25.980  10.639  16.772  1.00  0.00    -0.317 OA
BRANCH  20  21
HETATM   21  C2  UNL     1      27.001  11.023  17.661  1.00  0.00     0.123 C
HETATM   22  C1  UNL     1      27.466  12.422  17.294  1.00  0.00     0.040 C
HETATM   23  C3  UNL     1      28.141  10.034  17.498  1.00  0.00     0.040 C
ENDBRANCH  20  21
ENDBRANCH   1  20
BRANCH   7  24
HETATM   24  N4  UNL     1      24.175   6.859  18.918  1.00  0.00    -0.209 N
HETATM   25  C15 UNL     1      24.688   7.212  20.224  1.00  0.00     0.168 C
HETATM   26  C16 UNL     1      23.580   7.174  21.230  1.00  0.00     0.188 C
HETATM   27  O3  UNL     1      22.872   6.013  21.275  1.00  0.00    -0.388 OA
HETATM   28  C17 UNL     1      23.017   5.160  20.229  1.00  0.00     0.193 C
HETATM   29  C18 UNL     1      23.165   5.814  18.885  1.00  0.00     0.122 C
HETATM   30  C19 UNL     1      21.873   6.307  18.310  1.00  0.00     0.035 C
ENDBRANCH   7  24
TORSDOF 4
ENDMDL