MODEL 1
REMARK VINA RESULT: -7.793203927      0.000      0.000
REMARK  7 active torsions:
REMARK  status: ('A' for Active; 'I' for Inactive)
REMARK    1  A    between atoms: C6_6  and  O1_8
REMARK    2  A    between atoms: O1_8  and  C8_9
REMARK    3  A    between atoms: C10_12  and  O3_13
REMARK    4  A    between atoms: O3_13  and  C11_14
REMARK    5  A    between atoms: C14_18  and  C15_19
REMARK    6  A    between atoms: C15_19  and  C17_21
REMARK    7  A    between atoms: C17_21  and  O6_23
ROOT
HETATM    1  C1  UNL     1      26.879   5.238   6.149  1.00  0.00     0.025 C
HETATM    2  C2  UNL     1      27.121   6.114   7.103  1.00  0.00     0.008 C
HETATM    3  C3  UNL     1      27.943   7.288   6.807  1.00  0.00     0.044 C
HETATM    4  C4  UNL     1      29.429   7.041   6.969  1.00  0.00     0.008 C
HETATM    5  C5  UNL     1      30.034   8.104   7.804  1.00  0.00     0.041 C
HETATM    6  C6  UNL     1      30.925   7.745   8.912  1.00  0.00     0.093 C
HETATM    7  C7  UNL     1      32.371   7.705   8.455  1.00  0.00     0.049 C
HETATM    8  C10 UNL     1      30.660   6.444   9.628  1.00  0.00     0.169 C
HETATM    9  C13 UNL     1      29.409   6.497  10.478  1.00  0.00     0.069 C
HETATM   10  C14 UNL     1      28.369   5.475  10.076  1.00  0.00     0.148 C
HETATM   11  O7  UNL     1      27.172   6.067   9.623  1.00  0.00    -0.311 OA
HETATM   12  C19 UNL     1      26.520   5.822   8.422  1.00  0.00     0.288 C
HETATM   13  O8  UNL     1      25.334   5.316   8.440  1.00  0.00    -0.260 OA
ENDROOT
BRANCH  10  14
HETATM   14  C15 UNL     1      27.977   4.580  11.237  1.00  0.00     0.111 C
HETATM   15  C16 UNL     1      26.653   4.980  11.855  1.00  0.00     0.023 C
BRANCH  14  16
HETATM   16  C17 UNL     1      27.947   3.160  10.863  1.00  0.00     0.264 C
HETATM   17  O5  UNL     1      26.891   2.620  10.479  1.00  0.00    -0.265 OA
BRANCH  16  18
HETATM   18  O6  UNL     1      29.097   2.405  10.934  1.00  0.00    -0.326 OA
HETATM   19  C18 UNL     1      29.514   1.703  12.092  1.00  0.00     0.213 C
ENDBRANCH  16  18
ENDBRANCH  14  16
ENDBRANCH  10  14
BRANCH   8  20
HETATM   20  O3  UNL     1      31.809   6.131  10.439  1.00  0.00    -0.313 OA
BRANCH  20  21
HETATM   21  C11 UNL     1      31.756   5.756  11.747  1.00  0.00     0.255 C
HETATM   22  C12 UNL     1      31.784   6.831  12.786  1.00  0.00     0.126 C
HETATM   23  O4  UNL     1      31.686   4.544  12.029  1.00  0.00    -0.266 OA
ENDBRANCH  20  21
ENDBRANCH   8  20
BRANCH   6  24
HETATM   24  O1  UNL     1      30.825   8.739   9.912  1.00  0.00    -0.308 OA
BRANCH  24  25
HETATM   25  C8  UNL     1      31.802   9.634  10.257  1.00  0.00     0.255 C
HETATM   26  C9  UNL     1      31.714  11.019   9.735  1.00  0.00     0.126 C
HETATM   27  O2  UNL     1      32.728   9.252  10.994  1.00  0.00    -0.266 OA
ENDBRANCH  24  25
ENDBRANCH   6  24
TORSDOF 7
ENDMDL