MODEL 5
REMARK VINA RESULT: -7.471497787      2.326      5.133
REMARK  7 active torsions:
REMARK  status: ('A' for Active; 'I' for Inactive)
REMARK    1  A    between atoms: C9_11  and  C10_12
REMARK    2  A    between atoms: C10_12  and  O3_13
REMARK    3  A    between atoms: O3_13  and  C11_14
REMARK    4  A    between atoms: C13_17  and  O5_18
REMARK    5  A    between atoms: O5_18  and  C14_19
REMARK    6  A    between atoms: C16_22  and  O7_23
REMARK    7  A    between atoms: O7_23  and  C17_24
ROOT
HETATM    1  C1  UNL     1      21.516   3.436  10.881  1.00  0.00     0.025 C
HETATM    2  C2  UNL     1      22.431   3.524  11.828  1.00  0.00     0.017 C
HETATM    3  C3  UNL     1      22.490   2.852  13.123  1.00  0.00     0.289 C
HETATM    4  O1  UNL     1      21.706   1.941  13.497  1.00  0.00    -0.260 OA
HETATM    5  O2  UNL     1      23.561   3.406  13.852  1.00  0.00    -0.306 OA
HETATM    6  C4  UNL     1      23.793   4.689  13.246  1.00  0.00     0.078 C
HETATM    7  C5  UNL     1      22.526   5.497  13.583  1.00  0.00     0.047 C
HETATM    8  C6  UNL     1      24.984   5.377  13.725  1.00  0.00     0.044 C
HETATM    9  C7  UNL     1      25.798   6.142  12.761  1.00  0.00    -0.007 C
HETATM   10  C8  UNL     1      25.161   7.493  12.521  1.00  0.00     0.010 C
HETATM   11  C9  UNL     1      26.092   5.515  11.460  1.00  0.00     0.046 C
HETATM   12  C13 UNL     1      26.142   4.042  11.400  1.00  0.00     0.168 C
HETATM   13  C16 UNL     1      24.734   3.512  11.222  1.00  0.00     0.173 C
HETATM   14  C19 UNL     1      23.678   4.368  11.804  1.00  0.00     0.091 C
ENDROOT
BRANCH  11  15
HETATM   15  C10 UNL     1      27.371   6.166  10.910  1.00  0.00     0.186 C
BRANCH  15  16
HETATM   16  O3  UNL     1      27.763   5.541   9.701  1.00  0.00    -0.321 OA
BRANCH  16  17
HETATM   17  C11 UNL     1      27.434   6.133   8.515  1.00  0.00     0.254 C
HETATM   18  C12 UNL     1      26.207   5.768   7.740  1.00  0.00     0.126 C
HETATM   19  O4  UNL     1      28.187   7.031   8.037  1.00  0.00    -0.266 OA
ENDBRANCH  16  17
ENDBRANCH  15  16
ENDBRANCH  11  15
BRANCH  12  20
HETATM   20  O5  UNL     1      26.677   3.400  12.522  1.00  0.00    -0.313 OA
BRANCH  20  21
HETATM   21  C14 UNL     1      27.763   2.570  12.469  1.00  0.00     0.255 C
HETATM   22  C15 UNL     1      28.515   2.365  11.189  1.00  0.00     0.126 C
HETATM   23  O6  UNL     1      28.089   1.999  13.540  1.00  0.00    -0.266 OA
ENDBRANCH  20  21
ENDBRANCH  12  20
BRANCH  13  24
HETATM   24  O7  UNL     1      24.482   3.407   9.817  1.00  0.00    -0.313 OA
BRANCH  24  25
HETATM   25  C17 UNL     1      24.566   2.234   9.117  1.00  0.00     0.255 C
HETATM   26  C18 UNL     1      25.201   2.119   7.773  1.00  0.00     0.126 C
HETATM   27  O8  UNL     1      24.091   1.175   9.610  1.00  0.00    -0.266 OA
ENDBRANCH  24  25
ENDBRANCH  13  24
TORSDOF 7
ENDMDL