MODEL 2
REMARK VINA RESULT: -7.347791126      1.840      4.110
REMARK  6 active torsions:
REMARK  status: ('A' for Active; 'I' for Inactive)
REMARK    1  A    between atoms: C2_2  and  C3_3
REMARK    2  A    between atoms: C3_3  and  O1_4
REMARK    3  A    between atoms: O1_4  and  C4_5
REMARK    4  A    between atoms: C12_17  and  C13_18
REMARK    5  A    between atoms: C13_18  and  C14_19
REMARK    6  A    between atoms: C18_24  and  O7_25
ROOT
HETATM    1  C4  UNL     1      27.899   6.405  10.774  1.00  0.00     0.261 C
HETATM    2  C5  UNL     1      27.770   6.202   9.308  1.00  0.00     0.292 C
HETATM    3  O2  UNL     1      28.329   6.485   8.224  1.00  0.00    -0.262 OA
HETATM    4  O3  UNL     1      26.627   5.464   9.568  1.00  0.00    -0.299 OA
HETATM    5  C6  UNL     1      27.285   5.059  10.781  1.00  0.00     0.168 C
HETATM    6  C7  UNL     1      28.167   3.886  10.494  1.00  0.00     0.218 C
HETATM    7  O4  UNL     1      29.255   3.906  11.330  1.00  0.00    -0.376 OA
HETATM    8  C8  UNL     1      29.886   2.698  11.497  1.00  0.00     0.195 C
HETATM    9  C9  UNL     1      28.927   1.575  11.807  1.00  0.00     0.197 C
HETATM   10  O5  UNL     1      27.848   1.537  10.967  1.00  0.00    -0.356 OA
HETATM   11  C10 UNL     1      27.242   2.752  10.884  1.00  0.00     0.169 C
HETATM   12  C11 UNL     1      26.757   3.271  12.253  1.00  0.00     0.106 C
HETATM   13  C12 UNL     1      26.336   4.671  11.870  1.00  0.00     0.114 C
HETATM   14  O6  UNL     1      25.052   4.494  11.246  1.00  0.00    -0.302 OA
HETATM   15  C18 UNL     1      25.058   3.537  10.220  1.00  0.00     0.263 C
HETATM   16  N1  UNL     1      26.055   2.732  10.043  1.00  0.00    -0.316 N
ATOM     17  H1  UNL     1      26.007   2.054   9.282  1.00  0.00     0.166 HD
ENDROOT
BRANCH   1  18
HETATM   18  O1  UNL     1      29.230   6.492  11.160  1.00  0.00    -0.372 OA
BRANCH  18  19
HETATM   19  C3  UNL     1      29.852   7.531  10.490  1.00  0.00     0.168 C
BRANCH  19  20
HETATM   20  C2  UNL     1      31.343   7.506  10.506  1.00  0.00     0.022 C
HETATM   21  C1  UNL     1      31.805   6.250  11.196  1.00  0.00     0.007 C
ENDBRANCH  19  20
ENDBRANCH  18  19
ENDBRANCH   1  18
BRANCH  13  22
HETATM   22  C13 UNL     1      26.300   5.573  13.025  1.00  0.00     0.050 C
BRANCH  22  23
HETATM   23  C14 UNL     1      25.013   6.260  13.351  1.00  0.00    -0.049 C
HETATM   24  C15 UNL     1      24.640   7.305  12.320  1.00  0.00     0.014 C
HETATM   25  C16 UNL     1      23.891   5.394  13.792  1.00  0.00     0.014 C
HETATM   26  C17 UNL     1      25.359   7.111  14.608  1.00  0.00     0.014 C
ENDBRANCH  22  23
ENDBRANCH  13  22
BRANCH  15  27
HETATM   27  O7  UNL     1      23.963   3.464   9.385  1.00  0.00    -0.322 OA
HETATM   28  C19 UNL     1      23.936   2.633   8.252  1.00  0.00     0.213 C
ENDBRANCH  15  27
TORSDOF 6
ENDMDL