MODEL 3
REMARK VINA RESULT: -9.399283420      5.177      6.521
REMARK  4 active torsions:
REMARK  status: ('A' for Active; 'I' for Inactive)
REMARK    1  A    between atoms: C1_2  and  C2_3
REMARK       I    between atoms: C1_2  and  N5_16
REMARK    2  A    between atoms: C2_3  and  S1_4
REMARK    3  A    between atoms: S1_4  and  C3_5
REMARK    4  A    between atoms: N4_10  and  C4_11
ROOT
HETATM    1  O1  UNL     1      23.327   3.172  11.555  1.00  0.00    -0.273 OA
HETATM    2  C1  UNL     1      24.059   3.927  12.235  1.00  0.00     0.229 C
HETATM    3  N5  UNL     1      25.205   4.541  11.694  1.00  0.00    -0.351 N
HETATM    4  C9  UNL     1      25.552   4.295  10.313  1.00  0.00     0.131 C
HETATM    5  C10 UNL     1      27.038   4.082  10.276  1.00  0.00     0.088 C
HETATM    6  C11 UNL     1      27.739   5.389  10.636  1.00  0.00     0.166 C
HETATM    7  C12 UNL     1      27.056   6.155  11.716  1.00  0.00     0.088 C
HETATM    8  C13 UNL     1      26.016   5.390  12.490  1.00  0.00     0.131 C
HETATM    9  O2  UNL     1      29.040   5.008  10.984  1.00  0.00    -0.355 OA
HETATM   10  C14 UNL     1      29.881   6.049  11.280  1.00  0.00     0.173 C
HETATM   11  C15 UNL     1      29.685   7.216  10.339  1.00  0.00     0.053 C
HETATM   12  C16 UNL     1      28.863   6.784   9.148  1.00  0.00     0.173 C
HETATM   13  O3  UNL     1      27.700   6.158   9.474  1.00  0.00    -0.355 OA
ENDROOT
BRANCH   2  14
HETATM   14  C2  UNL     1      23.710   4.185  13.653  1.00  0.00     0.185 C
BRANCH  14  15
HETATM   15  S1  UNL     1      22.544   5.529  13.849  1.00  0.00    -0.082 SA
BRANCH  15  16
HETATM   16  C3  UNL     1      22.058   5.733  15.556  1.00  0.00     0.173 A
HETATM   17  N1  UNL     1      20.937   5.290  16.149  1.00  0.00    -0.265 N
HETATM   18  N2  UNL     1      20.932   5.638  17.437  1.00  0.00    -0.007 NA
ATOM     19  H1  UNL     1      20.197   4.765  15.682  1.00  0.00     0.186 HD
HETATM   20  N3  UNL     1      22.068   6.306  17.638  1.00  0.00    -0.004 NA
HETATM   21  N4  UNL     1      22.758   6.371  16.511  1.00  0.00    -0.251 N
BRANCH  21  22
HETATM   22  C4  UNL     1      24.046   6.995  16.258  1.00  0.00     0.108 C
HETATM   23  C5  UNL     1      24.574   7.665  17.527  1.00  0.00     0.027 C
HETATM   24  C6  UNL     1      25.688   8.527  16.959  1.00  0.00     0.002 C
HETATM   25  C7  UNL     1      25.154   9.017  15.644  1.00  0.00     0.002 C
HETATM   26  C8  UNL     1      23.955   8.143  15.301  1.00  0.00     0.027 C
ENDBRANCH  21  22
ENDBRANCH  15  16
ENDBRANCH  14  15
ENDBRANCH   2  14
TORSDOF 4
ENDMDL