MODEL 5
REMARK VINA RESULT: -7.616905907      4.141      6.655
REMARK  6 active torsions:
REMARK  status: ('A' for Active; 'I' for Inactive)
REMARK    1  A    between atoms: C2_2  and  O2_4
REMARK    2  A    between atoms: O2_4  and  C3_5
REMARK    3  A    between atoms: C10_16  and  C11_17
REMARK    4  A    between atoms: C11_17  and  C12_18
REMARK    5  A    between atoms: C13_19  and  C14_20
REMARK    6  A    between atoms: C14_20  and  N2_21
ROOT
HETATM    1  C3  UNL     1      24.352   3.028   9.924  1.00  0.00     0.327 C
HETATM    2  O3  UNL     1      24.086   1.929   9.101  1.00  0.00    -0.211 OA
HETATM    3  N1  UNL     1      23.636   2.456   7.906  1.00  0.00    -0.269 N
ATOM      4  H1  UNL     1      23.019   1.974   7.252  1.00  0.00     0.194 HD
HETATM    5  C4  UNL     1      24.106   3.644   7.735  1.00  0.00     0.024 C
HETATM    6  C5  UNL     1      23.805   4.476   6.546  1.00  0.00     0.066 C
HETATM    7  C6  UNL     1      24.959   3.997   8.902  1.00  0.00     0.190 C
HETATM    8  C7  UNL     1      26.419   3.812   8.680  1.00  0.00     0.179 C
HETATM    9  C8  UNL     1      26.564   2.913   7.430  1.00  0.00     0.080 C
HETATM   10  O4  UNL     1      27.226   4.822   8.533  1.00  0.00    -0.354 OA
HETATM   11  C9  UNL     1      27.886   5.564   9.387  1.00  0.00     0.177 C
HETATM   12  C10 UNL     1      28.767   5.103  10.438  1.00  0.00     0.021 C
HETATM   13  C17 UNL     1      28.617   3.859  11.170  1.00  0.00     0.012 C
HETATM   14  C18 UNL     1      27.324   3.564  11.885  1.00  0.00     0.061 C
HETATM   15  C19 UNL     1      26.272   3.527  10.871  1.00  0.00     0.269 C
HETATM   16  O5  UNL     1      26.855   3.001   9.717  1.00  0.00    -0.325 OA
HETATM   17  O6  UNL     1      25.144   2.761  11.026  1.00  0.00    -0.299 OA
ENDROOT
BRANCH  12  18
HETATM   18  C11 UNL     1      28.912   6.230  11.484  1.00  0.00     0.100 C
BRANCH  18  19
HETATM   19  C12 UNL     1      30.105   7.015  11.249  1.00  0.00    -0.104 C
HETATM   20  C13 UNL     1      31.087   7.678  11.038  1.00  0.00    -0.076 C
BRANCH  20  21
HETATM   21  C14 UNL     1      32.280   8.507  10.765  1.00  0.00     0.364 C
BRANCH  21  22
HETATM   22  N2  UNL     1      31.959   9.320   9.615  1.00  0.00     0.090 N
HETATM   23  C15 UNL     1      31.833  10.706  10.016  1.00  0.00     0.310 C
HETATM   24  C16 UNL     1      33.001   9.245   8.614  1.00  0.00     0.310 C
ENDBRANCH  21  22
ENDBRANCH  20  21
ENDBRANCH  18  19
ENDBRANCH  12  18
BRANCH   1  25
HETATM   25  O2  UNL     1      23.097   3.579  10.297  1.00  0.00    -0.256 OA
BRANCH  25  26
HETATM   26  C2  UNL     1      22.411   3.044  11.364  1.00  0.00     0.259 C
HETATM   27  C1  UNL     1      22.229   3.746  12.658  1.00  0.00     0.126 C
HETATM   28  O1  UNL     1      21.904   1.898  11.249  1.00  0.00    -0.266 OA
ENDBRANCH  25  26
ENDBRANCH   1  25
TORSDOF 6
ENDMDL