MODEL 4
REMARK VINA RESULT: -6.909523857      1.992      3.077
REMARK  5 active torsions:
REMARK  status: ('A' for Active; 'I' for Inactive)
REMARK    1  A    between atoms: O1_2  and  C2_3
REMARK    2  A    between atoms: C2_3  and  C3_4
REMARK    3  A    between atoms: C3_4  and  C6_7
REMARK    4  A    between atoms: C6_7  and  O2_8
REMARK    5  A    between atoms: O2_8  and  C7_9
ROOT
HETATM    1  C2  UNL     1      27.239   4.504  10.874  1.00  0.00     0.204 C
HETATM    2  O4  UNL     1      26.426   4.790   9.804  1.00  0.00    -0.319 OA
HETATM    3  C9  UNL     1      26.363   5.945   9.181  1.00  0.00     0.298 C
HETATM    4  O5  UNL     1      26.388   5.662   7.782  1.00  0.00    -0.323 OA
HETATM    5  C10 UNL     1      27.495   6.276   7.262  1.00  0.00     0.160 C
HETATM    6  C11 UNL     1      28.163   5.470   6.184  1.00  0.00     0.078 C
HETATM    7  C12 UNL     1      27.056   7.594   6.631  1.00  0.00     0.078 C
HETATM    8  O6  UNL     1      28.348   6.574   8.323  1.00  0.00    -0.343 OA
HETATM    9  C13 UNL     1      27.432   6.954   9.300  1.00  0.00     0.212 C
HETATM   10  C14 UNL     1      28.031   6.912  10.683  1.00  0.00     0.193 C
HETATM   11  O7  UNL     1      29.334   7.452  10.540  1.00  0.00    -0.345 OA
HETATM   12  C15 UNL     1      30.219   6.412  10.657  1.00  0.00     0.158 C
HETATM   13  C16 UNL     1      30.766   6.399  12.068  1.00  0.00     0.078 C
HETATM   14  C17 UNL     1      31.352   6.623   9.700  1.00  0.00     0.078 C
HETATM   15  O8  UNL     1      29.479   5.267  10.380  1.00  0.00    -0.343 OA
HETATM   16  C18 UNL     1      28.315   5.531  11.142  1.00  0.00     0.220 C
ENDROOT
BRANCH   1  17
HETATM   17  O1  UNL     1      27.774   3.293  10.542  1.00  0.00    -0.357 OA
HETATM   18  C1  UNL     1      27.341   2.421   9.675  1.00  0.00     0.205 C
ENDBRANCH   1  17
BRANCH   1  19
HETATM   19  C3  UNL     1      26.334   4.342  12.066  1.00  0.00     0.034 C
HETATM   20  C4  UNL     1      26.771   3.356  13.101  1.00  0.00     0.023 C
HETATM   21  C5  UNL     1      26.074   5.661  12.778  1.00  0.00     0.023 C
BRANCH  19  22
HETATM   22  C6  UNL     1      24.932   3.877  11.621  1.00  0.00     0.193 C
BRANCH  22  23
HETATM   23  O2  UNL     1      23.955   4.495  12.438  1.00  0.00    -0.321 OA
BRANCH  23  24
HETATM   24  C7  UNL     1      22.877   3.862  12.979  1.00  0.00     0.254 C
HETATM   25  C8  UNL     1      22.406   4.275  14.320  1.00  0.00     0.126 C
HETATM   26  O3  UNL     1      22.334   2.953  12.303  1.00  0.00    -0.266 OA
ENDBRANCH  23  24
ENDBRANCH  22  23
ENDBRANCH  19  22
ENDBRANCH   1  19
TORSDOF 5
ENDMDL