MODEL 3
REMARK VINA RESULT: -7.852501566      0.974      1.583
REMARK  6 active torsions:
REMARK  status: ('A' for Active; 'I' for Inactive)
REMARK    1  A    between atoms: C2_2  and  C3_3
REMARK    2  A    between atoms: C3_3  and  C5_5
REMARK    3  A    between atoms: C5_5  and  O2_7
REMARK    4  A    between atoms: O2_7  and  C6_8
REMARK    5  A    between atoms: C15_21  and  O6_22
REMARK    6  A    between atoms: O6_22  and  C16_23
ROOT
HETATM    1  C6  UNL     1      24.983   5.080  11.333  1.00  0.00     0.193 C
HETATM    2  C7  UNL     1      24.463   5.702  12.544  1.00  0.00     0.214 C
HETATM    3  O3  UNL     1      24.944   6.874  12.996  1.00  0.00    -0.343 OA
HETATM    4  C8  UNL     1      24.348   6.996  14.263  1.00  0.00     0.161 C
HETATM    5  C9  UNL     1      23.082   7.816  14.198  1.00  0.00     0.078 C
HETATM    6  C10 UNL     1      25.375   7.626  15.171  1.00  0.00     0.078 C
HETATM    7  O4  UNL     1      24.059   5.715  14.723  1.00  0.00    -0.321 OA
HETATM    8  C11 UNL     1      24.520   4.823  13.788  1.00  0.00     0.323 C
HETATM    9  O5  UNL     1      23.722   3.737  13.533  1.00  0.00    -0.247 OA
HETATM   10  N1  UNL     1      23.346   3.648  12.287  1.00  0.00    -0.281 N
HETATM   11  C12 UNL     1      22.000   3.591  11.968  1.00  0.00     0.150 C
HETATM   12  C13 UNL     1      21.791   2.514  10.893  1.00  0.00     0.024 C
HETATM   13  C14 UNL     1      22.513   3.058   9.681  1.00  0.00     0.036 C
HETATM   14  C15 UNL     1      23.982   3.260   9.937  1.00  0.00     0.159 C
HETATM   15  C18 UNL     1      24.348   3.692  11.289  1.00  0.00     0.170 C
ENDROOT
BRANCH   1  16
HETATM   16  O2  UNL     1      26.319   4.955  11.092  1.00  0.00    -0.311 OA
BRANCH  16  17
HETATM   17  C5  UNL     1      27.200   5.773  10.466  1.00  0.00     0.263 C
HETATM   18  O1  UNL     1      27.759   6.561  11.255  1.00  0.00    -0.265 OA
BRANCH  17  19
HETATM   19  C3  UNL     1      27.517   5.794   9.028  1.00  0.00     0.081 C
HETATM   20  C4  UNL     1      28.486   6.855   8.628  1.00  0.00     0.020 C
BRANCH  19  21
HETATM   21  C2  UNL     1      26.216   5.899   8.222  1.00  0.00     0.010 C
HETATM   22  C1  UNL     1      26.505   6.836   7.066  1.00  0.00     0.006 C
ENDBRANCH  19  21
ENDBRANCH  17  19
ENDBRANCH  16  17
ENDBRANCH   1  16
BRANCH  14  23
HETATM   23  O6  UNL     1      24.613   2.033   9.559  1.00  0.00    -0.314 OA
BRANCH  23  24
HETATM   24  C16 UNL     1      24.758   1.639   8.259  1.00  0.00     0.255 C
HETATM   25  C17 UNL     1      25.657   2.395   7.314  1.00  0.00     0.126 C
HETATM   26  O7  UNL     1      24.126   0.624   7.853  1.00  0.00    -0.266 OA
ENDBRANCH  23  24
ENDBRANCH  14  23
TORSDOF 6
ENDMDL