MODEL 4
REMARK VINA RESULT: -9.705084251      1.389      1.457
REMARK  9 active torsions:
REMARK  status: ('A' for Active; 'I' for Inactive)
REMARK    1  A    between atoms: N1_1  and  C1_4
REMARK    2  A    between atoms: C2_7  and  O1_8
REMARK    3  A    between atoms: O1_8  and  C3_9
REMARK    4  A    between atoms: C6_12  and  C7_13
REMARK    5  A    between atoms: C8_14  and  C9_15
REMARK    6  A    between atoms: C13_19  and  O2_20
REMARK    7  A    between atoms: N4_28  and  S1_29
REMARK    8  A    between atoms: S1_29  and  C17_32
REMARK    9  A    between atoms: C21_36  and  N5_37
ROOT
HETATM    1  C1  UNL     1      10.696 -40.697  -2.091  1.00  0.00     0.710 A
HETATM    2  N2  UNL     1      11.005 -39.840  -3.104  1.00  0.00    -0.151 N
ATOM      3  H2  UNL     1      11.863 -39.876  -3.656  1.00  0.00     0.188 HD
HETATM    4  C2  UNL     1      10.023 -38.945  -3.273  1.00  0.00     0.260 A
HETATM    5  N3  UNL     1       9.099 -39.256  -2.349  1.00  0.00    -0.233 N
ATOM      6  H3  UNL     1       8.219 -38.758  -2.214  1.00  0.00     0.192 HD
HETATM    7  N4  UNL     1       9.496 -40.306  -1.636  1.00  0.00     0.001 N
ENDROOT
BRANCH   4   8
HETATM    8  O1  UNL     1       9.977 -37.922  -4.200  1.00  0.00    -0.275 OA
BRANCH   8   9
HETATM    9  C3  UNL     1       8.851 -37.441  -4.809  1.00  0.00     0.117 A
HETATM   10  C4  UNL     1       7.645 -38.064  -4.598  1.00  0.00     0.041 A
HETATM   11  C5  UNL     1       6.487 -37.629  -5.181  1.00  0.00     0.014 A
HETATM   12  C6  UNL     1       6.506 -36.516  -6.020  1.00  0.00    -0.033 A
HETATM   13  C15 UNL     1       7.702 -35.889  -6.236  1.00  0.00     0.056 A
HETATM   14  C16 UNL     1       8.879 -36.349  -5.632  1.00  0.00     0.151 A
HETATM   15  F1  UNL     1      10.008 -35.660  -5.921  1.00  0.00    -0.203 F
BRANCH  12  16
HETATM   16  C7  UNL     1       5.278 -36.043  -6.646  1.00  0.00     0.012 C
HETATM   17  C8  UNL     1       5.231 -35.300  -7.709  1.00  0.00     0.012 C
BRANCH  17  18
HETATM   18  C9  UNL     1       3.996 -34.855  -8.296  1.00  0.00    -0.034 A
HETATM   19  C10 UNL     1       3.631 -35.202  -9.563  1.00  0.00     0.011 A
HETATM   20  C11 UNL     1       2.409 -34.737 -10.086  1.00  0.00     0.004 A
HETATM   21  C12 UNL     1       1.574 -33.938  -9.347  1.00  0.00     0.036 A
HETATM   22  C13 UNL     1       1.928 -33.580  -8.071  1.00  0.00     0.066 A
HETATM   23  C14 UNL     1       3.119 -34.042  -7.579  1.00  0.00     0.048 A
BRANCH  22  24
HETATM   24  O2  UNL     1       1.078 -32.767  -7.319  1.00  0.00    -0.361 OA
ATOM     25  H2  UNL     1       1.446 -32.137  -6.710  1.00  0.00     0.217 HD
ENDBRANCH  22  24
ENDBRANCH  17  18
ENDBRANCH  12  16
ENDBRANCH   8   9
ENDBRANCH   4   8
BRANCH   1  26
HETATM   26  N1  UNL     1      11.432 -41.685  -1.667  1.00  0.00    -0.232 N
ATOM     27  H12 UNL     1      11.825 -42.454  -2.210  1.00  0.00     0.174 HD
ATOM     28  H11 UNL     1      11.732 -41.843  -0.705  1.00  0.00     0.174 HD
ENDBRANCH   1  26
BRANCH   7  29
HETATM   29  S1  UNL     1       8.591 -41.021  -0.350  1.00  0.00     0.297 S
HETATM   30  O3  UNL     1       9.140 -42.376  -0.052  1.00  0.00    -0.198 OA
HETATM   31  O4  UNL     1       8.629 -40.183   0.872  1.00  0.00    -0.198 OA
BRANCH  29  32
HETATM   32  C17 UNL     1       6.898 -41.218  -0.799  1.00  0.00     0.084 A
HETATM   33  C18 UNL     1       5.962 -41.401   0.215  1.00  0.00     0.025 A
HETATM   34  C19 UNL     1       4.651 -41.556  -0.144  1.00  0.00     0.004 A
HETATM   35  C20 UNL     1       4.288 -41.530  -1.471  1.00  0.00     0.036 A
HETATM   36  C21 UNL     1       5.207 -41.350  -2.489  1.00  0.00     0.104 A
HETATM   37  C22 UNL     1       6.538 -41.192  -2.115  1.00  0.00     0.061 A
BRANCH  36  38
HETATM   38  N5  UNL     1       4.793 -41.329  -3.837  1.00  0.00    -0.116 N
HETATM   39  O5  UNL     1       3.598 -41.450  -4.115  1.00  0.00    -0.532 OA
HETATM   40  O6  UNL     1       5.711 -41.177  -4.830  1.00  0.00    -0.532 OA
ENDBRANCH  36  38
ENDBRANCH  29  32
ENDBRANCH   7  29
TORSDOF 9
ENDMDL