MODEL 3
REMARK VINA RESULT: -7.097397837      1.981      4.904
REMARK  10 active torsions:
REMARK  status: ('A' for Active; 'I' for Inactive)
REMARK    1  A    between atoms: O1_2  and  C2_3
REMARK    2  A    between atoms: C4_7  and  O2_8
REMARK    3  A    between atoms: O2_8  and  C5_9
REMARK    4  A    between atoms: C6_11  and  C7_12
REMARK    5  A    between atoms: C7_12  and  O4_13
REMARK    6  A    between atoms: O4_13  and  C8_14
REMARK    7  A    between atoms: C14_20  and  O5_21
REMARK    8  A    between atoms: C15_23  and  O6_24
REMARK    9  A    between atoms: C16_26  and  O7_27
REMARK   10  A    between atoms: C17_29  and  C18_30
ROOT
HETATM    1  C5  UNL     1       4.247 -35.688  -5.385  1.00  0.00     0.298 C
HETATM    2  O3  UNL     1       3.785 -36.087  -4.116  1.00  0.00    -0.348 OA
HETATM    3  C6  UNL     1       2.427 -36.043  -4.011  1.00  0.00     0.179 C
HETATM    4  C14 UNL     1       1.832 -36.933  -5.085  1.00  0.00     0.180 C
HETATM    5  C15 UNL     1       2.005 -36.158  -6.395  1.00  0.00     0.183 C
HETATM    6  C16 UNL     1       3.167 -35.189  -6.262  1.00  0.00     0.205 C
ENDROOT
BRANCH   1   7
HETATM    7  O2  UNL     1       5.051 -36.728  -5.928  1.00  0.00    -0.314 OA
BRANCH   7   8
HETATM    8  C4  UNL     1       6.450 -36.814  -5.633  1.00  0.00     0.115 A
HETATM    9  C3  UNL     1       7.282 -35.862  -6.191  1.00  0.00     0.111 A
HETATM   10  S1  UNL     1       8.825 -36.283  -5.624  1.00  0.00    -0.050 SA
HETATM   11 CL1  UNL     1       6.801 -34.518  -7.256  1.00  0.00    -0.073 Cl
HETATM   12  C2  UNL     1       8.405 -37.646  -4.696  1.00  0.00     0.124 A
HETATM   13  C17 UNL     1       7.049 -37.742  -4.852  1.00  0.00     0.051 A
BRANCH  12  14
HETATM   14  O1  UNL     1       9.242 -38.501  -3.930  1.00  0.00    -0.348 OA
HETATM   15  C1  UNL     1      10.617 -38.205  -3.858  1.00  0.00     0.211 C
ENDBRANCH  12  14
BRANCH  13  16
HETATM   16  C18 UNL     1       6.344 -38.855  -4.117  1.00  0.00    -0.013 A
HETATM   17  C19 UNL     1       6.263 -40.113  -4.605  1.00  0.00     0.020 A
HETATM   18  C20 UNL     1       5.585 -41.031  -3.858  1.00  0.00     0.050 A
HETATM   19  S2  UNL     1       5.078 -40.132  -2.502  1.00  0.00    -0.113 SA
HETATM   20  C21 UNL     1       5.741 -38.611  -2.919  1.00  0.00     0.062 A
ENDBRANCH  13  16
ENDBRANCH   7   8
ENDBRANCH   1   7
BRANCH   6  21
HETATM   21  O7  UNL     1       3.615 -34.958  -7.549  1.00  0.00    -0.388 OA
ATOM     22  H7  UNL     1       4.487 -35.309  -7.689  1.00  0.00     0.210 HD
ENDBRANCH   6  21
BRANCH   3  23
HETATM   23  C7  UNL     1       1.934 -36.446  -2.635  1.00  0.00     0.203 C
BRANCH  23  24
HETATM   24  O4  UNL     1       2.285 -37.761  -2.341  1.00  0.00    -0.383 OA
BRANCH  24  25
HETATM   25  C8  UNL     1       1.273 -38.457  -1.715  1.00  0.00     0.121 C
HETATM   26  C9  UNL     1       1.871 -39.347  -0.653  1.00  0.00     0.032 C
HETATM   27  C10 UNL     1       1.088 -40.606  -0.414  1.00  0.00     0.002 C
HETATM   28  C11 UNL     1       0.861 -41.426  -1.649  1.00  0.00     0.000 C
HETATM   29  C12 UNL     1       1.016 -40.602  -2.902  1.00  0.00     0.002 C
HETATM   30  C13 UNL     1       0.386 -39.234  -2.660  1.00  0.00     0.032 C
ENDBRANCH  24  25
ENDBRANCH  23  24
ENDBRANCH   3  23
BRANCH   5  31
HETATM   31  O6  UNL     1       0.853 -35.407  -6.576  1.00  0.00    -0.390 OA
ATOM     32  H6  UNL     1       0.950 -34.945  -7.401  1.00  0.00     0.210 HD
ENDBRANCH   5  31
BRANCH   4  33
HETATM   33  O5  UNL     1       2.589 -38.082  -5.155  1.00  0.00    -0.390 OA
ATOM     34  H5  UNL     1       2.078 -38.795  -4.789  1.00  0.00     0.210 HD
ENDBRANCH   4  33
TORSDOF 10
ENDMDL