MODEL 4
REMARK VINA RESULT: -8.113888048      3.944      7.369
REMARK  9 active torsions:
REMARK  status: ('A' for Active; 'I' for Inactive)
REMARK    1  A    between atoms: O1_2  and  C2_3
REMARK    2  A    between atoms: C4_5  and  C5_6
REMARK    3  A    between atoms: N1_11  and  C8_12
REMARK    4  A    between atoms: C8_12  and  C9_13
REMARK    5  A    between atoms: C9_13  and  O2_14
REMARK    6  A    between atoms: C9_13  and  C10_16
REMARK    7  A    between atoms: C15_23  and  C16_24
REMARK    8  A    between atoms: C20_30  and  O4_31
REMARK    9  A    between atoms: C22_33  and  O5_34
ROOT
HETATM    1  C16 UNL     1       2.737 -38.019  -4.966  1.00  0.00     0.163 C
HETATM    2  C17 UNL     1       2.329 -37.035  -5.968  1.00  0.00     0.063 C
HETATM    3  N3  UNL     1       1.996 -36.257  -6.759  1.00  0.00    -0.197 NA
ENDROOT
BRANCH   1   4
HETATM    4  C15 UNL     1       1.565 -38.560  -4.245  1.00  0.00    -0.034 A
HETATM    5  C10 UNL     1       1.539 -38.598  -2.875  1.00  0.00    -0.018 A
HETATM    6  C11 UNL     1       0.428 -39.133  -2.273  1.00  0.00     0.054 A
HETATM    7  C12 UNL     1      -0.629 -39.619  -3.013  1.00  0.00     0.141 A
HETATM    8  F1  UNL     1      -1.723 -40.149  -2.393  1.00  0.00    -0.204 F
HETATM    9  C13 UNL     1      -0.597 -39.577  -4.392  1.00  0.00     0.085 A
HETATM   10  N2  UNL     1      -1.662 -40.063  -5.184  1.00  0.00    -0.099 NA
HETATM   11  C14 UNL     1       0.514 -39.040  -5.019  1.00  0.00     0.038 A
BRANCH   5  12
HETATM   12  C9  UNL     1       2.658 -38.057  -2.110  1.00  0.00     0.170 C
BRANCH  12  13
HETATM   13  C8  UNL     1       3.165 -39.014  -1.049  1.00  0.00     0.170 C
BRANCH  13  14
HETATM   14  N1  UNL     1       4.090 -39.940  -1.758  1.00  0.00    -0.295 N
HETATM   15  C7  UNL     1       3.759 -41.279  -2.044  1.00  0.00     0.148 C
HETATM   16  S1  UNL     1       5.334 -42.081  -2.326  1.00  0.00    -0.055 SA
HETATM   17  S2  UNL     1       2.321 -41.977  -2.113  1.00  0.00    -0.052 SA
HETATM   18  C6  UNL     1       6.141 -40.536  -2.906  1.00  0.00     0.076 C
HETATM   19  C5  UNL     1       7.168 -40.496  -3.711  1.00  0.00     0.036 C
HETATM   20  C18 UNL     1       5.365 -39.530  -2.213  1.00  0.00     0.266 C
HETATM   21  O3  UNL     1       5.804 -38.327  -2.012  1.00  0.00    -0.266 OA
BRANCH  19  22
HETATM   22  C4  UNL     1       7.754 -39.248  -4.136  1.00  0.00    -0.029 A
HETATM   23  C3  UNL     1       9.034 -38.983  -3.653  1.00  0.00     0.051 A
HETATM   24  C2  UNL     1       9.694 -37.845  -4.012  1.00  0.00     0.104 A
HETATM   25  C22 UNL     1       9.065 -36.972  -4.858  1.00  0.00     0.133 A
HETATM   26  C20 UNL     1       7.798 -37.192  -5.363  1.00  0.00     0.104 A
HETATM   27  C19 UNL     1       7.157 -38.342  -4.987  1.00  0.00     0.051 A
BRANCH  24  28
HETATM   28  O1  UNL     1      10.967 -37.611  -3.513  1.00  0.00    -0.353 OA
HETATM   29  C1  UNL     1      11.875 -38.647  -3.291  1.00  0.00     0.210 C
ENDBRANCH  24  28
BRANCH  25  30
HETATM   30  O5  UNL     1       9.712 -35.813  -5.235  1.00  0.00    -0.356 OA
ATOM     31  H5  UNL     1       9.706 -35.066  -4.648  1.00  0.00     0.218 HD
ENDBRANCH  25  30
BRANCH  26  32
HETATM   32  O4  UNL     1       7.198 -36.268  -6.227  1.00  0.00    -0.353 OA
HETATM   33  C21 UNL     1       5.801 -36.144  -6.257  1.00  0.00     0.210 C
ENDBRANCH  26  32
ENDBRANCH  19  22
ENDBRANCH  13  14
ENDBRANCH  12  13
BRANCH  12  34
HETATM   34  O2  UNL     1       2.262 -36.894  -1.407  1.00  0.00    -0.389 OA
ATOM     35  H2  UNL     1       1.385 -36.699  -1.716  1.00  0.00     0.210 HD
ENDBRANCH  12  34
ENDBRANCH   5  12
ENDBRANCH   1   4
TORSDOF 9
ENDMDL