MODEL 1
REMARK VINA RESULT: -8.435736764      0.000      0.000
REMARK  9 active torsions:
REMARK  status: ('A' for Active; 'I' for Inactive)
REMARK    1  A    between atoms: O1_2  and  C2_3
REMARK    2  A    between atoms: C2_3  and  O2_4
REMARK    3  A    between atoms: C2_3  and  C3_6
REMARK    4  A    between atoms: C6_9  and  C7_10
REMARK    5  A    between atoms: C10_13  and  O3_14
REMARK    6  A    between atoms: O3_14  and  C11_15
REMARK    7  A    between atoms: C14_19  and  O5_20
REMARK    8  A    between atoms: C16_22  and  O6_23
REMARK    9  A    between atoms: C17_25  and  O7_26
ROOT
HETATM    1  C7  UNL     1       3.279 -38.224  -2.254  1.00  0.00    -0.024 A
HETATM    2  C8  UNL     1       2.546 -38.502  -3.387  1.00  0.00     0.015 A
HETATM    3  C9  UNL     1       2.367 -37.497  -4.307  1.00  0.00     0.037 A
HETATM    4  C10 UNL     1       2.911 -36.219  -4.108  1.00  0.00     0.069 A
HETATM    5  C18 UNL     1       3.644 -35.942  -2.977  1.00  0.00     0.037 A
HETATM    6  C19 UNL     1       3.817 -36.957  -2.060  1.00  0.00     0.015 A
ENDROOT
BRANCH   1   7
HETATM    7  C6  UNL     1       3.489 -39.262  -1.252  1.00  0.00     0.002 A
HETATM    8  C5  UNL     1       2.495 -39.640  -0.367  1.00  0.00     0.017 A
HETATM    9  C4  UNL     1       2.724 -40.630   0.578  1.00  0.00     0.031 A
HETATM   10  C3  UNL     1       3.948 -41.256   0.651  1.00  0.00     0.065 A
HETATM   11  N1  UNL     1       4.896 -40.877  -0.214  1.00  0.00    -0.354 N
HETATM   12  C20 UNL     1       4.692 -39.906  -1.150  1.00  0.00     0.054 A
ATOM     13  H1  UNL     1       5.808 -41.333  -0.172  1.00  0.00     0.166 HD
HETATM   14  C21 UNL     1       5.813 -39.612  -2.010  1.00  0.00    -0.008 A
HETATM   15  C22 UNL     1       5.727 -39.826  -3.357  1.00  0.00     0.017 A
HETATM   16  C26 UNL     1       6.970 -39.116  -1.474  1.00  0.00     0.017 A
HETATM   17  C23 UNL     1       6.809 -39.545  -4.199  1.00  0.00     0.043 A
HETATM   18  C24 UNL     1       7.963 -39.046  -3.626  1.00  0.00     0.116 A
HETATM   19  F1  UNL     1       9.051 -38.753  -4.391  1.00  0.00    -0.206 F
HETATM   20  C25 UNL     1       8.066 -38.824  -2.270  1.00  0.00     0.043 A
BRANCH  10  21
HETATM   21  C2  UNL     1       4.224 -42.322   1.653  1.00  0.00     0.307 C
BRANCH  21  22
HETATM   22  O1  UNL     1       5.196 -43.209   1.199  1.00  0.00    -0.360 OA
HETATM   23  C1  UNL     1       4.636 -44.398   0.737  1.00  0.00     0.205 C
ENDBRANCH  21  22
BRANCH  21  24
HETATM   24  O2  UNL     1       4.750 -41.702   2.791  1.00  0.00    -0.366 OA
ATOM     25  H2  UNL     1       4.053 -41.173   3.159  1.00  0.00     0.213 HD
ENDBRANCH  21  24
ENDBRANCH  10  21
ENDBRANCH   1   7
BRANCH   4  26
HETATM   26  O3  UNL     1       2.685 -35.280  -5.071  1.00  0.00    -0.341 OA
BRANCH  26  27
HETATM   27  C11 UNL     1       2.847 -35.383  -6.444  1.00  0.00     0.189 C
HETATM   28  C12 UNL     1       4.060 -34.560  -6.917  1.00  0.00     0.152 C
HETATM   29  C13 UNL     1       4.067 -33.223  -6.207  1.00  0.00     0.042 C
HETATM   30  O4  UNL     1       4.027 -34.341  -8.269  1.00  0.00    -0.351 OA
HETATM   31  C14 UNL     1       3.255 -35.269  -8.962  1.00  0.00     0.290 C
HETATM   32  C16 UNL     1       1.786 -35.145  -8.623  1.00  0.00     0.204 C
HETATM   33  C17 UNL     1       1.653 -34.734  -7.158  1.00  0.00     0.183 C
BRANCH  31  34
HETATM   34  O5  UNL     1       3.395 -34.985 -10.319  1.00  0.00    -0.363 OA
HETATM   35  C15 UNL     1       4.611 -35.450 -10.817  1.00  0.00     0.204 C
ENDBRANCH  31  34
BRANCH  32  36
HETATM   36  O6  UNL     1       1.150 -34.225  -9.459  1.00  0.00    -0.388 OA
ATOM     37  H6  UNL     1       0.453 -33.771  -9.002  1.00  0.00     0.210 HD
ENDBRANCH  32  36
BRANCH  33  38
HETATM   38  O7  UNL     1       0.472 -35.147  -6.594  1.00  0.00    -0.390 OA
ATOM     39  H7  UNL     1      -0.241 -34.580  -6.862  1.00  0.00     0.210 HD
ENDBRANCH  33  38
ENDBRANCH  26  27
ENDBRANCH   4  26
TORSDOF 9
ENDMDL