MODEL 3
REMARK VINA RESULT: -8.416086073      2.687      6.250
REMARK  10 active torsions:
REMARK  status: ('A' for Active; 'I' for Inactive)
REMARK    1  A    between atoms: C2_2  and  C3_3
REMARK    2  A    between atoms: C3_3  and  O1_4
REMARK    3  A    between atoms: C5_8  and  O3_9
REMARK    4  A    between atoms: O3_9  and  C6_10
REMARK    5  A    between atoms: C6_10  and  C7_11
REMARK    6  A    between atoms: C9_13  and  O4_14
REMARK    7  A    between atoms: C10_16  and  O5_17
REMARK    8  A    between atoms: C12_21  and  O6_22
REMARK    9  A    between atoms: O6_22  and  C13_23
REMARK   10  A    between atoms: C13_23  and  C14_24
ROOT
HETATM    1  C7  UNL     1       6.651 -37.025  -5.322  1.00  0.00     0.024 A
HETATM    2  C8  UNL     1       7.606 -36.177  -5.798  1.00  0.00     0.055 A
HETATM    3  C9  UNL     1       8.936 -36.314  -5.422  1.00  0.00     0.101 A
HETATM    4  C10 UNL     1       9.278 -37.327  -4.555  1.00  0.00     0.123 A
HETATM    5  C11 UNL     1       8.337 -38.185  -4.066  1.00  0.00     0.104 A
HETATM    6 CL1  UNL     1       8.804 -39.482  -2.951  1.00  0.00    -0.078 Cl
HETATM    7  C12 UNL     1       7.010 -38.046  -4.440  1.00  0.00     0.105 A
ENDROOT
BRANCH   7   8
HETATM    8  O6  UNL     1       6.126 -38.927  -3.909  1.00  0.00    -0.346 OA
BRANCH   8   9
HETATM    9  C13 UNL     1       5.363 -39.022  -2.797  1.00  0.00     0.209 C
BRANCH   9  10
HETATM   10  C14 UNL     1       4.742 -40.302  -2.400  1.00  0.00     0.169 C
HETATM   11  C15 UNL     1       4.241 -41.023  -3.640  1.00  0.00     0.203 C
HETATM   12  O7  UNL     1       3.082 -41.704  -3.296  1.00  0.00    -0.378 OA
HETATM   13  C16 UNL     1       1.931 -41.002  -3.593  1.00  0.00     0.063 C
HETATM   14  C17 UNL     1       1.685 -41.106  -5.082  1.00  0.00     0.038 C
HETATM   15  C21 UNL     1       0.779 -41.709  -2.903  1.00  0.00     0.038 C
HETATM   16  C22 UNL     1       2.002 -39.550  -3.236  1.00  0.00     0.064 C
HETATM   17  C18 UNL     1       0.441 -40.309  -5.419  1.00  0.00     0.003 C
HETATM   18  C19 UNL     1      -0.727 -40.977  -4.766  1.00  0.00     0.000 C
HETATM   19  C20 UNL     1      -0.553 -41.135  -3.276  1.00  0.00     0.003 C
HETATM   20  C23 UNL     1       2.692 -39.275  -1.934  1.00  0.00     0.171 C
HETATM   21  O8  UNL     1       3.647 -40.155  -1.555  1.00  0.00    -0.381 OA
ENDBRANCH   9  10
ENDBRANCH   8   9
ENDBRANCH   7   8
BRANCH   1  22
HETATM   22  C6  UNL     1       5.248 -36.899  -5.760  1.00  0.00     0.149 C
BRANCH  22  23
HETATM   23  O3  UNL     1       4.374 -36.115  -5.143  1.00  0.00    -0.353 OA
BRANCH  23  24
HETATM   24  C5  UNL     1       3.500 -35.307  -5.801  1.00  0.00     0.175 C
HETATM   25  C4  UNL     1       2.658 -36.080  -6.779  1.00  0.00     0.206 C
HETATM   26  O2  UNL     1       1.754 -35.156  -7.369  1.00  0.00    -0.351 OA
HETATM   27  C2  UNL     1       2.524 -34.206  -8.058  1.00  0.00     0.181 C
HETATM   28  C1  UNL     1       2.039 -34.286  -9.523  1.00  0.00     0.081 C
HETATM   29  O9  UNL     1       3.864 -34.492  -8.002  1.00  0.00    -0.351 OA
HETATM   30  C24 UNL     1       4.371 -34.382  -6.739  1.00  0.00     0.206 C
BRANCH  27  31
HETATM   31  C3  UNL     1       2.261 -32.804  -7.598  1.00  0.00     0.232 C
BRANCH  31  32
HETATM   32  O1  UNL     1       0.951 -32.731  -7.123  1.00  0.00    -0.396 OA
ATOM     33  H1  UNL     1       0.948 -32.226  -6.318  1.00  0.00     0.209 HD
ENDBRANCH  31  32
ENDBRANCH  27  31
ENDBRANCH  23  24
ENDBRANCH  22  23
ENDBRANCH   1  22
BRANCH   4  34
HETATM   34  O5  UNL     1      10.624 -37.470  -4.173  1.00  0.00    -0.356 OA
ATOM     35  H5  UNL     1      10.823 -37.869  -3.335  1.00  0.00     0.218 HD
ENDBRANCH   4  34
BRANCH   3  36
HETATM   36  O4  UNL     1       9.944 -35.476  -5.880  1.00  0.00    -0.358 OA
ATOM     37  H4  UNL     1      10.856 -35.739  -5.929  1.00  0.00     0.217 HD
ENDBRANCH   3  36
TORSDOF 10
ENDMDL