MODEL 2
REMARK VINA RESULT: -9.435756264      0.900      1.191
REMARK  10 active torsions:
REMARK  status: ('A' for Active; 'I' for Inactive)
REMARK    1  A    between atoms: O1_2  and  C2_3
REMARK    2  A    between atoms: C4_5  and  O2_6
REMARK    3  A    between atoms: O2_6  and  C5_7
REMARK    4  A    between atoms: C5_7  and  C6_8
REMARK    5  A    between atoms: C10_12  and  C11_13
REMARK    6  A    between atoms: C14_16  and  N1_17
REMARK    7  A    between atoms: C20_26  and  C21_27
REMARK    8  A    between atoms: N2_30  and  O6_32
REMARK    9  A    between atoms: C23_34  and  O7_35
REMARK   10  A    between atoms: C24_37  and  O8_38
ROOT
HETATM    1  C2  UNL     1       4.317 -39.138  -2.253  1.00  0.00     0.079 A
HETATM    2  C3  UNL     1       5.549 -38.515  -2.271  1.00  0.00     0.074 A
HETATM    3  C4  UNL     1       6.645 -39.083  -2.886  1.00  0.00     0.071 A
HETATM    4  C18 UNL     1       6.459 -40.332  -3.503  1.00  0.00     0.037 A
HETATM    5  C19 UNL     1       5.235 -40.930  -3.474  1.00  0.00     0.015 A
HETATM    6  C20 UNL     1       4.147 -40.390  -2.875  1.00  0.00     0.007 A
ENDROOT
BRANCH   3   7
HETATM    7  O2  UNL     1       7.902 -38.572  -2.970  1.00  0.00    -0.347 OA
BRANCH   7   8
HETATM    8  C5  UNL     1       8.755 -38.618  -4.048  1.00  0.00     0.214 C
BRANCH   8   9
HETATM    9  C6  UNL     1       8.512 -37.439  -4.931  1.00  0.00    -0.033 A
HETATM   10  C7  UNL     1       9.595 -36.693  -5.324  1.00  0.00     0.009 A
HETATM   11  C8  UNL     1       9.410 -35.587  -6.124  1.00  0.00     0.002 A
HETATM   12  C9  UNL     1       8.153 -35.215  -6.538  1.00  0.00     0.012 A
HETATM   13  C10 UNL     1       7.034 -35.960  -6.151  1.00  0.00    -0.025 A
HETATM   14  C17 UNL     1       7.264 -37.053  -5.355  1.00  0.00     0.021 A
BRANCH  13  15
HETATM   15  C11 UNL     1       5.714 -35.518  -6.580  1.00  0.00    -0.023 A
HETATM   16  C12 UNL     1       5.518 -34.227  -7.014  1.00  0.00     0.015 A
HETATM   17  C13 UNL     1       4.295 -33.764  -7.448  1.00  0.00     0.040 A
HETATM   18  C14 UNL     1       3.223 -34.611  -7.454  1.00  0.00     0.141 A
HETATM   19  C15 UNL     1       3.410 -35.913  -7.017  1.00  0.00     0.150 A
HETATM   20  F1  UNL     1       2.355 -36.751  -7.029  1.00  0.00    -0.203 F
HETATM   21  C16 UNL     1       4.630 -36.380  -6.582  1.00  0.00     0.057 A
BRANCH  18  22
HETATM   22  N1  UNL     1       1.960 -34.150  -7.903  1.00  0.00    -0.113 N
HETATM   23  O3  UNL     1       1.314 -33.371  -7.161  1.00  0.00    -0.532 OA
HETATM   24  O4  UNL     1       1.459 -34.550  -9.115  1.00  0.00    -0.532 OA
ENDBRANCH  18  22
ENDBRANCH  13  15
ENDBRANCH   8   9
ENDBRANCH   7   8
ENDBRANCH   3   7
BRANCH   1  25
HETATM   25  O1  UNL     1       3.250 -38.535  -1.626  1.00  0.00    -0.355 OA
HETATM   26  C1  UNL     1       2.687 -37.317  -2.013  1.00  0.00     0.210 C
ENDBRANCH   1  25
BRANCH   6  27
HETATM   27  C21 UNL     1       2.798 -40.990  -2.774  1.00  0.00     0.198 C
HETATM   28  O5  UNL     1       1.926 -40.244  -3.589  1.00  0.00    -0.323 OA
HETATM   29  C22 UNL     1       1.514 -40.972  -4.704  1.00  0.00     0.170 C
HETATM   30  N2  UNL     1       0.578 -40.691  -5.521  1.00  0.00    -0.249 N
HETATM   31  C23 UNL     1       2.406 -42.187  -4.766  1.00  0.00     0.226 C
ATOM     32  H2  UNL     1       0.363 -41.302  -6.309  1.00  0.00     0.196 HD
HETATM   33  C24 UNL     1       2.678 -42.383  -3.276  1.00  0.00     0.189 C
BRANCH  30  34
HETATM   34  O6  UNL     1      -0.139 -39.521  -5.299  1.00  0.00    -0.288 OA
ATOM     35  H6  UNL     1      -0.197 -38.899  -6.015  1.00  0.00     0.244 HD
ENDBRANCH  30  34
BRANCH  31  36
HETATM   36  O7  UNL     1       1.726 -43.238  -5.327  1.00  0.00    -0.385 OA
ATOM     37  H7  UNL     1       1.272 -43.728  -4.651  1.00  0.00     0.210 HD
ENDBRANCH  31  36
BRANCH  33  38
HETATM   38  O8  UNL     1       1.550 -42.987  -2.722  1.00  0.00    -0.390 OA
ATOM     39  H8  UNL     1       0.765 -42.611  -3.104  1.00  0.00     0.210 HD
ENDBRANCH  33  38
ENDBRANCH   6  27
TORSDOF 10
ENDMDL