MODEL 4
REMARK VINA RESULT: -7.507134203      3.693     10.067
REMARK  13 active torsions:
REMARK  status: ('A' for Active; 'I' for Inactive)
REMARK    1  A    between atoms: C2_2  and  C3_3
REMARK    2  A    between atoms: C3_3  and  O1_4
REMARK    3  A    between atoms: C3_3  and  C16_23
REMARK    4  A    between atoms: O1_4  and  N1_5
REMARK    5  A    between atoms: C5_7  and  C6_8
REMARK    6  A    between atoms: C6_8  and  O2_9
REMARK       I    between atoms: N2_11  and  C8_13
REMARK    7  A    between atoms: C13_19  and  O4_20
REMARK    8  A    between atoms: C18_26  and  C19_27
REMARK    9  A    between atoms: C19_27  and  C20_28
REMARK   10  A    between atoms: C20_28  and  O5_29
REMARK   11  A    between atoms: C20_28  and  N3_31
REMARK   12  A    between atoms: N3_31  and  O6_33
REMARK   13  A    between atoms: C22_37  and  O7_38
ROOT
HETATM    1  C3  UNL     1       7.978 -37.004  -5.142  1.00  0.00     0.195 C
ENDROOT
BRANCH   1   2
HETATM    2  C2  UNL     1       9.167 -36.539  -5.976  1.00  0.00     0.036 C
HETATM    3  C1  UNL     1       9.168 -35.062  -6.238  1.00  0.00     0.008 C
ENDBRANCH   1   2
BRANCH   1   4
HETATM    4  O1  UNL     1       6.895 -37.329  -5.864  1.00  0.00    -0.268 OA
BRANCH   4   5
HETATM    5  N1  UNL     1       5.777 -36.631  -5.775  1.00  0.00    -0.266 N
HETATM    6  C4  UNL     1       4.788 -37.071  -4.870  1.00  0.00     0.129 C
HETATM    7  C5  UNL     1       3.478 -36.833  -5.074  1.00  0.00     0.021 C
HETATM    8  C10 UNL     1       3.103 -36.019  -6.195  1.00  0.00     0.013 C
HETATM    9  C11 UNL     1       2.010 -35.037  -5.723  1.00  0.00     0.023 C
HETATM   10  C12 UNL     1       2.473 -36.905  -7.256  1.00  0.00     0.023 C
HETATM   11  C13 UNL     1       4.175 -35.179  -6.883  1.00  0.00     0.153 C
HETATM   12  C15 UNL     1       5.572 -35.456  -6.541  1.00  0.00     0.188 C
BRANCH   7  13
HETATM   13  C6  UNL     1       2.596 -37.350  -4.059  1.00  0.00     0.153 C
HETATM   14  N2  UNL     1       1.486 -38.110  -3.825  1.00  0.00    -0.303 N
HETATM   15  C7  UNL     1       0.975 -37.971  -2.358  1.00  0.00     0.161 C
HETATM   16  C8  UNL     1       0.712 -39.058  -4.468  1.00  0.00     0.221 C
HETATM   17  C9  UNL     1      -0.478 -39.704  -3.716  1.00  0.00     0.117 C
HETATM   18  O3  UNL     1       0.831 -39.491  -5.613  1.00  0.00    -0.273 OA
BRANCH  13  19
HETATM   19  O2  UNL     1       3.025 -36.912  -2.789  1.00  0.00    -0.345 OA
ATOM     20  H2  UNL     1       2.534 -36.140  -2.534  1.00  0.00     0.219 HD
ENDBRANCH  13  19
ENDBRANCH   7  13
BRANCH  11  21
HETATM   21  O4  UNL     1       3.881 -35.186  -8.240  1.00  0.00    -0.388 OA
HETATM   22  C14 UNL     1       4.935 -35.334  -9.073  1.00  0.00     0.202 C
ENDBRANCH  11  21
ENDBRANCH   4   5
ENDBRANCH   1   4
BRANCH   1  23
HETATM   23  C16 UNL     1       8.489 -38.128  -4.312  1.00  0.00     0.051 A
HETATM   24  S1  UNL     1      10.035 -38.317  -3.631  1.00  0.00    -0.086 SA
HETATM   25  C17 UNL     1       9.878 -39.829  -2.864  1.00  0.00     0.047 A
HETATM   26  C18 UNL     1      10.811 -40.618  -2.086  1.00  0.00     0.026 C
HETATM   27  C21 UNL     1       8.563 -40.152  -3.179  1.00  0.00     0.167 A
HETATM   28  F1  UNL     1       8.029 -41.357  -2.721  1.00  0.00    -0.202 F
HETATM   29  C22 UNL     1       7.870 -39.285  -3.911  1.00  0.00     0.121 A
BRANCH  26  30
HETATM   30  C19 UNL     1      12.018 -40.420  -1.734  1.00  0.00     0.059 C
BRANCH  30  31
HETATM   31  C20 UNL     1      13.202 -40.007  -2.433  1.00  0.00     0.159 C
BRANCH  31  32
HETATM   32  O5  UNL     1      13.891 -41.015  -3.182  1.00  0.00    -0.345 OA
ATOM     33  H5  UNL     1      13.989 -41.862  -2.765  1.00  0.00     0.219 HD
ENDBRANCH  31  32
BRANCH  31  34
HETATM   34  N3  UNL     1      13.752 -38.872  -2.497  1.00  0.00    -0.248 N
ATOM     35  H3  UNL     1      14.751 -38.825  -2.300  1.00  0.00     0.196 HD
BRANCH  34  36
HETATM   36  O6  UNL     1      13.124 -37.712  -2.807  1.00  0.00    -0.288 OA
ATOM     37  H6  UNL     1      12.355 -37.633  -3.359  1.00  0.00     0.244 HD
ENDBRANCH  34  36
ENDBRANCH  31  34
ENDBRANCH  30  31
ENDBRANCH  26  30
BRANCH  29  38
HETATM   38  O7  UNL     1       6.520 -39.485  -4.304  1.00  0.00    -0.357 OA
ATOM     39  H7  UNL     1       5.847 -39.395  -3.640  1.00  0.00     0.218 HD
ENDBRANCH  29  38
ENDBRANCH   1  23
TORSDOF 13
ENDMDL