MODEL 4
REMARK VINA RESULT: -7.170416511      1.572      2.260
REMARK  8 active torsions:
REMARK  status: ('A' for Active; 'I' for Inactive)
REMARK    1  A    between atoms: O1_2  and  C2_3
REMARK    2  A    between atoms: C4_5  and  C5_6
REMARK    3  A    between atoms: C5_6  and  C6_8
REMARK    4  A    between atoms: C6_8  and  S1_9
REMARK    5  A    between atoms: S1_9  and  C7_10
REMARK    6  A    between atoms: C8_13  and  C9_14
REMARK    7  A    between atoms: C15_25  and  O3_26
REMARK    8  A    between atoms: C17_28  and  O4_29
ROOT
HETATM    1  C6  UNL     1       2.997 -37.850  -3.755  1.00  0.00     0.161 C
ENDROOT
BRANCH   1   2
HETATM    2  C5  UNL     1       2.705 -36.491  -4.259  1.00  0.00     0.169 C
HETATM    3  O2  UNL     1       1.992 -35.739  -3.555  1.00  0.00    -0.291 OA
BRANCH   2   4
HETATM    4  C4  UNL     1       3.252 -36.085  -5.540  1.00  0.00     0.016 A
HETATM    5  C3  UNL     1       2.426 -35.843  -6.614  1.00  0.00     0.055 A
HETATM    6  C2  UNL     1       2.935 -35.460  -7.841  1.00  0.00     0.105 A
HETATM    7  C17 UNL     1       4.274 -35.312  -8.017  1.00  0.00     0.135 A
HETATM    8  C15 UNL     1       5.129 -35.555  -6.930  1.00  0.00     0.105 A
HETATM    9  C14 UNL     1       4.629 -35.935  -5.707  1.00  0.00     0.055 A
BRANCH   6  10
HETATM   10  O1  UNL     1       2.067 -35.223  -8.910  1.00  0.00    -0.353 OA
HETATM   11  C1  UNL     1       1.616 -33.961  -9.292  1.00  0.00     0.210 C
ENDBRANCH   6  10
BRANCH   7  12
HETATM   12  O4  UNL     1       4.797 -34.926  -9.251  1.00  0.00    -0.351 OA
HETATM   13  C18 UNL     1       4.941 -35.783 -10.343  1.00  0.00     0.210 C
ENDBRANCH   7  12
BRANCH   8  14
HETATM   14  O3  UNL     1       6.459 -35.382  -7.194  1.00  0.00    -0.353 OA
HETATM   15  C16 UNL     1       7.155 -34.212  -6.985  1.00  0.00     0.210 C
ENDBRANCH   8  14
ENDBRANCH   2   4
ENDBRANCH   1   2
BRANCH   1  16
HETATM   16  S1  UNL     1       4.004 -37.859  -2.271  1.00  0.00    -0.111 SA
BRANCH  16  17
HETATM   17  C7  UNL     1       4.591 -39.540  -1.977  1.00  0.00     0.358 C
HETATM   18  N1  UNL     1       5.336 -39.616  -0.710  1.00  0.00    -0.102 NA
HETATM   19  N2  UNL     1       6.584 -39.090  -1.112  1.00  0.00    -0.106 NA
HETATM   20  C8  UNL     1       6.826 -39.850  -2.328  1.00  0.00     0.338 C
HETATM   21  N3  UNL     1       5.546 -39.940  -2.993  1.00  0.00    -0.023 N
ATOM     22  H32 UNL     1       5.355 -40.850  -3.412  1.00  0.00     0.282 HD
ATOM     23  H31 UNL     1       5.485 -39.404  -3.859  1.00  0.00     0.282 HD
BRANCH  20  24
HETATM   24  C9  UNL     1       7.802 -39.020  -3.133  1.00  0.00     0.048 A
HETATM   25  S2  UNL     1       7.483 -37.749  -4.229  1.00  0.00    -0.095 SA
HETATM   26  C10 UNL     1       9.082 -37.370  -4.680  1.00  0.00    -0.019 A
HETATM   27  C11 UNL     1       9.564 -36.319  -5.642  1.00  0.00     0.056 C
HETATM   28  C12 UNL     1       9.824 -38.258  -3.953  1.00  0.00     0.034 A
HETATM   29  C13 UNL     1       9.169 -39.108  -3.156  1.00  0.00     0.028 A
HETATM   30 BR1  UNL     1      10.054 -40.441  -2.047  1.00  0.00    -0.050 Br
ENDBRANCH  20  24
ENDBRANCH  16  17
ENDBRANCH   1  16
TORSDOF 8
ENDMDL