MODEL 2
REMARK VINA RESULT: -7.196310932      2.693      6.980
REMARK  9 active torsions:
REMARK  status: ('A' for Active; 'I' for Inactive)
REMARK    1  A    between atoms: C2_2  and  N1_3
REMARK       I    between atoms: N1_3  and  C3_5
REMARK       I    between atoms: C3_5  and  N2_7
REMARK    2  A    between atoms: N2_7  and  C4_9
REMARK    3  A    between atoms: C6_11  and  O2_12
REMARK    4  A    between atoms: C8_14  and  C9_15
REMARK    5  A    between atoms: C10_16  and  C11_17
REMARK    6  A    between atoms: C11_17  and  N3_20
REMARK       I    between atoms: N3_20  and  C14_22
REMARK    7  A    between atoms: C14_22  and  O4_24
REMARK    8  A    between atoms: O4_24  and  C15_25
REMARK    9  A    between atoms: C20_35  and  O5_36
ROOT
HETATM    1  C9  UNL     1       3.997 -39.414  -2.262  1.00  0.00     0.094 A
HETATM    2  C10 UNL     1       5.259 -39.907  -2.190  1.00  0.00     0.084 A
HETATM    3  N4  UNL     1       5.365 -40.464  -0.940  1.00  0.00    -0.285 N
ATOM      4  H4  UNL     1       6.192 -40.924  -0.557  1.00  0.00     0.188 HD
HETATM    5  N5  UNL     1       4.220 -40.303  -0.324  1.00  0.00    -0.240 N
ATOM      6  H5  UNL     1       4.024 -40.627   0.623  1.00  0.00     0.208 HD
HETATM    7  N6  UNL     1       3.368 -39.678  -1.076  1.00  0.00    -0.279 N
HETATM    8  C19 UNL     1       1.987 -39.284  -0.761  1.00  0.00     0.179 C
ENDROOT
BRANCH   1   9
HETATM    9  C8  UNL     1       3.361 -38.644  -3.309  1.00  0.00     0.061 A
HETATM   10  C6  UNL     1       2.525 -39.052  -4.290  1.00  0.00     0.085 A
HETATM   11  C5  UNL     1       1.887 -38.153  -5.166  1.00  0.00     0.067 A
HETATM   12  C4  UNL     1       2.076 -36.814  -5.083  1.00  0.00     0.041 A
HETATM   13  C22 UNL     1       2.940 -36.378  -4.076  1.00  0.00     0.067 A
HETATM   14  C20 UNL     1       3.543 -37.249  -3.242  1.00  0.00     0.085 A
BRANCH  10  15
HETATM   15  O2  UNL     1       2.279 -40.387  -4.471  1.00  0.00    -0.355 OA
HETATM   16  C7  UNL     1       1.167 -41.113  -4.068  1.00  0.00     0.210 C
ENDBRANCH  10  15
BRANCH  12  17
HETATM   17  N2  UNL     1       1.524 -35.819  -5.898  1.00  0.00    -0.309 N
HETATM   18  C3  UNL     1       2.083 -35.399  -7.115  1.00  0.00     0.320 C
HETATM   19  N1  UNL     1       1.439 -34.372  -7.904  1.00  0.00    -0.343 N
HETATM   20  O1  UNL     1       3.140 -35.843  -7.618  1.00  0.00    -0.247 OA
ATOM     21  H1  UNL     1       0.571 -33.943  -7.582  1.00  0.00     0.164 HD
ATOM     22  H2  UNL     1       0.660 -35.373  -5.589  1.00  0.00     0.170 HD
BRANCH  19  23
HETATM   23  C2  UNL     1       2.037 -33.960  -9.146  1.00  0.00     0.120 C
HETATM   24  C1  UNL     1       1.111 -34.331 -10.279  1.00  0.00     0.026 C
ENDBRANCH  19  23
ENDBRANCH  12  17
BRANCH  14  25
HETATM   25  O5  UNL     1       4.390 -36.773  -2.258  1.00  0.00    -0.355 OA
HETATM   26  C21 UNL     1       3.935 -35.729  -1.427  1.00  0.00     0.210 C
ENDBRANCH  14  25
ENDBRANCH   1   9
BRANCH   2  27
HETATM   27  C11 UNL     1       6.381 -39.989  -3.139  1.00  0.00     0.074 C
HETATM   28  C12 UNL     1       7.582 -40.747  -2.771  1.00  0.00     0.045 C
HETATM   29  C13 UNL     1       5.827 -40.704  -4.404  1.00  0.00     0.045 C
BRANCH  27  30
HETATM   30  N3  UNL     1       6.651 -38.631  -3.648  1.00  0.00    -0.323 N
HETATM   31  C14 UNL     1       7.930 -38.169  -4.016  1.00  0.00     0.362 C
HETATM   32  O3  UNL     1       8.916 -38.915  -3.921  1.00  0.00    -0.238 OA
ATOM     33  H3  UNL     1       5.865 -37.988  -3.738  1.00  0.00     0.166 HD
BRANCH  31  34
HETATM   34  O4  UNL     1       8.117 -36.895  -4.485  1.00  0.00    -0.294 OA
BRANCH  34  35
HETATM   35  C15 UNL     1       8.016 -36.477  -5.806  1.00  0.00     0.061 C
HETATM   36  C16 UNL     1       6.626 -36.208  -6.286  1.00  0.00     0.046 C
HETATM   37  C17 UNL     1       8.693 -37.414  -6.784  1.00  0.00     0.046 C
HETATM   38  C18 UNL     1       8.776 -35.146  -5.907  1.00  0.00     0.046 C
ENDBRANCH  34  35
ENDBRANCH  31  34
ENDBRANCH  27  30
ENDBRANCH   2  27
TORSDOF 9
ENDMDL