MODEL 2
REMARK VINA RESULT: -9.220392417      4.494      9.254
REMARK  8 active torsions:
REMARK  status: ('A' for Active; 'I' for Inactive)
REMARK    1  A    between atoms: C2_2  and  C3_3
REMARK    2  A    between atoms: C5_5  and  O1_6
REMARK    3  A    between atoms: C8_10  and  O2_11
REMARK    4  A    between atoms: C10_13  and  C11_14
REMARK    5  A    between atoms: C12_18  and  O4_19
REMARK    6  A    between atoms: O4_19  and  C13_20
REMARK    7  A    between atoms: C16_23  and  C17_24
REMARK    8  A    between atoms: C18_25  and  O5_26
ROOT
HETATM    1  C11 UNL     1       7.627 -39.567  -1.997  1.00  0.00     0.180 C
HETATM    2  N1  UNL     1       6.767 -40.500  -2.225  1.00  0.00    -0.239 N
ATOM      3  H1  UNL     1       7.001 -41.382  -2.680  1.00  0.00     0.197 HD
HETATM    4  O3  UNL     1       5.518 -40.186  -1.795  1.00  0.00    -0.217 OA
HETATM    5  C12 UNL     1       5.627 -39.030  -0.972  1.00  0.00     0.451 C
HETATM    6  O7  UNL     1       6.901 -38.569  -1.376  1.00  0.00    -0.276 OA
ENDROOT
BRANCH   5   7
HETATM    7  O4  UNL     1       4.639 -38.101  -1.245  1.00  0.00    -0.295 OA
BRANCH   7   8
HETATM    8  C13 UNL     1       4.261 -37.607  -2.481  1.00  0.00     0.074 A
HETATM    9  C14 UNL     1       4.008 -36.244  -2.607  1.00  0.00     0.038 A
HETATM   10  C15 UNL     1       3.629 -35.689  -3.811  1.00  0.00     0.015 A
HETATM   11  C16 UNL     1       3.479 -36.445  -4.956  1.00  0.00    -0.016 A
HETATM   12  C21 UNL     1       3.729 -37.796  -4.837  1.00  0.00     0.015 A
HETATM   13  C22 UNL     1       4.112 -38.366  -3.622  1.00  0.00     0.038 A
BRANCH  11  14
HETATM   14  C17 UNL     1       3.084 -35.842  -6.225  1.00  0.00     0.093 A
HETATM   15  C18 UNL     1       3.964 -35.447  -7.207  1.00  0.00     0.159 A
HETATM   16  N2  UNL     1       3.535 -34.891  -8.369  1.00  0.00    -0.313 N
HETATM   17  C19 UNL     1       2.217 -34.718  -8.578  1.00  0.00     0.180 A
ATOM     18  H2  UNL     1       4.208 -34.607  -9.080  1.00  0.00     0.170 HD
HETATM   19  S1  UNL     1       1.737 -34.041 -10.003  1.00  0.00    -0.040 SA
HETATM   20  N3  UNL     1       1.341 -35.095  -7.635  1.00  0.00    -0.299 N
HETATM   21  C20 UNL     1       1.739 -35.650  -6.469  1.00  0.00     0.263 A
ATOM     22  H3  UNL     1       0.344 -34.959  -7.803  1.00  0.00     0.171 HD
HETATM   23  O6  UNL     1       0.893 -36.000  -5.592  1.00  0.00    -0.267 OA
BRANCH  15  24
HETATM   24  O5  UNL     1       5.325 -35.624  -6.998  1.00  0.00    -0.345 OA
ATOM     25  H5  UNL     1       5.653 -35.639  -6.107  1.00  0.00     0.219 HD
ENDBRANCH  15  24
ENDBRANCH  11  14
ENDBRANCH   7   8
ENDBRANCH   5   7
BRANCH   1  26
HETATM   26  C10 UNL     1       9.062 -39.617  -2.349  1.00  0.00     0.060 A
HETATM   27  C3  UNL     1       9.622 -38.870  -3.357  1.00  0.00    -0.038 A
HETATM   28  C4  UNL     1      11.002 -38.930  -3.631  1.00  0.00     0.048 A
HETATM   29  C5  UNL     1      11.823 -39.742  -2.896  1.00  0.00     0.110 A
HETATM   30  C7  UNL     1      11.271 -40.491  -1.891  1.00  0.00     0.183 A
HETATM   31  F1  UNL     1      12.068 -41.293  -1.161  1.00  0.00    -0.200 F
HETATM   32  C8  UNL     1       9.893 -40.429  -1.618  1.00  0.00     0.124 A
BRANCH  27  33
HETATM   33  C2  UNL     1       8.788 -37.991  -4.183  1.00  0.00     0.035 C
HETATM   34  C1  UNL     1       9.570 -36.989  -5.005  1.00  0.00     0.010 C
ENDBRANCH  27  33
BRANCH  29  35
HETATM   35  O1  UNL     1      13.178 -39.771  -3.201  1.00  0.00    -0.353 OA
HETATM   36  C6  UNL     1      13.865 -40.944  -3.541  1.00  0.00     0.210 C
ENDBRANCH  29  35
BRANCH  32  37
HETATM   37  O2  UNL     1       9.429 -41.226  -0.583  1.00  0.00    -0.352 OA
HETATM   38  C9  UNL     1       9.547 -40.792   0.783  1.00  0.00     0.210 C
ENDBRANCH  32  37
ENDBRANCH   1  26
TORSDOF 8
ENDMDL