MODEL 1
REMARK VINA RESULT: -7.817997934      0.000      0.000
REMARK  12 active torsions:
REMARK  status: ('A' for Active; 'I' for Inactive)
REMARK    1  A    between atoms: C6_11  and  C7_12
REMARK    2  A    between atoms: C8_13  and  C9_14
REMARK    3  A    between atoms: C13_18  and  C14_19
REMARK       I    between atoms: C14_19  and  N3_21
REMARK    4  A    between atoms: N3_21  and  C15_23
REMARK    5  A    between atoms: C15_23  and  C16_24
REMARK    6  A    between atoms: C16_24  and  O2_25
REMARK    7  A    between atoms: O2_25  and  C17_26
REMARK    8  A    between atoms: C17_26  and  C18_27
REMARK    9  A    between atoms: C18_27  and  O3_28
REMARK   10  A    between atoms: O3_28  and  C19_29
REMARK   11  A    between atoms: C19_29  and  C20_30
REMARK   12  A    between atoms: C20_30  and  N4_31
ROOT
HETATM    1  C9  UNL     1      36.230   9.859   7.958  1.00  0.00    -0.035 A
HETATM    2  C10 UNL     1      35.492   9.338   6.924  1.00  0.00     0.011 A
HETATM    3  C11 UNL     1      34.180   9.678   6.691  1.00  0.00     0.002 A
HETATM    4  C12 UNL     1      33.541  10.595   7.531  1.00  0.00     0.017 A
HETATM    5  C13 UNL     1      34.254  11.136   8.577  1.00  0.00     0.032 A
HETATM    6  C21 UNL     1      35.581  10.764   8.776  1.00  0.00     0.028 A
ENDROOT
BRANCH   5   7
HETATM    7  C14 UNL     1      33.664  12.107   9.512  1.00  0.00     0.251 C
HETATM    8  O1  UNL     1      33.954  13.325   9.376  1.00  0.00    -0.268 OA
HETATM    9  N3  UNL     1      32.799  11.699  10.534  1.00  0.00    -0.355 N
ATOM     10  H3  UNL     1      32.563  10.713  10.646  1.00  0.00     0.162 HD
BRANCH   9  11
HETATM   11  C15 UNL     1      32.243  12.688  11.430  1.00  0.00     0.149 C
BRANCH  11  12
HETATM   12  C16 UNL     1      33.023  12.784  12.730  1.00  0.00     0.187 C
BRANCH  12  13
HETATM   13  O2  UNL     1      33.490  11.538  13.109  1.00  0.00    -0.387 OA
BRANCH  13  14
HETATM   14  C17 UNL     1      34.846  11.380  13.108  1.00  0.00     0.193 C
BRANCH  14  15
HETATM   15  C18 UNL     1      35.395  10.062  13.510  1.00  0.00     0.193 C
BRANCH  15  16
HETATM   16  O3  UNL     1      34.577   9.322  14.276  1.00  0.00    -0.387 OA
BRANCH  16  17
HETATM   17  C19 UNL     1      34.940   8.880  15.500  1.00  0.00     0.195 C
BRANCH  17  18
HETATM   18  C20 UNL     1      34.899   7.336  15.440  1.00  0.00     0.255 C
BRANCH  18  19
HETATM   19  N4  UNL     1      33.751   6.885  16.202  1.00  0.00    -0.077 N
ATOM     20  H43 UNL     1      33.927   6.012  16.699  1.00  0.00     0.274 HD
ATOM     21  H42 UNL     1      33.563   7.471  17.016  1.00  0.00     0.274 HD
ATOM     22  H41 UNL     1      32.954   6.823  15.569  1.00  0.00     0.274 HD
ENDBRANCH  18  19
ENDBRANCH  17  18
ENDBRANCH  16  17
ENDBRANCH  15  16
ENDBRANCH  14  15
ENDBRANCH  13  14
ENDBRANCH  12  13
ENDBRANCH  11  12
ENDBRANCH   9  11
ENDBRANCH   5   7
BRANCH   1  23
HETATM   23  C8  UNL     1      37.632   9.511   8.225  1.00  0.00     0.012 C
HETATM   24  C7  UNL     1      38.521  10.402   8.604  1.00  0.00     0.014 C
BRANCH  24  25
HETATM   25  C6  UNL     1      39.927  10.082   8.877  1.00  0.00    -0.014 A
HETATM   26  C2  UNL     1      40.505  10.679   9.985  1.00  0.00     0.017 A
HETATM   27  C1  UNL     1      39.711  11.614  10.859  1.00  0.00     0.069 C
HETATM   28  N1  UNL     1      41.771  10.431  10.287  1.00  0.00    -0.346 N
HETATM   29  C3  UNL     1      42.509   9.595   9.518  1.00  0.00     0.098 A
ATOM     30  H1  UNL     1      42.194  10.873  11.104  1.00  0.00     0.167 HD
HETATM   31  N2  UNL     1      43.726   9.374   9.830  1.00  0.00    -0.385 N
HETATM   32  C4  UNL     1      41.972   8.979   8.405  1.00  0.00     0.049 A
ATOM     33  H22 UNL     1      44.123   9.829  10.652  1.00  0.00     0.157 HD
ATOM     34  H21 UNL     1      44.281   8.744   9.251  1.00  0.00     0.157 HD
HETATM   35  C5  UNL     1      40.645   9.227   8.072  1.00  0.00     0.017 A
ENDBRANCH  24  25
ENDBRANCH   1  23
TORSDOF 12
ENDMDL