MODEL 3
REMARK VINA RESULT: -8.611043951      2.344      2.785
REMARK  10 active torsions:
REMARK  status: ('A' for Active; 'I' for Inactive)
REMARK    1  A    between atoms: O1_2  and  C2_3
REMARK    2  A    between atoms: C11_13  and  O3_14
REMARK    3  A    between atoms: O3_14  and  C12_15
REMARK    4  A    between atoms: C12_15  and  C13_16
REMARK    5  A    between atoms: C13_16  and  C14_17
REMARK    6  A    between atoms: C14_17  and  C15_18
REMARK    7  A    between atoms: C15_18  and  C16_19
REMARK    8  A    between atoms: C16_19  and  N1_20
REMARK       I    between atoms: C17_22  and  N3_24
REMARK    9  A    between atoms: N3_24  and  N4_26
REMARK   10  A    between atoms: N4_26  and  C18_28
ROOT
HETATM    1  O3  UNL     1      34.775   8.934   7.037  1.00  0.00    -0.351 OA
ENDROOT
BRANCH   1   2
HETATM    2  C11 UNL     1      35.679   9.145   8.093  1.00  0.00     0.069 A
HETATM    3  C10 UNL     1      36.899   9.740   7.856  1.00  0.00     0.053 A
HETATM    4  C9  UNL     1      37.802   9.953   8.899  1.00  0.00     0.029 A
HETATM    5  C8  UNL     1      39.136  10.544   8.966  1.00  0.00     0.194 A
HETATM    6  C21 UNL     1      37.503   9.576  10.192  1.00  0.00    -0.011 A
HETATM    7  C6  UNL     1      39.629  10.509  10.338  1.00  0.00     0.029 A
HETATM    8  O2  UNL     1      39.761  11.012   7.975  1.00  0.00    -0.287 OA
HETATM    9  C5  UNL     1      38.623   9.916  11.073  1.00  0.00    -0.011 A
HETATM   10  C7  UNL     1      40.803  10.926  10.944  1.00  0.00     0.053 A
HETATM   11  C4  UNL     1      38.854   9.767  12.429  1.00  0.00     0.016 A
HETATM   12  C3  UNL     1      40.014  10.175  13.051  1.00  0.00     0.037 A
HETATM   13  C2  UNL     1      41.011  10.765  12.305  1.00  0.00     0.069 A
HETATM   14  C20 UNL     1      36.281   8.978  10.430  1.00  0.00     0.016 A
HETATM   15  C19 UNL     1      35.394   8.773   9.389  1.00  0.00     0.037 A
BRANCH  13  16
HETATM   16  O1  UNL     1      42.163  11.168  12.934  1.00  0.00    -0.356 OA
HETATM   17  C1  UNL     1      42.252  11.241  14.335  1.00  0.00     0.210 C
ENDBRANCH  13  16
ENDBRANCH   1   2
BRANCH   1  18
HETATM   18  C12 UNL     1      33.449   9.424   7.135  1.00  0.00     0.175 C
BRANCH  18  19
HETATM   19  C13 UNL     1      33.500  10.914   7.188  1.00  0.00     0.027 C
BRANCH  19  20
HETATM   20  C14 UNL     1      33.132  11.482   8.530  1.00  0.00     0.004 C
BRANCH  20  21
HETATM   21  C15 UNL     1      33.856  12.769   8.763  1.00  0.00     0.020 C
BRANCH  21  22
HETATM   22  C16 UNL     1      34.147  12.911  10.238  1.00  0.00     0.122 C
BRANCH  22  23
HETATM   23  N1  UNL     1      32.898  13.187  10.921  1.00  0.00    -0.363 N
HETATM   24  C17 UNL     1      32.529  12.339  11.832  1.00  0.00     0.203 C
HETATM   25  N2  UNL     1      31.324  12.561  12.526  1.00  0.00    -0.062 NA
HETATM   26  N3  UNL     1      33.288  11.188  12.168  1.00  0.00    -0.273 N
ATOM     27  H3  UNL     1      33.148  10.321  11.650  1.00  0.00     0.189 HD
ATOM     28  H1  UNL     1      32.336  14.009  10.697  1.00  0.00     0.162 HD
BRANCH  26  29
HETATM   29  N4  UNL     1      34.217  11.235  13.195  1.00  0.00    -0.294 N
ATOM     30  H4  UNL     1      34.425  12.132  13.634  1.00  0.00     0.187 HD
BRANCH  29  31
HETATM   31  C18 UNL     1      34.888  10.066  13.653  1.00  0.00     0.190 C
HETATM   32  N5  UNL     1      34.889   9.693  14.871  1.00  0.00    -0.394 N
ATOM     33  H52 UNL     1      34.377  10.271  15.538  1.00  0.00     0.156 HD
ATOM     34  H51 UNL     1      35.369   8.856  15.200  1.00  0.00     0.156 HD
ENDBRANCH  29  31
ENDBRANCH  26  29
ENDBRANCH  22  23
ENDBRANCH  21  22
ENDBRANCH  20  21
ENDBRANCH  19  20
ENDBRANCH  18  19
ENDBRANCH   1  18
TORSDOF 10
ENDMDL