MODEL 1
REMARK VINA RESULT: -7.500567105      0.000      0.000
REMARK  13 active torsions:
REMARK  status: ('A' for Active; 'I' for Inactive)
REMARK    1  A    between atoms: C1_4  and  C2_6
REMARK    2  A    between atoms: C5_9  and  C6_10
REMARK    3  A    between atoms: C6_10  and  C7_11
REMARK    4  A    between atoms: C7_11  and  C8_12
REMARK    5  A    between atoms: C8_12  and  C9_13
REMARK    6  A    between atoms: C8_12  and  N4_28
REMARK    7  A    between atoms: C9_13  and  C10_14
REMARK    8  A    between atoms: C13_17  and  O1_18
REMARK    9  A    between atoms: O1_18  and  C14_19
REMARK   10  A    between atoms: C14_19  and  C15_20
REMARK   11  A    between atoms: C15_20  and  C16_21
REMARK   12  A    between atoms: C16_21  and  N3_22
REMARK   13  A    between atoms: C19_30  and  O2_32
ROOT
HETATM    1  C8  UNL     1      33.511  12.276  10.093  1.00  0.00     0.092 C
ENDROOT
BRANCH   1   2
HETATM    2  C7  UNL     1      33.452  12.428   8.613  1.00  0.00     0.053 C
BRANCH   2   3
HETATM    3  C6  UNL     1      33.798  11.279   7.764  1.00  0.00    -0.013 C
BRANCH   3   4
HETATM    4  C5  UNL     1      34.813  10.329   8.133  1.00  0.00    -0.040 A
HETATM    5  C4  UNL     1      34.496   9.212   8.876  1.00  0.00     0.012 A
HETATM    6  C3  UNL     1      35.420   8.276   9.280  1.00  0.00     0.015 A
HETATM    7  C2  UNL     1      36.739   8.420   8.945  1.00  0.00     0.004 A
HETATM    8  C21 UNL     1      37.079   9.546   8.192  1.00  0.00     0.015 A
HETATM    9  C20 UNL     1      36.154  10.482   7.790  1.00  0.00     0.012 A
BRANCH   7  10
HETATM   10  C1  UNL     1      37.784   7.489   9.322  1.00  0.00     0.120 C
HETATM   11  N1  UNL     1      37.596   6.227   9.208  1.00  0.00    -0.387 N
ATOM     12  H12 UNL     1      38.332   5.572   9.473  1.00  0.00     0.157 HD
ATOM     13  H11 UNL     1      36.704   5.886   8.849  1.00  0.00     0.157 HD
HETATM   14  N2  UNL     1      39.014   7.959   9.816  1.00  0.00    -0.082 NA
ENDBRANCH   7  10
ENDBRANCH   3   4
ENDBRANCH   2   3
ENDBRANCH   1   2
BRANCH   1  15
HETATM   15  C9  UNL     1      34.825  12.754  10.680  1.00  0.00     0.064 C
BRANCH  15  16
HETATM   16  C10 UNL     1      35.640  11.720  11.311  1.00  0.00    -0.056 A
HETATM   17  C11 UNL     1      35.025  10.772  12.101  1.00  0.00     0.010 A
HETATM   18  C12 UNL     1      35.793   9.774  12.714  1.00  0.00     0.037 A
HETATM   19  C13 UNL     1      37.148   9.728  12.537  1.00  0.00     0.068 A
HETATM   20  C17 UNL     1      37.755  10.711  11.723  1.00  0.00     0.037 A
HETATM   21  C18 UNL     1      37.011  11.681  11.128  1.00  0.00     0.010 A
BRANCH  19  22
HETATM   22  O1  UNL     1      37.935   8.800  13.100  1.00  0.00    -0.351 OA
BRANCH  22  23
HETATM   23  C14 UNL     1      38.877   8.766  14.086  1.00  0.00     0.177 C
BRANCH  23  24
HETATM   24  C15 UNL     1      38.473   9.568  15.290  1.00  0.00     0.054 C
BRANCH  24  25
HETATM   25  C16 UNL     1      39.252  10.892  15.299  1.00  0.00     0.231 C
BRANCH  25  26
HETATM   26  N3  UNL     1      38.314  11.984  15.100  1.00  0.00    -0.079 N
ATOM     27  H33 UNL     1      37.462  11.871  15.649  1.00  0.00     0.274 HD
ATOM     28  H32 UNL     1      38.636  12.857  15.519  1.00  0.00     0.274 HD
ATOM     29  H31 UNL     1      38.126  12.074  14.102  1.00  0.00     0.274 HD
ENDBRANCH  25  26
ENDBRANCH  24  25
ENDBRANCH  23  24
ENDBRANCH  22  23
ENDBRANCH  19  22
ENDBRANCH  15  16
ENDBRANCH   1  15
BRANCH   1  30
HETATM   30  N4  UNL     1      32.510  13.110  10.710  1.00  0.00    -0.354 N
HETATM   31  C19 UNL     1      31.745  12.856  11.686  1.00  0.00     0.225 C
HETATM   32  N5  UNL     1      30.841  13.921  12.062  1.00  0.00    -0.057 NA
ATOM     33  H4  UNL     1      32.402  14.037  10.300  1.00  0.00     0.163 HD
BRANCH  31  34
HETATM   34  O2  UNL     1      31.643  11.719  12.447  1.00  0.00    -0.335 OA
ATOM     35  H2  UNL     1      31.895  11.569  13.351  1.00  0.00     0.220 HD
ENDBRANCH  31  34
ENDBRANCH   1  30
TORSDOF 13
ENDMDL