MODEL 3
REMARK VINA RESULT: -6.843674199      2.835      5.516
REMARK  11 active torsions:
REMARK  status: ('A' for Active; 'I' for Inactive)
REMARK    1  A    between atoms: O1_2  and  C2_3
REMARK    2  A    between atoms: C5_6  and  C6_7
REMARK    3  A    between atoms: C6_7  and  C7_8
REMARK    4  A    between atoms: C7_8  and  N1_9
REMARK    5  A    between atoms: N1_9  and  C8_12
REMARK    6  A    between atoms: C8_12  and  C9_13
REMARK    7  A    between atoms: C9_13  and  C10_14
REMARK    8  A    between atoms: C9_13  and  N2_22
REMARK    9  A    between atoms: C10_14  and  O2_15
REMARK   10  A    between atoms: O2_15  and  C11_16
REMARK   11  A    between atoms: C18_27  and  C19_28
ROOT
HETATM    1  N1  UNL     1      34.625  10.371  11.650  1.00  0.00    -0.073 N
ATOM      2  H11 UNL     1      33.877   9.695  11.491  1.00  0.00     0.277 HD
ATOM      3  H12 UNL     1      34.788  10.642  10.680  1.00  0.00     0.277 HD
ENDROOT
BRANCH   1   4
HETATM    4  C7  UNL     1      35.793   9.757  12.248  1.00  0.00     0.237 C
BRANCH   4   5
HETATM    5  C6  UNL     1      37.049  10.123  11.524  1.00  0.00     0.067 C
BRANCH   5   6
HETATM    6  C5  UNL     1      37.524   8.988  10.728  1.00  0.00    -0.039 A
HETATM    7  C4  UNL     1      36.936   7.740  10.952  1.00  0.00     0.011 A
HETATM    8  C3  UNL     1      37.347   6.619  10.271  1.00  0.00     0.037 A
HETATM    9  C2  UNL     1      38.361   6.688   9.336  1.00  0.00     0.069 A
HETATM   10  C20 UNL     1      38.916   7.928   9.139  1.00  0.00     0.055 A
HETATM   11  C18 UNL     1      38.516   9.086   9.819  1.00  0.00     0.049 A
BRANCH   9  12
HETATM   12  O1  UNL     1      38.766   5.549   8.655  1.00  0.00    -0.356 OA
HETATM   13  C1  UNL     1      40.105   5.494   8.201  1.00  0.00     0.210 C
ENDBRANCH   9  12
BRANCH  11  14
HETATM   14  C19 UNL     1      39.162  10.320   9.468  1.00  0.00     0.210 C
HETATM   15  O3  UNL     1      39.004  10.725   8.250  1.00  0.00    -0.644 OA
HETATM   16  O4  UNL     1      39.929  11.143  10.239  1.00  0.00    -0.644 OA
ENDBRANCH  11  14
ENDBRANCH   5   6
ENDBRANCH   4   5
ENDBRANCH   1   4
BRANCH   1  17
HETATM   17  C8  UNL     1      34.189  11.475  12.451  1.00  0.00     0.259 C
BRANCH  17  18
HETATM   18  C9  UNL     1      33.890  12.687  11.604  1.00  0.00     0.133 C
BRANCH  18  19
HETATM   19  C10 UNL     1      34.653  12.638  10.326  1.00  0.00     0.202 C
BRANCH  19  20
HETATM   20  O2  UNL     1      33.792  12.349   9.222  1.00  0.00    -0.349 OA
BRANCH  20  21
HETATM   21  C11 UNL     1      34.118  11.338   8.351  1.00  0.00     0.068 A
HETATM   22  C12 UNL     1      33.247  10.782   7.434  1.00  0.00     0.037 A
HETATM   23  C13 UNL     1      33.617   9.770   6.579  1.00  0.00     0.003 A
HETATM   24  C14 UNL     1      34.905   9.260   6.608  1.00  0.00     0.000 A
HETATM   25  C15 UNL     1      35.784   9.808   7.519  1.00  0.00     0.003 A
HETATM   26  C16 UNL     1      35.411  10.819   8.373  1.00  0.00     0.037 A
ENDBRANCH  20  21
ENDBRANCH  19  20
ENDBRANCH  18  19
BRANCH  18  27
HETATM   27  N2  UNL     1      32.507  12.912  11.453  1.00  0.00    -0.359 N
HETATM   28  C17 UNL     1      31.588  13.373  12.139  1.00  0.00     0.197 C
HETATM   29  N3  UNL     1      30.262  13.422  11.574  1.00  0.00    -0.067 NA
HETATM   30  N4  UNL     1      31.733  13.862  13.446  1.00  0.00    -0.067 NA
ATOM     31  H2  UNL     1      32.177  12.615  10.535  1.00  0.00     0.162 HD
ENDBRANCH  18  27
ENDBRANCH  17  18
ENDBRANCH   1  17
TORSDOF 11
ENDMDL