MODEL 4
REMARK VINA RESULT: -7.664287530      1.876      3.258
REMARK  13 active torsions:
REMARK  status: ('A' for Active; 'I' for Inactive)
REMARK    1  A    between atoms: O1_2  and  N1_3
REMARK    2  A    between atoms: N1_3  and  O2_4
REMARK    3  A    between atoms: N1_3  and  N2_6
REMARK       I    between atoms: N2_6  and  C2_8
REMARK    4  A    between atoms: N4_10  and  C3_12
REMARK    5  A    between atoms: C3_12  and  C4_13
REMARK    6  A    between atoms: C4_13  and  C5_14
REMARK    7  A    between atoms: C5_14  and  C6_15
REMARK    8  A    between atoms: C6_15  and  C7_16
REMARK    9  A    between atoms: C7_16  and  O3_17
REMARK   10  A    between atoms: O3_17  and  C8_18
REMARK   11  A    between atoms: C11_21  and  C12_22
REMARK   12  A    between atoms: C12_22  and  N5_23
REMARK   13  A    between atoms: N5_23  and  C13_25
ROOT
HETATM    1  O3  UNL     1      34.454   9.447   9.403  1.00  0.00    -0.351 OA
ENDROOT
BRANCH   1   2
HETATM    2  C7  UNL     1      33.628   9.515   8.305  1.00  0.00     0.175 C
BRANCH   2   3
HETATM    3  C6  UNL     1      33.881  10.772   7.517  1.00  0.00     0.027 C
BRANCH   3   4
HETATM    4  C5  UNL     1      33.111  11.899   8.204  1.00  0.00     0.004 C
BRANCH   4   5
HETATM    5  C4  UNL     1      33.992  13.017   8.677  1.00  0.00     0.020 C
BRANCH   5   6
HETATM    6  C3  UNL     1      34.270  12.901  10.163  1.00  0.00     0.122 C
BRANCH   6   7
HETATM    7  N4  UNL     1      33.007  13.020  10.857  1.00  0.00    -0.364 N
HETATM    8  C2  UNL     1      32.687  12.138  11.727  1.00  0.00     0.202 C
HETATM    9  N2  UNL     1      33.578  11.068  11.989  1.00  0.00    -0.245 N
HETATM   10  N3  UNL     1      31.450  12.267  12.399  1.00  0.00    -0.062 NA
ATOM     11  H2  UNL     1      33.656  10.296  11.327  1.00  0.00     0.188 HD
ATOM     12  H4  UNL     1      32.379  13.798  10.655  1.00  0.00     0.162 HD
BRANCH   9  13
HETATM   13  N1  UNL     1      34.354  11.069  13.159  1.00  0.00     0.037 NA
BRANCH  13  14
HETATM   14  O1  UNL     1      35.656  11.212  12.878  1.00  0.00    -0.266 OA
HETATM   15  C1  UNL     1      36.473  10.279  13.495  1.00  0.00     0.234 C
ENDBRANCH  13  14
BRANCH  13  16
HETATM   16  O2  UNL     1      34.202   9.894  13.834  1.00  0.00    -0.270 OA
ATOM     17  H2  UNL     1      33.387   9.943  14.320  1.00  0.00     0.241 HD
ENDBRANCH  13  16
ENDBRANCH   9  13
ENDBRANCH   6   7
ENDBRANCH   5   6
ENDBRANCH   4   5
ENDBRANCH   3   4
ENDBRANCH   2   3
ENDBRANCH   1   2
BRANCH   1  18
HETATM   18  C8  UNL     1      35.766   9.197   9.459  1.00  0.00     0.068 A
HETATM   19  C9  UNL     1      36.163   7.868   9.221  1.00  0.00     0.037 A
HETATM   20  C10 UNL     1      37.479   7.481   9.246  1.00  0.00     0.011 A
HETATM   21  C11 UNL     1      38.492   8.377   9.506  1.00  0.00    -0.040 A
HETATM   22  C18 UNL     1      38.109   9.677   9.738  1.00  0.00     0.011 A
HETATM   23  C19 UNL     1      36.769  10.089   9.716  1.00  0.00     0.037 A
BRANCH  21  24
HETATM   24  C12 UNL     1      39.923   7.956   9.532  1.00  0.00     0.158 C
BRANCH  24  25
HETATM   25  N5  UNL     1      40.545   8.432   8.329  1.00  0.00    -0.386 N
ATOM     26  H5  UNL     1      40.268   8.004   7.445  1.00  0.00     0.160 HD
BRANCH  25  27
HETATM   27  C13 UNL     1      41.432   9.366   8.296  1.00  0.00     0.030 A
HETATM   28  C14 UNL     1      41.067  10.638   7.915  1.00  0.00     0.046 A
HETATM   29  C15 UNL     1      41.991  11.678   7.865  1.00  0.00     0.089 A
HETATM   30  N6  UNL     1      43.279  11.476   8.189  1.00  0.00    -0.375 N
HETATM   31  C16 UNL     1      43.639  10.237   8.563  1.00  0.00     0.089 A
ATOM     32  H6  UNL     1      43.959  12.236   8.153  1.00  0.00     0.164 HD
HETATM   33  C17 UNL     1      42.755   9.168   8.627  1.00  0.00     0.046 A
ENDBRANCH  25  27
ENDBRANCH  24  25
ENDBRANCH  21  24
ENDBRANCH   1  18
TORSDOF 13
ENDMDL