MODEL 3
REMARK VINA RESULT: -7.033004087      3.969      8.833
REMARK  11 active torsions:
REMARK  status: ('A' for Active; 'I' for Inactive)
REMARK    1  A    between atoms: C2_2  and  C3_3
REMARK    2  A    between atoms: C3_3  and  O1_4
REMARK    3  A    between atoms: O1_4  and  C4_5
REMARK    4  A    between atoms: C7_8  and  N1_9
REMARK       I    between atoms: N1_9  and  C8_11
REMARK       I    between atoms: C8_11  and  N2_13
REMARK    5  A    between atoms: N2_13  and  C9_15
REMARK    6  A    between atoms: C9_15  and  C10_16
REMARK    7  A    between atoms: C10_16  and  S1_17
REMARK    8  A    between atoms: S1_17  and  N3_20
REMARK    9  A    between atoms: N3_20  and  C11_22
REMARK   10  A    between atoms: C11_22  and  C12_23
REMARK   11  A    between atoms: C12_23  and  C13_24
ROOT
HETATM    1  N1  UNL     1      37.354   9.970   8.092  1.00  0.00    -0.309 N
ATOM      2  H1  UNL     1      37.346  10.163   7.090  1.00  0.00     0.170 HD
HETATM    3  C8  UNL     1      36.132  10.012   8.785  1.00  0.00     0.320 C
HETATM    4  O2  UNL     1      36.070   9.805   9.999  1.00  0.00    -0.247 OA
HETATM    5  N2  UNL     1      34.952  10.311   8.005  1.00  0.00    -0.342 N
ATOM      6  H2  UNL     1      35.020  10.487   7.003  1.00  0.00     0.164 HD
ENDROOT
BRANCH   5   7
HETATM    7  C9  UNL     1      33.683  10.356   8.672  1.00  0.00     0.141 C
BRANCH   7   8
HETATM    8  C10 UNL     1      33.234  11.766   8.887  1.00  0.00     0.182 C
BRANCH   8   9
HETATM    9  S1  UNL     1      33.473  12.263  10.579  1.00  0.00     0.228 S
HETATM   10  O3  UNL     1      34.457  13.390  10.684  1.00  0.00    -0.206 OA
HETATM   11  O4  UNL     1      32.151  12.762  11.092  1.00  0.00    -0.206 OA
BRANCH   9  12
HETATM   12  N3  UNL     1      33.952  10.938  11.561  1.00  0.00    -0.319 N
ATOM     13  H3  UNL     1      33.980   9.970  11.242  1.00  0.00     0.172 HD
BRANCH  12  14
HETATM   14  C11 UNL     1      34.314  11.366  12.901  1.00  0.00     0.138 C
BRANCH  14  15
HETATM   15  C12 UNL     1      35.666  10.825  13.308  1.00  0.00     0.078 C
BRANCH  15  16
HETATM   16  C13 UNL     1      35.435   9.602  14.118  1.00  0.00     0.027 A
HETATM   17  C14 UNL     1      35.819   8.293  13.810  1.00  0.00     0.114 A
HETATM   18  N4  UNL     1      35.414   7.503  14.809  1.00  0.00    -0.360 N
HETATM   19  C15 UNL     1      34.791   8.249  15.741  1.00  0.00     0.180 A
ATOM     20  H4  UNL     1      35.555   6.494  14.858  1.00  0.00     0.166 HD
HETATM   21  N5  UNL     1      34.814   9.503  15.307  1.00  0.00    -0.355 N
ATOM     22  H5  UNL     1      34.411  10.293  15.812  1.00  0.00     0.166 HD
ENDBRANCH  15  16
ENDBRANCH  14  15
ENDBRANCH  12  14
ENDBRANCH   9  12
ENDBRANCH   8   9
ENDBRANCH   7   8
ENDBRANCH   5   7
BRANCH   1  23
HETATM   23  C7  UNL     1      38.586   9.677   8.699  1.00  0.00     0.036 A
HETATM   24  C6  UNL     1      39.047   8.429   8.982  1.00  0.00     0.032 A
HETATM   25  C5  UNL     1      40.266   8.255   9.604  1.00  0.00     0.039 A
HETATM   26  C4  UNL     1      41.088   9.292   9.977  1.00  0.00     0.069 A
HETATM   27  C17 UNL     1      40.610  10.556   9.685  1.00  0.00     0.039 A
HETATM   28  C16 UNL     1      39.405  10.760   9.068  1.00  0.00     0.032 A
BRANCH  26  29
HETATM   29  O1  UNL     1      42.305   9.090  10.600  1.00  0.00    -0.348 OA
BRANCH  29  30
HETATM   30  C3  UNL     1      43.468   9.082   9.794  1.00  0.00     0.202 C
BRANCH  30  31
HETATM   31  C2  UNL     1      44.359   7.955  10.171  1.00  0.00    -0.011 C
HETATM   32  C1  UNL     1      44.056   6.730   9.764  1.00  0.00     0.009 C
ENDBRANCH  30  31
ENDBRANCH  29  30
ENDBRANCH  26  29
ENDBRANCH   1  23
TORSDOF 11
ENDMDL