MODEL 2
REMARK VINA RESULT: -7.534638350      3.584      6.433
REMARK  11 active torsions:
REMARK  status: ('A' for Active; 'I' for Inactive)
REMARK    1  A    between atoms: C1_2  and  C2_7
REMARK    2  A    between atoms: N2_3  and  O1_5
REMARK    3  A    between atoms: C5_10  and  C6_11
REMARK    4  A    between atoms: C6_11  and  C7_12
REMARK    5  A    between atoms: C7_12  and  N3_13
REMARK    6  A    between atoms: N3_13  and  C8_16
REMARK    7  A    between atoms: C8_16  and  C9_17
REMARK    8  A    between atoms: C9_17  and  N4_18
REMARK    9  A    between atoms: N4_18  and  S1_20
REMARK   10  A    between atoms: S1_20  and  C10_23
REMARK   11  A    between atoms: C10_23  and  C11_24
ROOT
HETATM    1  N3  UNL     1      35.465   8.978  12.701  1.00  0.00    -0.070 N
ATOM      2  H31 UNL     1      35.101   8.059  12.957  1.00  0.00     0.277 HD
ATOM      3  H32 UNL     1      34.966   9.124  11.824  1.00  0.00     0.277 HD
ENDROOT
BRANCH   1   4
HETATM    4  C7  UNL     1      36.867   8.912  12.470  1.00  0.00     0.237 C
BRANCH   4   5
HETATM    5  C6  UNL     1      37.152   8.247  11.154  1.00  0.00     0.066 C
BRANCH   5   6
HETATM    6  C5  UNL     1      38.158   9.014  10.403  1.00  0.00    -0.057 A
HETATM    7  C4  UNL     1      38.425  10.343  10.636  1.00  0.00     0.008 A
HETATM    8  C3  UNL     1      39.388  11.058   9.912  1.00  0.00     0.015 A
HETATM    9  C2  UNL     1      40.132  10.472   8.917  1.00  0.00     0.007 A
HETATM   10  C18 UNL     1      39.848   9.122   8.694  1.00  0.00     0.015 A
HETATM   11  C17 UNL     1      38.906   8.415   9.398  1.00  0.00     0.008 A
BRANCH   9  12
HETATM   12  C1  UNL     1      41.142  11.115   8.117  1.00  0.00     0.146 C
HETATM   13  N1  UNL     1      40.763  11.517   6.766  1.00  0.00    -0.080 NA
HETATM   14  N2  UNL     1      42.319  11.363   8.471  1.00  0.00    -0.255 N
ATOM     15  H2  UNL     1      42.871  11.824   7.749  1.00  0.00     0.195 HD
BRANCH  14  16
HETATM   16  O1  UNL     1      42.995  11.146   9.599  1.00  0.00    -0.288 OA
ATOM     17  H1  UNL     1      43.919  11.027   9.790  1.00  0.00     0.244 HD
ENDBRANCH  14  16
ENDBRANCH   9  12
ENDBRANCH   5   6
ENDBRANCH   4   5
ENDBRANCH   1   4
BRANCH   1  18
HETATM   18  C8  UNL     1      35.068   9.972  13.684  1.00  0.00     0.277 C
BRANCH  18  19
HETATM   19  C9  UNL     1      34.594  11.253  13.006  1.00  0.00     0.100 C
BRANCH  19  20
HETATM   20  N4  UNL     1      33.883  11.014  11.822  1.00  0.00    -0.294 N
ATOM     21  H4  UNL     1      33.553  10.073  11.609  1.00  0.00     0.177 HD
BRANCH  20  22
HETATM   22  S1  UNL     1      33.572  12.270  10.751  1.00  0.00     0.253 S
HETATM   23  O2  UNL     1      34.618  13.383  10.865  1.00  0.00    -0.201 OA
HETATM   24  O3  UNL     1      32.323  12.991  11.319  1.00  0.00    -0.201 OA
BRANCH  22  25
HETATM   25  C10 UNL     1      33.189  11.893   9.122  1.00  0.00     0.143 C
BRANCH  25  26
HETATM   26  C11 UNL     1      33.929  10.947   8.342  1.00  0.00    -0.024 A
HETATM   27  C12 UNL     1      35.318  10.829   8.443  1.00  0.00     0.012 A
HETATM   28  C13 UNL     1      36.043   9.958   7.649  1.00  0.00     0.001 A
HETATM   29  C14 UNL     1      35.407   9.167   6.717  1.00  0.00     0.000 A
HETATM   30  C15 UNL     1      34.038   9.264   6.598  1.00  0.00     0.001 A
HETATM   31  C16 UNL     1      33.319  10.146   7.405  1.00  0.00     0.012 A
ENDBRANCH  25  26
ENDBRANCH  22  25
ENDBRANCH  20  22
ENDBRANCH  19  20
ENDBRANCH  18  19
ENDBRANCH   1  18
TORSDOF 11
ENDMDL