MODEL 2
REMARK VINA RESULT: -7.531831197      2.533      5.655
REMARK  12 active torsions:
REMARK  status: ('A' for Active; 'I' for Inactive)
REMARK    1  A    between atoms: C1_4  and  C2_6
REMARK    2  A    between atoms: C2_6  and  C3_7
REMARK    3  A    between atoms: C3_7  and  C4_8
REMARK    4  A    between atoms: C3_7  and  O1_15
REMARK    5  A    between atoms: C4_8  and  C5_9
REMARK    6  A    between atoms: O1_15  and  C11_16
REMARK    7  A    between atoms: C11_16  and  C12_17
REMARK    8  A    between atoms: C12_17  and  O2_18
REMARK    9  A    between atoms: C12_17  and  C13_20
REMARK   10  A    between atoms: C13_20  and  N3_21
REMARK   11  A    between atoms: N3_21  and  S1_23
REMARK   12  A    between atoms: S1_23  and  C14_26
ROOT
HETATM    1  C11 UNL     1      36.710  10.087  12.296  1.00  0.00     0.201 C
ENDROOT
BRANCH   1   2
HETATM    2  O1  UNL     1      37.501  11.137  12.699  1.00  0.00    -0.383 OA
BRANCH   2   3
HETATM    3  C3  UNL     1      38.875  10.917  12.474  1.00  0.00     0.132 C
BRANCH   3   4
HETATM    4  C2  UNL     1      39.471  10.471  13.745  1.00  0.00     0.104 C
BRANCH   4   5
HETATM    5  C1  UNL     1      38.784  10.838  14.982  1.00  0.00     0.089 C
HETATM    6  N1  UNL     1      38.405  12.011  15.321  1.00  0.00    -0.391 N
ATOM      7  H12 UNL     1      37.926  12.267  16.184  1.00  0.00     0.157 HD
ATOM      8  H11 UNL     1      38.592  12.771  14.668  1.00  0.00     0.157 HD
HETATM    9  N2  UNL     1      38.521   9.764  15.904  1.00  0.00    -0.088 NA
ENDBRANCH   4   5
ENDBRANCH   3   4
BRANCH   3  10
HETATM   10  C4  UNL     1      38.986  10.029  11.293  1.00  0.00     0.070 C
BRANCH  10  11
HETATM   11  C5  UNL     1      39.831  10.524  10.191  1.00  0.00    -0.056 A
HETATM   12  C6  UNL     1      41.050  11.066  10.474  1.00  0.00     0.007 A
HETATM   13  C7  UNL     1      41.886  11.557   9.466  1.00  0.00     0.001 A
HETATM   14  C8  UNL     1      41.419  11.467   8.173  1.00  0.00     0.000 A
HETATM   15  C9  UNL     1      40.199  10.926   7.885  1.00  0.00     0.001 A
HETATM   16  C10 UNL     1      39.403  10.453   8.891  1.00  0.00     0.007 A
ENDBRANCH  10  11
ENDBRANCH   3  10
ENDBRANCH   2   3
ENDBRANCH   1   2
BRANCH   1  17
HETATM   17  C12 UNL     1      35.423  10.092  13.063  1.00  0.00     0.160 C
BRANCH  17  18
HETATM   18  O2  UNL     1      35.696  10.319  14.422  1.00  0.00    -0.392 OA
ATOM     19  H2  UNL     1      35.769   9.485  14.869  1.00  0.00     0.210 HD
ENDBRANCH  17  18
BRANCH  17  20
HETATM   20  C13 UNL     1      34.512  11.204  12.570  1.00  0.00     0.166 C
BRANCH  20  21
HETATM   21  N3  UNL     1      35.113  11.873  11.426  1.00  0.00    -0.313 N
ATOM     22  H3  UNL     1      36.075  12.207  11.385  1.00  0.00     0.172 HD
BRANCH  21  23
HETATM   23  S1  UNL     1      33.967  12.019  10.152  1.00  0.00     0.258 S
HETATM   24  O3  UNL     1      33.982  13.469   9.709  1.00  0.00    -0.201 OA
HETATM   25  O4  UNL     1      32.597  11.650  10.641  1.00  0.00    -0.201 OA
BRANCH  23  26
HETATM   26  C14 UNL     1      34.383  10.982   8.831  1.00  0.00     0.079 A
HETATM   27  C15 UNL     1      35.605  10.343   8.788  1.00  0.00     0.025 A
HETATM   28  C16 UNL     1      35.944   9.514   7.738  1.00  0.00     0.002 A
HETATM   29  C17 UNL     1      35.047   9.314   6.704  1.00  0.00     0.000 A
HETATM   30  C18 UNL     1      33.830   9.942   6.735  1.00  0.00     0.002 A
HETATM   31  C19 UNL     1      33.509  10.764   7.787  1.00  0.00     0.025 A
ENDBRANCH  23  26
ENDBRANCH  21  23
ENDBRANCH  20  21
ENDBRANCH  17  20
ENDBRANCH   1  17
TORSDOF 12
ENDMDL