MODEL 2
REMARK VINA RESULT: -7.024394143      1.414      1.803
REMARK  11 active torsions:
REMARK  status: ('A' for Active; 'I' for Inactive)
REMARK    1  A    between atoms: O1_2  and  C2_3
REMARK    2  A    between atoms: C2_3  and  C3_4
REMARK    3  A    between atoms: C3_4  and  S1_5
REMARK    4  A    between atoms: S1_5  and  N1_8
REMARK    5  A    between atoms: N1_8  and  C4_10
REMARK    6  A    between atoms: C8_14  and  C9_15
REMARK    7  A    between atoms: C9_15  and  C10_16
REMARK    8  A    between atoms: C10_16  and  N2_17
REMARK    9  A    between atoms: N2_17  and  C11_20
REMARK   10  A    between atoms: C11_20  and  C12_21
REMARK   11  A    between atoms: C16_25  and  C17_26
ROOT
HETATM    1  C9  UNL     1      33.307  11.976  10.444  1.00  0.00     0.066 C
ENDROOT
BRANCH   1   2
HETATM    2  C8  UNL     1      34.419  11.568  11.349  1.00  0.00    -0.054 A
HETATM    3  C7  UNL     1      35.725  11.852  10.983  1.00  0.00     0.007 A
HETATM    4  C6  UNL     1      36.767  11.482  11.808  1.00  0.00     0.003 A
HETATM    5  C5  UNL     1      36.539  10.826  13.006  1.00  0.00     0.030 A
HETATM    6  C4  UNL     1      35.240  10.533  13.389  1.00  0.00     0.042 A
HETATM    7  C19 UNL     1      34.222  10.917  12.542  1.00  0.00     0.037 A
BRANCH   6   8
HETATM    8  N1  UNL     1      34.972   9.862  14.612  1.00  0.00    -0.285 N
ATOM      9  H1  UNL     1      34.496  10.378  15.352  1.00  0.00     0.178 HD
BRANCH   8  10
HETATM   10  S1  UNL     1      35.404   8.235  14.912  1.00  0.00     0.232 S
HETATM   11  O2  UNL     1      34.257   7.466  15.486  1.00  0.00    -0.206 OA
HETATM   12  O3  UNL     1      35.876   7.511  13.697  1.00  0.00    -0.206 OA
BRANCH  10  13
HETATM   13  C3  UNL     1      36.698   8.236  16.138  1.00  0.00     0.189 C
BRANCH  13  14
HETATM   14  C2  UNL     1      36.124   8.295  17.538  1.00  0.00     0.183 C
BRANCH  14  15
HETATM   15  O1  UNL     1      35.710   9.574  17.856  1.00  0.00    -0.395 OA
HETATM   16  C1  UNL     1      34.440   9.522  18.426  1.00  0.00     0.201 C
ENDBRANCH  14  15
ENDBRANCH  13  14
ENDBRANCH  10  13
ENDBRANCH   8  10
ENDBRANCH   6   8
ENDBRANCH   1   2
BRANCH   1  17
HETATM   17  C10 UNL     1      33.715  11.871   8.990  1.00  0.00     0.237 C
BRANCH  17  18
HETATM   18  N2  UNL     1      33.487  10.514   8.561  1.00  0.00    -0.071 N
ATOM     19  H22 UNL     1      33.408   9.881   9.357  1.00  0.00     0.277 HD
ATOM     20  H21 UNL     1      32.551  10.398   8.172  1.00  0.00     0.277 HD
BRANCH  18  21
HETATM   21  C11 UNL     1      34.508  10.066   7.627  1.00  0.00     0.270 C
BRANCH  21  22
HETATM   22  C12 UNL     1      35.639   9.519   8.407  1.00  0.00    -0.032 A
HETATM   23  C13 UNL     1      35.431   8.556   9.345  1.00  0.00     0.009 A
HETATM   24  C14 UNL     1      36.479   8.019  10.098  1.00  0.00     0.002 A
HETATM   25  C15 UNL     1      37.728   8.516   9.841  1.00  0.00     0.015 A
HETATM   26  C16 UNL     1      37.972   9.495   8.893  1.00  0.00     0.005 A
HETATM   27  C18 UNL     1      36.913   9.993   8.176  1.00  0.00     0.023 A
BRANCH  26  28
HETATM   28  C17 UNL     1      39.335   9.954   8.696  1.00  0.00     0.120 C
HETATM   29  N3  UNL     1      39.852  10.958   9.277  1.00  0.00    -0.387 N
ATOM     30  H32 UNL     1      39.246  11.463   9.924  1.00  0.00     0.157 HD
ATOM     31  H31 UNL     1      40.810  11.280   9.139  1.00  0.00     0.157 HD
HETATM   32  N4  UNL     1      40.194   9.240   7.781  1.00  0.00    -0.082 NA
ENDBRANCH  26  28
ENDBRANCH  21  22
ENDBRANCH  18  21
ENDBRANCH  17  18
ENDBRANCH   1  17
TORSDOF 11
ENDMDL