MODEL 2
REMARK VINA RESULT: -7.524704862      5.735      9.582
REMARK  11 active torsions:
REMARK  status: ('A' for Active; 'I' for Inactive)
REMARK    1  A    between atoms: C2_2  and  C3_3
REMARK    2  A    between atoms: C3_3  and  N1_4
REMARK    3  A    between atoms: N1_4  and  C4_5
REMARK    4  A    between atoms: N1_4  and  C22_29
REMARK    5  A    between atoms: C7_8  and  C8_9
REMARK    6  A    between atoms: C8_9  and  N3_21
REMARK    7  A    between atoms: N2_10  and  O1_12
REMARK    8  A    between atoms: O1_12  and  C9_13
REMARK    9  A    between atoms: C9_13  and  C11_15
REMARK   10  A    between atoms: C11_15  and  C12_17
REMARK   11  A    between atoms: N3_21  and  C16_23
ROOT
HETATM    1  C8  UNL     1       4.087  28.233  19.840  1.00  0.00     0.132 C
HETATM    2  N2  UNL     1       2.866  28.244  19.926  1.00  0.00    -0.249 N
ATOM      3  H2  UNL     1       2.524  27.399  20.384  1.00  0.00     0.196 HD
ENDROOT
BRANCH   1   4
HETATM    4  C7  UNL     1       4.787  27.020  20.413  1.00  0.00     0.009 A
HETATM    5  C6  UNL     1       5.814  26.413  19.756  1.00  0.00     0.017 A
HETATM    6  C5  UNL     1       6.422  25.312  20.325  1.00  0.00     0.030 A
HETATM    7  C4  UNL     1       6.029  24.799  21.538  1.00  0.00     0.030 A
HETATM    8  C21 UNL     1       4.993  25.427  22.180  1.00  0.00     0.030 A
HETATM    9  C20 UNL     1       4.364  26.551  21.612  1.00  0.00     0.017 A
BRANCH   7  10
HETATM   10  N1  UNL     1       6.626  23.618  22.126  1.00  0.00    -0.374 N
BRANCH  10  11
HETATM   11  C3  UNL     1       7.733  23.084  21.381  1.00  0.00     0.123 C
BRANCH  11  12
HETATM   12  C2  UNL     1       7.519  21.744  20.747  1.00  0.00     0.015 C
HETATM   13  C1  UNL     1       7.211  21.952  19.252  1.00  0.00     0.006 C
ENDBRANCH  11  12
ENDBRANCH  10  11
BRANCH  10  14
HETATM   14  C22 UNL     1       6.089  23.167  23.346  1.00  0.00     0.110 C
HETATM   15  C23 UNL     1       7.111  22.991  24.478  1.00  0.00     0.053 C
HETATM   16  C24 UNL     1       6.123  22.810  25.642  1.00  0.00     0.169 C
HETATM   17  O3  UNL     1       4.914  23.369  25.256  1.00  0.00    -0.389 OA
HETATM   18  C25 UNL     1       5.175  24.122  24.097  1.00  0.00     0.193 C
ENDBRANCH  10  14
ENDBRANCH   7  10
ENDBRANCH   1   4
BRANCH   1  19
HETATM   19  N3  UNL     1       4.937  29.208  19.304  1.00  0.00    -0.366 N
ATOM     20  H3  UNL     1       5.423  28.904  18.460  1.00  0.00     0.162 HD
BRANCH  19  21
HETATM   21  C16 UNL     1       5.259  30.524  19.694  1.00  0.00     0.021 C
HETATM   22  C17 UNL     1       4.770  31.022  21.006  1.00  0.00     0.037 C
HETATM   23  C18 UNL     1       6.803  30.655  19.709  1.00  0.00     0.037 C
HETATM   24  C19 UNL     1       4.837  31.552  18.638  1.00  0.00     0.037 C
ENDBRANCH  19  21
ENDBRANCH   1  19
BRANCH   2  25
HETATM   25  O1  UNL     1       1.866  29.037  19.593  1.00  0.00    -0.266 OA
BRANCH  25  26
HETATM   26  C9  UNL     1       0.764  29.472  20.346  1.00  0.00     0.218 C
HETATM   27  C10 UNL     1       0.810  28.775  21.691  1.00  0.00     0.050 C
BRANCH  26  28
HETATM   28  C11 UNL     1      -0.535  29.150  19.653  1.00  0.00     0.162 C
HETATM   29  O2  UNL     1      -1.473  28.852  20.368  1.00  0.00    -0.295 OA
BRANCH  28  30
HETATM   30  C12 UNL     1      -0.662  29.192  18.190  1.00  0.00     0.062 A
HETATM   31  C13 UNL     1      -0.254  30.423  17.461  1.00  0.00     0.017 A
HETATM   32  C14 UNL     1      -1.716  29.943  17.483  1.00  0.00    -0.007 A
HETATM   33  C15 UNL     1      -2.736  30.778  18.198  1.00  0.00     0.011 C
ENDBRANCH  28  30
ENDBRANCH  26  28
ENDBRANCH  25  26
ENDBRANCH   2  25
TORSDOF 11
ENDMDL