MODEL 3
REMARK VINA RESULT: -7.581961605      4.835      8.326
REMARK  10 active torsions:
REMARK  status: ('A' for Active; 'I' for Inactive)
REMARK    1  A    between atoms: C2_2  and  C3_3
REMARK    2  A    between atoms: C3_3  and  C4_4
REMARK    3  A    between atoms: C4_4  and  C5_5
REMARK    4  A    between atoms: C5_5  and  C6_6
REMARK       I    between atoms: C6_6  and  N1_8
REMARK    5  A    between atoms: N1_8  and  C7_10
REMARK    6  A    between atoms: C7_10  and  C8_11
REMARK    7  A    between atoms: C8_11  and  S1_12
REMARK    8  A    between atoms: S1_12  and  C9_13
REMARK    9  A    between atoms: C10_14  and  S2_15
REMARK   10  A    between atoms: S2_15  and  C11_16
ROOT
HETATM    1  C9  UNL     1       5.851  25.013  21.291  1.00  0.00     0.064 A
HETATM    2  C10 UNL     1       4.600  25.338  21.679  1.00  0.00     0.004 A
HETATM    3  C15 UNL     1       4.042  24.928  22.949  1.00  0.00     0.093 A
HETATM    4  C16 UNL     1       4.876  24.075  23.817  1.00  0.00     0.036 A
HETATM    5  C17 UNL     1       6.130  23.735  23.457  1.00  0.00     0.030 A
HETATM    6  C18 UNL     1       6.913  22.956  24.261  1.00  0.00     0.048 A
HETATM    7  C19 UNL     1       6.381  22.522  25.464  1.00  0.00     0.054 A
HETATM    8  C20 UNL     1       7.253  21.675  26.319  1.00  0.00     0.077 C
HETATM    9  O2  UNL     1       5.162  22.871  25.781  1.00  0.00    -0.280 OA
HETATM   10  C21 UNL     1       4.387  23.612  25.040  1.00  0.00     0.295 A
HETATM   11  O3  UNL     1       3.215  23.943  25.353  1.00  0.00    -0.259 OA
HETATM   12  C22 UNL     1       6.676  24.198  22.161  1.00  0.00     0.200 A
HETATM   13  O4  UNL     1       7.850  23.854  21.884  1.00  0.00    -0.286 OA
ENDROOT
BRANCH   1  14
HETATM   14  S1  UNL     1       6.452  25.539  19.726  1.00  0.00    -0.123 SA
BRANCH  14  15
HETATM   15  C8  UNL     1       6.154  24.386  18.399  1.00  0.00     0.099 C
BRANCH  15  16
HETATM   16  C7  UNL     1       7.362  23.543  18.147  1.00  0.00     0.133 C
BRANCH  16  17
HETATM   17  N1  UNL     1       7.672  22.735  19.292  1.00  0.00    -0.360 N
HETATM   18  C6  UNL     1       7.297  21.414  19.467  1.00  0.00     0.217 C
HETATM   19  O1  UNL     1       6.640  20.738  18.658  1.00  0.00    -0.274 OA
ATOM     20  H1  UNL     1       8.212  23.170  20.039  1.00  0.00     0.162 HD
BRANCH  18  21
HETATM   21  C5  UNL     1       7.706  20.703  20.739  1.00  0.00     0.103 C
BRANCH  21  22
HETATM   22  C4  UNL     1       7.154  19.306  20.795  1.00  0.00     0.009 C
BRANCH  22  23
HETATM   23  C3  UNL     1       7.173  18.751  22.180  1.00  0.00     0.000 C
BRANCH  23  24
HETATM   24  C2  UNL     1       6.226  17.571  22.339  1.00  0.00    -0.005 C
HETATM   25  C1  UNL     1       6.060  17.249  23.822  1.00  0.00     0.005 C
ENDBRANCH  23  24
ENDBRANCH  22  23
ENDBRANCH  21  22
ENDBRANCH  18  21
ENDBRANCH  16  17
ENDBRANCH  15  16
ENDBRANCH  14  15
ENDBRANCH   1  14
BRANCH   2  26
HETATM   26  S2  UNL     1       3.678  26.307  20.493  1.00  0.00    -0.124 SA
BRANCH  26  27
HETATM   27  C11 UNL     1       3.525  28.040  20.969  1.00  0.00     0.002 C
HETATM   28  C12 UNL     1       4.398  28.390  22.146  1.00  0.00     0.026 C
HETATM   29  C13 UNL     1       4.043  28.846  19.771  1.00  0.00     0.026 C
HETATM   30  C14 UNL     1       2.122  28.451  21.258  1.00  0.00     0.026 C
ENDBRANCH  26  27
ENDBRANCH   2  26
TORSDOF 10
ENDMDL