MODEL 3
REMARK VINA RESULT: -8.867300657      0.762      1.315
REMARK  9 active torsions:
REMARK  status: ('A' for Active; 'I' for Inactive)
REMARK    1  A    between atoms: O1_2  and  C2_3
REMARK    2  A    between atoms: C4_5  and  C5_6
REMARK    3  A    between atoms: N1_11  and  C8_12
REMARK    4  A    between atoms: C8_12  and  C9_13
REMARK    5  A    between atoms: C9_13  and  C10_14
REMARK    6  A    between atoms: C10_14  and  C11_15
REMARK    7  A    between atoms: C11_15  and  C12_16
REMARK    8  A    between atoms: C12_16  and  C13_17
REMARK    9  A    between atoms: C22_28  and  O4_29
ROOT
HETATM    1  C5  UNL     1       7.969  25.711  18.289  1.00  0.00     0.036 C
HETATM    2  C6  UNL     1       7.369  26.632  18.954  1.00  0.00     0.079 C
HETATM    3  S1  UNL     1       8.084  28.302  19.119  1.00  0.00    -0.023 SA
HETATM    4  C7  UNL     1       6.588  29.074  19.706  1.00  0.00     0.293 C
HETATM    5  O2  UNL     1       6.363  30.327  19.794  1.00  0.00    -0.259 OA
HETATM    6  N1  UNL     1       5.721  28.015  20.046  1.00  0.00    -0.274 N
HETATM    7  C19 UNL     1       6.124  26.737  19.655  1.00  0.00     0.268 C
HETATM    8  O3  UNL     1       5.388  25.709  19.922  1.00  0.00    -0.266 OA
ENDROOT
BRANCH   1   9
HETATM    9  C4  UNL     1       7.478  24.359  18.113  1.00  0.00    -0.030 A
HETATM   10  C3  UNL     1       6.882  24.070  16.874  1.00  0.00     0.051 A
HETATM   11  C2  UNL     1       6.445  22.789  16.638  1.00  0.00     0.104 A
HETATM   12  C22 UNL     1       6.578  21.791  17.583  1.00  0.00     0.125 A
HETATM   13  C21 UNL     1       7.158  22.057  18.797  1.00  0.00     0.083 A
HETATM   14  C20 UNL     1       7.591  23.339  19.022  1.00  0.00     0.041 A
HETATM   15  N2  UNL     1       7.309  21.038  19.800  1.00  0.00    -0.099 NA
BRANCH  11  16
HETATM   16  O1  UNL     1       5.846  22.478  15.402  1.00  0.00    -0.353 OA
HETATM   17  C1  UNL     1       6.630  22.599  14.246  1.00  0.00     0.210 C
ENDBRANCH  11  16
BRANCH  12  18
HETATM   18  O4  UNL     1       6.121  20.522  17.292  1.00  0.00    -0.351 OA
HETATM   19  C23 UNL     1       4.751  20.179  17.259  1.00  0.00     0.210 C
ENDBRANCH  12  18
ENDBRANCH   1   9
BRANCH   6  20
HETATM   20  C8  UNL     1       4.470  28.300  20.781  1.00  0.00     0.136 C
BRANCH  20  21
HETATM   21  C9  UNL     1       3.323  28.517  19.858  1.00  0.00     0.020 C
BRANCH  21  22
HETATM   22  C10 UNL     1       2.926  29.945  19.644  1.00  0.00     0.002 C
BRANCH  22  23
HETATM   23  C11 UNL     1       2.633  30.250  18.199  1.00  0.00     0.000 C
BRANCH  23  24
HETATM   24  C12 UNL     1       1.202  30.470  17.889  1.00  0.00     0.004 C
BRANCH  24  25
HETATM   25  C13 UNL     1       0.362  29.260  17.762  1.00  0.00    -0.014 C
HETATM   26  C14 UNL     1      -0.874  29.617  16.933  1.00  0.00     0.004 C
HETATM   27  C15 UNL     1      -1.652  30.743  17.536  1.00  0.00     0.000 C
HETATM   28  C16 UNL     1      -1.905  30.476  18.985  1.00  0.00     0.000 C
HETATM   29  C17 UNL     1      -1.538  29.077  19.388  1.00  0.00     0.000 C
HETATM   30  C18 UNL     1      -0.104  28.727  19.089  1.00  0.00     0.004 C
ENDBRANCH  24  25
ENDBRANCH  23  24
ENDBRANCH  22  23
ENDBRANCH  21  22
ENDBRANCH  20  21
ENDBRANCH   6  20
TORSDOF 9
ENDMDL