MODEL 1
REMARK VINA RESULT: -7.911611986      0.000      0.000
REMARK  10 active torsions:
REMARK  status: ('A' for Active; 'I' for Inactive)
REMARK    1  A    between atoms: C2_2  and  C3_3
REMARK    2  A    between atoms: C4_4  and  C5_5
REMARK    3  A    between atoms: C5_5  and  O1_6
REMARK    4  A    between atoms: N1_10  and  C9_11
REMARK    5  A    between atoms: C9_11  and  C10_12
REMARK    6  A    between atoms: C10_12  and  C11_13
REMARK    7  A    between atoms: C11_13  and  C12_14
REMARK    8  A    between atoms: C12_14  and  O2_15
REMARK    9  A    between atoms: N2_20  and  C16_21
REMARK   10  A    between atoms: C17_24  and  C18_25
ROOT
HETATM    1  C3  UNL     1       6.466  23.297  15.791  1.00  0.00     0.027 A
HETATM    2  C4  UNL     1       6.361  21.978  15.411  1.00  0.00     0.002 A
HETATM    3  C14 UNL     1       6.443  21.274  16.603  1.00  0.00     0.030 A
HETATM    4  C15 UNL     1       6.590  22.160  17.639  1.00  0.00     0.100 A
HETATM    5  N2  UNL     1       6.602  23.384  17.142  1.00  0.00    -0.306 N
ENDROOT
BRANCH   2   6
HETATM    6  C5  UNL     1       6.167  21.352  14.109  1.00  0.00     0.117 C
HETATM    7  C7  UNL     1       6.789  22.026  12.923  1.00  0.00     0.075 C
HETATM    8  C8  UNL     1       6.974  20.854  11.940  1.00  0.00     0.276 C
HETATM    9  N1  UNL     1       7.158  19.697  12.733  1.00  0.00     0.091 N
HETATM   10  C13 UNL     1       6.901  20.030  14.092  1.00  0.00     0.315 C
BRANCH   6  11
HETATM   11  O1  UNL     1       4.846  21.125  13.792  1.00  0.00    -0.378 OA
HETATM   12  C6  UNL     1       4.141  20.267  14.571  1.00  0.00     0.203 C
ENDBRANCH   6  11
BRANCH   9  13
HETATM   13  C9  UNL     1       6.448  18.525  12.351  1.00  0.00     0.272 C
BRANCH  13  14
HETATM   14  C10 UNL     1       7.331  17.294  12.284  1.00  0.00     0.032 C
BRANCH  14  15
HETATM   15  C11 UNL     1       8.562  17.532  11.450  1.00  0.00     0.028 C
BRANCH  15  16
HETATM   16  C12 UNL     1       9.799  17.159  12.239  1.00  0.00     0.164 C
BRANCH  16  17
HETATM   17  O2  UNL     1       9.587  15.906  12.820  1.00  0.00    -0.401 OA
ATOM     18  H2  UNL     1      10.418  15.587  13.153  1.00  0.00     0.209 HD
ENDBRANCH  16  17
ENDBRANCH  15  16
ENDBRANCH  14  15
ENDBRANCH  13  14
ENDBRANCH   9  13
ENDBRANCH   2   6
BRANCH   1  19
HETATM   19  C2  UNL     1       6.459  24.441  14.888  1.00  0.00     0.054 C
HETATM   20  C1  UNL     1       7.856  24.859  14.429  1.00  0.00     0.011 C
ENDBRANCH   1  19
BRANCH   5  21
HETATM   21  C16 UNL     1       6.733  24.572  17.927  1.00  0.00     0.155 A
HETATM   22  N3  UNL     1       5.881  25.090  18.793  1.00  0.00    -0.339 N
HETATM   23  C17 UNL     1       6.171  26.189  19.428  1.00  0.00     0.022 A
ATOM     24  H3  UNL     1       4.990  24.626  18.966  1.00  0.00     0.168 HD
HETATM   25  C24 UNL     1       7.391  26.765  19.147  1.00  0.00     0.078 A
HETATM   26  S1  UNL     1       8.029  25.684  17.994  1.00  0.00    -0.063 SA
BRANCH  23  27
HETATM   27  C18 UNL     1       5.186  26.794  20.424  1.00  0.00     0.036 C
HETATM   28  C19 UNL     1       3.875  26.107  20.253  1.00  0.00     0.011 C
HETATM   29  C20 UNL     1       2.753  26.781  20.979  1.00  0.00     0.001 C
HETATM   30  C21 UNL     1       2.725  28.252  20.711  1.00  0.00     0.000 C
HETATM   31  C22 UNL     1       4.075  28.829  21.146  1.00  0.00     0.001 C
HETATM   32  C23 UNL     1       5.092  28.303  20.153  1.00  0.00     0.011 C
ENDBRANCH  23  27
ENDBRANCH   5  21
TORSDOF 10
ENDMDL