MODEL 5
REMARK VINA RESULT: -8.220129619      1.281      2.198
REMARK  10 active torsions:
REMARK  status: ('A' for Active; 'I' for Inactive)
REMARK    1  A    between atoms: C2_2  and  C3_3
REMARK    2  A    between atoms: C3_3  and  N1_4
REMARK    3  A    between atoms: C4_5  and  S1_6
REMARK    4  A    between atoms: S1_6  and  C5_7
REMARK    5  A    between atoms: C5_7  and  C6_8
REMARK    6  A    between atoms: C6_8  and  C7_9
REMARK    7  A    between atoms: C7_9  and  N2_10
REMARK    8  A    between atoms: C15_18  and  C16_19
REMARK    9  A    between atoms: C19_22  and  O1_23
REMARK   10  A    between atoms: C22_31  and  C23_32
ROOT
HETATM    1  N2  UNL     1       6.529  27.290  19.968  1.00  0.00    -0.412 N
HETATM    2  C8  UNL     1       5.882  26.167  20.522  1.00  0.00     0.117 C
HETATM    3  C9  UNL     1       5.015  25.369  19.600  1.00  0.00     0.020 C
HETATM    4  C10 UNL     1       5.809  25.171  18.307  1.00  0.00     0.012 C
HETATM    5  C11 UNL     1       7.141  24.631  18.689  1.00  0.00    -0.030 A
HETATM    6  C12 UNL     1       8.157  25.708  18.976  1.00  0.00     0.029 C
HETATM    7  C13 UNL     1       7.621  27.083  19.093  1.00  0.00     0.117 C
HETATM    8  C14 UNL     1       7.281  23.439  19.611  1.00  0.00     0.020 A
HETATM    9  C15 UNL     1       7.592  23.306  18.189  1.00  0.00     0.028 A
ENDROOT
BRANCH   1  10
HETATM   10  C7  UNL     1       5.772  28.471  19.770  1.00  0.00     0.117 C
BRANCH  10  11
HETATM   11  C6  UNL     1       6.616  29.666  19.377  1.00  0.00     0.030 C
BRANCH  11  12
HETATM   12  C5  UNL     1       5.783  30.928  19.301  1.00  0.00     0.084 C
BRANCH  12  13
HETATM   13  S1  UNL     1       4.198  30.782  20.153  1.00  0.00    -0.092 SA
BRANCH  13  14
HETATM   14  C4  UNL     1       2.859  30.517  18.990  1.00  0.00     0.162 A
HETATM   15  N1  UNL     1       1.642  30.022  19.303  1.00  0.00    -0.315 N
HETATM   16  C22 UNL     1       0.892  29.958  18.191  1.00  0.00     0.104 A
HETATM   17  N4  UNL     1       1.648  30.416  17.177  1.00  0.00    -0.286 N
HETATM   18  N3  UNL     1       2.845  30.756  17.662  1.00  0.00    -0.278 N
ATOM     19  H4  UNL     1       1.357  30.492  16.203  1.00  0.00     0.188 HD
ATOM     20  H3  UNL     1       3.621  31.135  17.119  1.00  0.00     0.189 HD
BRANCH  15  21
HETATM   21  C3  UNL     1       1.220  29.631  20.615  1.00  0.00     0.132 C
BRANCH  21  22
HETATM   22  C2  UNL     1       1.139  28.150  20.822  1.00  0.00     0.016 C
HETATM   23  C1  UNL     1       2.513  27.589  21.165  1.00  0.00     0.006 C
ENDBRANCH  21  22
ENDBRANCH  15  21
BRANCH  16  24
HETATM   24  C23 UNL     1      -0.512  29.478  18.098  1.00  0.00     0.055 A
HETATM   25  C24 UNL     1      -1.556  30.351  18.867  1.00  0.00     0.013 A
HETATM   26  C25 UNL     1      -1.464  30.393  17.392  1.00  0.00     0.013 A
ENDBRANCH  16  24
ENDBRANCH  13  14
ENDBRANCH  12  13
ENDBRANCH  11  12
ENDBRANCH  10  11
ENDBRANCH   1  10
BRANCH   9  27
HETATM   27  C16 UNL     1       6.758  22.425  17.353  1.00  0.00    -0.053 A
HETATM   28  C17 UNL     1       6.561  22.705  16.000  1.00  0.00     0.010 A
HETATM   29  C18 UNL     1       5.793  21.874  15.205  1.00  0.00     0.037 A
HETATM   30  C19 UNL     1       5.193  20.742  15.712  1.00  0.00     0.065 A
HETATM   31  C20 UNL     1       5.384  20.461  17.049  1.00  0.00     0.037 A
HETATM   32  C21 UNL     1       6.148  21.289  17.833  1.00  0.00     0.010 A
BRANCH  30  33
HETATM   33  O1  UNL     1       4.413  19.900  14.910  1.00  0.00    -0.361 OA
ATOM     34  H1  UNL     1       3.557  20.164  14.593  1.00  0.00     0.217 HD
ENDBRANCH  30  33
ENDBRANCH   9  27
TORSDOF 10
ENDMDL