MODEL 1
REMARK VINA RESULT: -8.397854273      0.000      0.000
REMARK  10 active torsions:
REMARK  status: ('A' for Active; 'I' for Inactive)
REMARK    1  A    between atoms: C2_2  and  C3_3
REMARK    2  A    between atoms: C3_3  and  N1_4
REMARK    3  A    between atoms: N1_4  and  C4_6
REMARK    4  A    between atoms: C4_6  and  C5_8
REMARK    5  A    between atoms: C5_8  and  S2_9
REMARK    6  A    between atoms: S2_9  and  C6_10
REMARK    7  A    between atoms: C7_15  and  C8_16
REMARK    8  A    between atoms: C8_16  and  S3_17
REMARK    9  A    between atoms: S3_17  and  C9_18
REMARK   10  A    between atoms: N4_25  and  C16_26
ROOT
HETATM    1  C6  UNL     1       5.371  29.148  19.837  1.00  0.00     0.163 A
HETATM    2  N2  UNL     1       6.342  29.754  19.140  1.00  0.00    -0.278 N
ATOM      3  H2  UNL     1       6.372  30.728  18.837  1.00  0.00     0.189 HD
HETATM    4  N3  UNL     1       7.239  28.836  18.931  1.00  0.00    -0.286 N
ATOM      5  H3  UNL     1       8.107  28.994  18.420  1.00  0.00     0.188 HD
HETATM    6  C7  UNL     1       6.888  27.660  19.465  1.00  0.00     0.110 A
HETATM    7  N4  UNL     1       5.686  27.860  20.049  1.00  0.00    -0.309 N
ENDROOT
BRANCH   1   8
HETATM    8  S2  UNL     1       3.851  29.944  20.416  1.00  0.00    -0.085 SA
BRANCH   8   9
HETATM    9  C5  UNL     1       2.594  29.941  19.149  1.00  0.00     0.151 C
BRANCH   9  10
HETATM   10  C4  UNL     1       1.376  29.228  19.534  1.00  0.00     0.083 C
HETATM   11  S1  UNL     1       0.997  29.102  21.118  1.00  0.00    -0.065 SA
BRANCH  10  12
HETATM   12  N1  UNL     1       0.502  28.638  18.581  1.00  0.00    -0.380 N
ATOM     13  H1  UNL     1       0.900  27.992  17.900  1.00  0.00     0.160 HD
BRANCH  12  14
HETATM   14  C3  UNL     1      -0.900  28.895  18.523  1.00  0.00     0.147 C
BRANCH  14  15
HETATM   15  C2  UNL     1      -1.290  30.153  17.863  1.00  0.00    -0.018 C
HETATM   16  C1  UNL     1      -2.495  30.511  17.514  1.00  0.00     0.008 C
ENDBRANCH  14  15
ENDBRANCH  12  14
ENDBRANCH  10  12
ENDBRANCH   9  10
ENDBRANCH   8   9
ENDBRANCH   1   8
BRANCH   7  17
HETATM   17  C16 UNL     1       4.889  26.939  20.764  1.00  0.00     0.093 C
HETATM   18  C17 UNL     1       3.716  26.331  20.093  1.00  0.00     0.026 C
HETATM   19  C18 UNL     1       2.787  25.824  21.212  1.00  0.00     0.002 C
HETATM   20  C19 UNL     1       3.463  24.954  22.189  1.00  0.00     0.000 C
HETATM   21  C20 UNL     1       4.877  25.258  22.507  1.00  0.00     0.002 C
HETATM   22  C21 UNL     1       5.689  25.797  21.379  1.00  0.00     0.026 C
ENDBRANCH   7  17
BRANCH   6  23
HETATM   23  C8  UNL     1       7.670  26.404  19.430  1.00  0.00     0.157 C
BRANCH  23  24
HETATM   24  S3  UNL     1       7.912  25.805  17.790  1.00  0.00    -0.122 SA
BRANCH  24  25
HETATM   25  C9  UNL     1       7.168  24.291  17.343  1.00  0.00     0.001 A
HETATM   26  C10 UNL     1       7.167  23.296  18.331  1.00  0.00     0.019 A
HETATM   27  C11 UNL     1       6.644  22.047  18.145  1.00  0.00     0.008 A
HETATM   28  C12 UNL     1       6.082  21.729  16.923  1.00  0.00    -0.062 A
HETATM   29  C13 UNL     1       5.506  20.388  16.683  1.00  0.00     0.048 C
HETATM   30  C14 UNL     1       6.071  22.687  15.939  1.00  0.00     0.008 A
HETATM   31  C15 UNL     1       6.611  23.954  16.151  1.00  0.00     0.019 A
ENDBRANCH  24  25
ENDBRANCH  23  24
ENDBRANCH   6  23
TORSDOF 10
ENDMDL