MODEL 1
REMARK VINA RESULT: -9.407955017      0.000      0.000
REMARK  10 active torsions:
REMARK  status: ('A' for Active; 'I' for Inactive)
REMARK    1  A    between atoms: C4_5  and  O2_6
REMARK    2  A    between atoms: C4_5  and  C5_8
REMARK    3  A    between atoms: C5_8  and  C6_9
REMARK    4  A    between atoms: C8_11  and  C9_12
REMARK    5  A    between atoms: C13_16  and  C14_17
REMARK    6  A    between atoms: C14_17  and  O3_18
REMARK    7  A    between atoms: O3_18  and  N1_19
REMARK    8  A    between atoms: C17_26  and  C18_27
REMARK    9  A    between atoms: C20_29  and  C21_30
REMARK   10  A    between atoms: C21_30  and  C22_31
ROOT
HETATM    1  C5  UNL     1       6.840  25.026  20.043  1.00  0.00     0.103 C
ENDROOT
BRANCH   1   2
HETATM    2  C4  UNL     1       7.863  25.328  18.988  1.00  0.00     0.176 C
HETATM    3  O1  UNL     1       8.456  26.586  19.231  1.00  0.00    -0.350 OA
HETATM    4  C3  UNL     1       8.892  27.101  18.044  1.00  0.00     0.206 C
HETATM    5  C2  UNL     1       8.419  26.193  16.968  1.00  0.00    -0.052 C
HETATM    6  C1  UNL     1       8.906  26.074  15.767  1.00  0.00     0.017 C
HETATM    7  C17 UNL     1       7.288  25.481  17.609  1.00  0.00     0.106 C
BRANCH   7   8
HETATM    8  C18 UNL     1       6.887  24.245  16.923  1.00  0.00    -0.074 C
HETATM    9  C19 UNL     1       6.397  24.456  15.499  1.00  0.00     0.044 C
HETATM   10  C20 UNL     1       6.860  23.023  17.371  1.00  0.00    -0.020 C
BRANCH  10  11
HETATM   11  C21 UNL     1       6.418  21.897  16.512  1.00  0.00     0.054 C
BRANCH  11  12
HETATM   12  C22 UNL     1       5.738  20.834  17.296  1.00  0.00    -0.021 C
HETATM   13  C23 UNL     1       4.787  20.041  16.881  1.00  0.00    -0.091 C
HETATM   14  C24 UNL     1       4.218  19.030  17.802  1.00  0.00     0.042 C
HETATM   15  C25 UNL     1       4.245  20.129  15.507  1.00  0.00     0.042 C
ENDBRANCH  11  12
ENDBRANCH  10  11
ENDBRANCH   7   8
BRANCH   2  16
HETATM   16  O2  UNL     1       8.914  24.437  18.964  1.00  0.00    -0.364 OA
ATOM     17  H2  UNL     1       9.170  24.383  18.051  1.00  0.00     0.213 HD
ENDBRANCH   2  16
ENDBRANCH   1   2
BRANCH   1  18
HETATM   18  C6  UNL     1       5.662  25.932  19.997  1.00  0.00    -0.076 C
HETATM   19  C7  UNL     1       4.429  25.403  19.373  1.00  0.00     0.043 C
HETATM   20  C8  UNL     1       5.688  27.157  20.459  1.00  0.00     0.032 C
BRANCH  20  21
HETATM   21  C9  UNL     1       4.503  27.997  20.389  1.00  0.00     0.033 A
HETATM   22  C10 UNL     1       3.448  27.761  21.263  1.00  0.00     0.037 A
HETATM   23  C11 UNL     1       2.311  28.524  21.216  1.00  0.00    -0.049 A
HETATM   24  C12 UNL     1       1.174  28.314  22.113  1.00  0.00     0.049 C
HETATM   25  C13 UNL     1       2.232  29.549  20.268  1.00  0.00    -0.004 A
HETATM   26  C15 UNL     1       3.270  29.787  19.401  1.00  0.00     0.014 A
HETATM   27  C16 UNL     1       3.267  30.851  18.368  1.00  0.00     0.069 C
HETATM   28  N2  UNL     1       4.371  28.989  19.506  1.00  0.00    -0.359 N
ATOM     29  H2  UNL     1       5.146  29.162  18.864  1.00  0.00     0.166 HD
BRANCH  25  30
HETATM   30  C14 UNL     1       1.012  30.335  20.249  1.00  0.00     0.249 C
BRANCH  30  31
HETATM   31  O3  UNL     1       0.064  29.895  19.322  1.00  0.00    -0.217 OA
BRANCH  31  32
HETATM   32  N1  UNL     1      -1.277  29.945  19.533  1.00  0.00     0.005 N
HETATM   33  O4  UNL     1      -1.903  30.938  19.097  1.00  0.00    -0.511 OA
HETATM   34  O5  UNL     1      -1.895  28.930  20.203  1.00  0.00    -0.511 OA
ENDBRANCH  31  32
ENDBRANCH  30  31
ENDBRANCH  25  30
ENDBRANCH  20  21
ENDBRANCH   1  18
TORSDOF 10
ENDMDL