MODEL 2
REMARK VINA RESULT: -8.048428995      1.732      3.874
REMARK  10 active torsions:
REMARK  status: ('A' for Active; 'I' for Inactive)
REMARK    1  A    between atoms: C2_2  and  C3_3
REMARK    2  A    between atoms: C3_3  and  C4_4
REMARK    3  A    between atoms: C4_4  and  C5_5
REMARK    4  A    between atoms: C5_5  and  C6_6
REMARK    5  A    between atoms: C6_6  and  C7_7
REMARK    6  A    between atoms: C8_8  and  C9_9
REMARK    7  A    between atoms: C10_10  and  C11_11
REMARK    8  A    between atoms: C13_14  and  O2_15
REMARK    9  A    between atoms: C14_18  and  C15_19
REMARK   10  A    between atoms: C19_23  and  O4_24
ROOT
HETATM    1  C11 UNL     1       1.978  28.602  20.723  1.00  0.00     0.102 A
HETATM    2  C12 UNL     1       3.167  29.169  20.727  1.00  0.00     0.098 A
HETATM    3  O1  UNL     1       3.677  30.461  20.775  1.00  0.00    -0.298 OA
HETATM    4  C13 UNL     1       5.018  30.584  20.265  1.00  0.00     0.416 C
HETATM    5  O3  UNL     1       5.284  29.749  19.223  1.00  0.00    -0.328 OA
HETATM    6  C14 UNL     1       4.971  28.413  19.381  1.00  0.00     0.176 C
HETATM    7  C22 UNL     1       4.252  28.120  20.660  1.00  0.00     0.145 A
HETATM    8  C23 UNL     1       3.444  26.889  20.714  1.00  0.00     0.209 A
HETATM    9  O5  UNL     1       2.100  27.209  20.656  1.00  0.00    -0.308 OA
HETATM   10  O6  UNL     1       3.928  25.654  20.356  1.00  0.00    -0.341 OA
HETATM   11  C24 UNL     1       3.775  25.804  21.716  1.00  0.00     0.185 A
HETATM   12  C25 UNL     1       4.952  26.073  22.608  1.00  0.00     0.045 C
ENDROOT
BRANCH   1  13
HETATM   13  C10 UNL     1       0.744  29.368  20.781  1.00  0.00     0.039 C
HETATM   14  C9  UNL     1      -0.255  29.018  19.990  1.00  0.00     0.003 C
BRANCH  14  15
HETATM   15  C8  UNL     1      -1.487  29.758  20.027  1.00  0.00    -0.004 C
HETATM   16  C7  UNL     1      -2.042  30.242  18.956  1.00  0.00    -0.027 C
BRANCH  16  17
HETATM   17  C6  UNL     1      -1.534  30.127  17.573  1.00  0.00     0.027 C
BRANCH  17  18
HETATM   18  C5  UNL     1      -0.267  30.934  17.390  1.00  0.00     0.004 C
BRANCH  18  19
HETATM   19  C4  UNL     1       0.894  30.121  16.880  1.00  0.00     0.000 C
BRANCH  19  20
HETATM   20  C3  UNL     1       2.182  30.467  17.580  1.00  0.00    -0.000 C
BRANCH  20  21
HETATM   21  C2  UNL     1       2.782  31.646  16.833  1.00  0.00    -0.005 C
HETATM   22  C1  UNL     1       3.942  31.215  15.966  1.00  0.00     0.005 C
ENDBRANCH  20  21
ENDBRANCH  19  20
ENDBRANCH  18  19
ENDBRANCH  17  18
ENDBRANCH  16  17
ENDBRANCH  14  15
ENDBRANCH   1  13
BRANCH   4  23
HETATM   23  O2  UNL     1       5.062  31.902  19.749  1.00  0.00    -0.349 OA
ATOM     24  H2  UNL     1       4.236  31.991  19.287  1.00  0.00     0.215 HD
ENDBRANCH   4  23
BRANCH   6  25
HETATM   25  C15 UNL     1       6.204  27.616  19.302  1.00  0.00    -0.026 A
HETATM   26  C16 UNL     1       7.427  28.182  19.534  1.00  0.00     0.010 A
HETATM   27  C17 UNL     1       8.585  27.422  19.450  1.00  0.00     0.003 A
HETATM   28  C18 UNL     1       8.532  26.100  19.136  1.00  0.00     0.037 A
HETATM   29  C19 UNL     1       7.298  25.510  18.898  1.00  0.00     0.068 A
HETATM   30  C21 UNL     1       6.156  26.282  18.986  1.00  0.00     0.046 A
BRANCH  29  31
HETATM   31  O4  UNL     1       7.197  24.159  18.573  1.00  0.00    -0.356 OA
HETATM   32  C20 UNL     1       7.494  23.215  19.574  1.00  0.00     0.210 C
ENDBRANCH  29  31
ENDBRANCH   6  25
TORSDOF 10
ENDMDL