MODEL 3
REMARK VINA RESULT: -6.683114550      8.526     13.874
REMARK  12 active torsions:
REMARK  status: ('A' for Active; 'I' for Inactive)
REMARK    1  A    between atoms: C2_2  and  C3_3
REMARK    2  A    between atoms: C3_3  and  C4_4
REMARK    3  A    between atoms: C4_4  and  O1_5
REMARK    4  A    between atoms: O1_5  and  C5_6
REMARK    5  A    between atoms: C10_12  and  O3_14
REMARK    6  A    between atoms: C12_16  and  C13_17
REMARK    7  A    between atoms: C13_17  and  C14_18
REMARK    8  A    between atoms: C14_18  and  C15_19
REMARK    9  A    between atoms: C15_19  and  C16_20
REMARK   10  A    between atoms: C15_19  and  C21_28
REMARK   11  A    between atoms: C16_20  and  C17_21
REMARK   12  A    between atoms: C21_28  and  C23_30
ROOT
HETATM    1  C4  UNL     1       6.769  25.339  19.177  1.00  0.00     0.083 C
HETATM    2  C7  UNL     1       8.256  25.045  18.976  1.00  0.00     0.040 C
HETATM    3  C8  UNL     1       8.740  25.580  17.684  1.00  0.00     0.006 C
HETATM    4  C9  UNL     1       8.627  27.075  17.673  1.00  0.00     0.038 C
HETATM    5  C10 UNL     1       7.757  27.622  18.734  1.00  0.00     0.064 C
HETATM    6  C11 UNL     1       8.397  27.959  20.031  1.00  0.00     0.046 C
HETATM    7  C12 UNL     1       6.469  26.813  18.944  1.00  0.00     0.078 C
ENDROOT
BRANCH   7   8
HETATM    8  C13 UNL     1       5.661  27.511  19.940  1.00  0.00    -0.015 C
BRANCH   8   9
HETATM    9  C14 UNL     1       4.230  27.736  19.928  1.00  0.00     0.004 C
BRANCH   9  10
HETATM   10  C15 UNL     1       3.561  28.931  20.392  1.00  0.00    -0.046 C
BRANCH  10  11
HETATM   11  C16 UNL     1       2.352  28.895  20.878  1.00  0.00     0.044 C
BRANCH  11  12
HETATM   12  C17 UNL     1       1.336  29.897  20.423  1.00  0.00     0.325 C
HETATM   13  O4  UNL     1       0.158  29.772  21.159  1.00  0.00    -0.201 OA
HETATM   14  O5  UNL     1      -0.759  30.281  20.344  1.00  0.00    -0.199 OA
HETATM   15  C18 UNL     1      -0.408  29.763  19.099  1.00  0.00     0.193 C
HETATM   16  C19 UNL     1      -0.824  30.661  17.957  1.00  0.00     0.081 C
HETATM   17  C20 UNL     1      -1.082  28.427  18.849  1.00  0.00     0.081 C
HETATM   18  O6  UNL     1       0.954  29.678  19.123  1.00  0.00    -0.317 OA
ENDBRANCH  11  12
ENDBRANCH  10  11
BRANCH  10  19
HETATM   19  C21 UNL     1       4.209  30.266  20.418  1.00  0.00     0.083 C
HETATM   20  C22 UNL     1       5.385  30.414  21.329  1.00  0.00     0.023 C
BRANCH  19  21
HETATM   21  C23 UNL     1       4.646  30.731  19.086  1.00  0.00     0.131 C
HETATM   22  C24 UNL     1       3.700  30.819  17.961  1.00  0.00     0.091 C
HETATM   23  O7  UNL     1       5.805  31.042  18.926  1.00  0.00    -0.298 OA
ENDBRANCH  19  21
ENDBRANCH  10  19
ENDBRANCH   9  10
ENDBRANCH   8   9
ENDBRANCH   7   8
BRANCH   1  24
HETATM   24  C3  UNL     1       6.054  24.601  18.098  1.00  0.00     0.065 C
BRANCH  24  25
HETATM   25  C2  UNL     1       6.406  23.239  17.758  1.00  0.00    -0.034 C
HETATM   26  C1  UNL     1       6.359  22.712  16.543  1.00  0.00     0.007 C
ENDBRANCH  24  25
ENDBRANCH   1  24
BRANCH   1  27
HETATM   27  O1  UNL     1       6.390  25.007  20.450  1.00  0.00    -0.309 OA
BRANCH  27  28
HETATM   28  C5  UNL     1       6.644  24.029  21.316  1.00  0.00     0.255 C
HETATM   29  C6  UNL     1       6.040  24.066  22.701  1.00  0.00     0.126 C
HETATM   30  O2  UNL     1       7.381  23.105  20.956  1.00  0.00    -0.266 OA
ENDBRANCH  27  28
ENDBRANCH   1  27
BRANCH   5  31
HETATM   31  O3  UNL     1       7.289  28.873  18.218  1.00  0.00    -0.389 OA
ATOM     32  H3  UNL     1       7.850  29.527  18.618  1.00  0.00     0.210 HD
ENDBRANCH   5  31
TORSDOF 12
ENDMDL