MODEL 5
REMARK VINA RESULT: -7.604025719      4.968      8.324
REMARK  11 active torsions:
REMARK  status: ('A' for Active; 'I' for Inactive)
REMARK    1  A    between atoms: C6_6  and  C7_7
REMARK    2  A    between atoms: C7_7  and  C10_10
REMARK    3  A    between atoms: C10_10  and  O1_11
REMARK    4  A    between atoms: O1_11  and  C11_12
REMARK    5  A    between atoms: C13_17  and  C14_18
REMARK    6  A    between atoms: C14_18  and  C15_19
REMARK    7  A    between atoms: C15_19  and  O3_21
REMARK    8  A    between atoms: O3_21  and  C16_22
REMARK    9  A    between atoms: C16_22  and  C17_23
REMARK   10  A    between atoms: C17_23  and  C18_24
REMARK   11  A    between atoms: C18_24  and  O4_25
ROOT
HETATM    1  C11 UNL     1       5.296  21.150  13.603  1.00  0.00     0.156 A
HETATM    2  N1  UNL     1       4.339  20.277  13.684  1.00  0.00    -0.340 N
ATOM      3  H1  UNL     1       3.884  19.937  12.838  1.00  0.00     0.167 HD
HETATM    4  C12 UNL     1       3.954  19.828  14.873  1.00  0.00     0.140 A
HETATM    5  S1  UNL     1       4.987  20.671  15.935  1.00  0.00    -0.085 SA
HETATM    6  C13 UNL     1       5.877  21.577  14.765  1.00  0.00     0.044 A
ENDROOT
BRANCH   1   7
HETATM    7  O1  UNL     1       5.741  21.658  12.350  1.00  0.00    -0.334 OA
BRANCH   7   8
HETATM    8  C10 UNL     1       6.698  20.987  11.571  1.00  0.00     0.186 C
BRANCH   8   9
HETATM    9  C7  UNL     1       7.332  21.974  10.577  1.00  0.00    -0.022 C
HETATM   10  C8  UNL     1       6.826  23.330  11.035  1.00  0.00     0.017 C
HETATM   11  C9  UNL     1       8.804  21.890  10.774  1.00  0.00     0.017 C
BRANCH   9  12
HETATM   12  C6  UNL     1       6.836  21.607   9.220  1.00  0.00    -0.005 C
HETATM   13  C5  UNL     1       6.099  20.291   9.259  1.00  0.00     0.006 C
HETATM   14  C4  UNL     1       5.406  20.003   7.946  1.00  0.00     0.009 C
HETATM   15  C2  UNL     1       4.446  21.097   7.561  1.00  0.00    -0.048 C
HETATM   16  C1  UNL     1       3.004  20.574   7.629  1.00  0.00     0.015 C
HETATM   17  C3  UNL     1       4.677  21.466   6.109  1.00  0.00     0.015 C
HETATM   18  C24 UNL     1       4.527  22.294   8.445  1.00  0.00     0.009 C
HETATM   19  C23 UNL     1       5.954  22.729   8.717  1.00  0.00     0.006 C
ENDBRANCH   9  12
ENDBRANCH   8   9
ENDBRANCH   7   8
ENDBRANCH   1   7
BRANCH   6  20
HETATM   20  C14 UNL     1       6.969  22.579  14.985  1.00  0.00     0.161 C
BRANCH  20  21
HETATM   21  C15 UNL     1       6.364  23.853  15.459  1.00  0.00     0.263 C
HETATM   22  O2  UNL     1       6.043  24.696  14.598  1.00  0.00    -0.265 OA
BRANCH  21  23
HETATM   23  O3  UNL     1       6.151  24.131  16.784  1.00  0.00    -0.320 OA
BRANCH  23  24
HETATM   24  C16 UNL     1       6.875  23.472  17.816  1.00  0.00     0.190 C
BRANCH  24  25
HETATM   25  C17 UNL     1       7.237  24.475  18.891  1.00  0.00     0.003 C
HETATM   26  C19 UNL     1       6.019  25.367  19.110  1.00  0.00     0.014 C
HETATM   27  C20 UNL     1       6.571  26.674  19.575  1.00  0.00     0.001 C
HETATM   28  C21 UNL     1       7.979  26.764  19.058  1.00  0.00     0.001 C
HETATM   29  C22 UNL     1       8.338  25.418  18.469  1.00  0.00     0.014 C
BRANCH  25  30
HETATM   30  C18 UNL     1       7.624  23.826  20.191  1.00  0.00     0.175 C
BRANCH  30  31
HETATM   31  O4  UNL     1       7.916  22.470  20.022  1.00  0.00    -0.400 OA
ATOM     32  H4  UNL     1       8.504  22.330  19.289  1.00  0.00     0.209 HD
ENDBRANCH  30  31
ENDBRANCH  25  30
ENDBRANCH  24  25
ENDBRANCH  23  24
ENDBRANCH  21  23
ENDBRANCH  20  21
ENDBRANCH   6  20
TORSDOF 11
ENDMDL