MODEL 4
REMARK VINA RESULT: -6.435717790      2.286      6.783
REMARK  9 active torsions:
REMARK  status: ('A' for Active; 'I' for Inactive)
REMARK    1  A    between atoms: N1_1  and  N2_4
REMARK    2  A    between atoms: C1_6  and  C2_7
REMARK    3  A    between atoms: C1_6  and  N9_26
REMARK    4  A    between atoms: C2_7  and  C3_8
REMARK    5  A    between atoms: C3_8  and  N3_9
REMARK    6  A    between atoms: C5_11  and  C6_12
REMARK    7  A    between atoms: C6_12  and  N4_13
REMARK    8  A    between atoms: C6_12  and  N5_17
REMARK       I    between atoms: N5_17  and  C7_19
REMARK    9  A    between atoms: N9_26  and  N10_28
ROOT
HETATM    1  N3  UNL     1      -0.197  -4.527   0.761  1.00  0.00    -0.287 N
HETATM    2  C4  UNL     1       0.232  -4.177   1.996  1.00  0.00     0.142 A
HETATM    3  C5  UNL     1      -0.830  -4.210   2.878  1.00  0.00     0.093 A
HETATM    4  N7  UNL     1      -1.891  -4.586   2.131  1.00  0.00    -0.285 N
ATOM      5  H7  UNL     1      -2.845  -4.710   2.470  1.00  0.00     0.188 HD
HETATM    6  N8  UNL     1      -1.482  -4.765   0.881  1.00  0.00    -0.241 N
ATOM      7  H8  UNL     1      -2.089  -5.051   0.112  1.00  0.00     0.208 HD
ENDROOT
BRANCH   1   8
HETATM    8  C3  UNL     1       0.667  -4.590  -0.384  1.00  0.00     0.157 C
BRANCH   8   9
HETATM    9  C2  UNL     1      -0.008  -5.240  -1.575  1.00  0.00     0.101 C
BRANCH   9  10
HETATM   10  C1  UNL     1      -0.166  -4.208  -2.611  1.00  0.00     0.111 C
HETATM   11  N2  UNL     1       0.838  -3.512  -2.974  1.00  0.00    -0.294 N
ATOM     12  H2  UNL     1       1.725  -3.714  -2.514  1.00  0.00     0.187 HD
BRANCH  11  13
HETATM   13  N1  UNL     1       0.846  -2.516  -3.925  1.00  0.00    -0.344 N
ATOM     14  H12 UNL     1       1.432  -2.691  -4.742  1.00  0.00     0.176 HD
ATOM     15  H11 UNL     1       0.330  -1.637  -3.889  1.00  0.00     0.176 HD
ENDBRANCH  11  13
BRANCH  10  16
HETATM   16  N9  UNL     1      -1.424  -3.992  -3.199  1.00  0.00    -0.294 N
ATOM     17  H9  UNL     1      -1.968  -3.173  -2.925  1.00  0.00     0.187 HD
BRANCH  16  18
HETATM   18  N10 UNL     1      -1.942  -4.860  -4.134  1.00  0.00    -0.344 N
ATOM     19 2H10 UNL     1      -2.310  -5.754  -3.810  1.00  0.00     0.176 HD
ATOM     20 1H10 UNL     1      -1.960  -4.627  -5.127  1.00  0.00     0.176 HD
ENDBRANCH  16  18
ENDBRANCH  10  16
ENDBRANCH   9  10
ENDBRANCH   8   9
ENDBRANCH   1   8
BRANCH   3  21
HETATM   21  C6  UNL     1      -0.765  -3.891   4.326  1.00  0.00     0.338 C
BRANCH  21  22
HETATM   22  N4  UNL     1       0.434  -4.545   4.865  1.00  0.00    -0.052 N
ATOM     23  H43 UNL     1       0.356  -4.765   5.858  1.00  0.00     0.277 HD
ATOM     24  H42 UNL     1       0.552  -5.500   4.527  1.00  0.00     0.277 HD
ATOM     25  H41 UNL     1       1.231  -3.945   4.650  1.00  0.00     0.277 HD
ENDBRANCH  21  22
BRANCH  21  26
HETATM   26  N5  UNL     1      -0.615  -2.486   4.573  1.00  0.00    -0.312 N
HETATM   27  C7  UNL     1      -1.518  -1.570   3.998  1.00  0.00     0.330 C
HETATM   28  N6  UNL     1      -1.384  -0.170   4.233  1.00  0.00    -0.040 NA
HETATM   29  O1  UNL     1      -2.465  -1.966   3.267  1.00  0.00    -0.251 OA
ATOM     30  H5  UNL     1       0.146  -2.151   5.164  1.00  0.00     0.166 HD
ENDBRANCH  21  26
ENDBRANCH   3  21
TORSDOF 9
ENDMDL