MODEL 3
REMARK VINA RESULT: -6.042303711      1.129      1.315
REMARK  9 active torsions:
REMARK  status: ('A' for Active; 'I' for Inactive)
REMARK    1  A    between atoms: N1_2  and  N2_3
REMARK       I    between atoms: N1_2  and  C2_6
REMARK    2  A    between atoms: C2_6  and  C3_8
REMARK    3  A    between atoms: C3_8  and  C4_9
REMARK    4  A    between atoms: C3_8  and  N9_26
REMARK    5  A    between atoms: C4_9  and  N3_10
REMARK    6  A    between atoms: C6_12  and  C7_13
REMARK    7  A    between atoms: C7_13  and  N5_17
REMARK    8  A    between atoms: N5_17  and  N6_19
REMARK    9  A    between atoms: N9_26  and  N10_27
ROOT
HETATM    1  N3  UNL     1      -0.197  -4.332   1.923  1.00  0.00    -0.285 N
HETATM    2  C5  UNL     1       0.542  -4.587   0.825  1.00  0.00     0.146 A
HETATM    3  C6  UNL     1      -0.179  -4.317  -0.310  1.00  0.00     0.111 A
HETATM    4  N7  UNL     1      -1.387  -3.887   0.151  1.00  0.00    -0.281 N
ATOM      5  H7  UNL     1      -2.177  -3.597  -0.426  1.00  0.00     0.188 HD
HETATM    6  N8  UNL     1      -1.362  -3.908   1.463  1.00  0.00    -0.240 N
ATOM      7  H8  UNL     1      -2.145  -3.631   2.055  1.00  0.00     0.208 HD
ENDROOT
BRANCH   1   8
HETATM    8  C4  UNL     1       0.193  -4.485   3.339  1.00  0.00     0.182 C
BRANCH   8   9
HETATM    9  C3  UNL     1      -0.934  -3.872   4.121  1.00  0.00     0.212 C
BRANCH   9  10
HETATM   10  C2  UNL     1      -1.216  -2.460   3.818  1.00  0.00     0.260 C
HETATM   11  N1  UNL     1      -0.315  -1.395   3.745  1.00  0.00    -0.271 N
HETATM   12  C1  UNL     1       1.089  -1.612   3.960  1.00  0.00     0.180 C
HETATM   13  O1  UNL     1      -2.451  -2.162   3.589  1.00  0.00    -0.270 OA
BRANCH  11  14
HETATM   14  N2  UNL     1      -0.763  -0.108   3.465  1.00  0.00    -0.341 N
ATOM     15  H22 UNL     1      -1.531   0.044   2.812  1.00  0.00     0.177 HD
ATOM     16  H21 UNL     1      -0.311   0.683   3.924  1.00  0.00     0.177 HD
ENDBRANCH  11  14
ENDBRANCH   9  10
BRANCH   9  17
HETATM   17  N9  UNL     1      -0.628  -4.063   5.540  1.00  0.00    -0.132 NA
BRANCH  17  18
HETATM   18  N10 UNL     1       0.685  -4.399   5.789  1.00  0.00    -0.348 N
ATOM     19 2H10 UNL     1       0.940  -5.207   6.357  1.00  0.00     0.172 HD
ATOM     20 1H10 UNL     1       1.362  -3.771   5.357  1.00  0.00     0.172 HD
ENDBRANCH  17  18
ENDBRANCH   9  17
ENDBRANCH   8   9
ENDBRANCH   1   8
BRANCH   3  21
HETATM   21  C7  UNL     1       0.216  -4.445  -1.708  1.00  0.00     0.143 C
HETATM   22  N4  UNL     1       1.267  -5.105  -2.042  1.00  0.00    -0.383 N
ATOM     23  H42 UNL     1       1.854  -5.558  -1.341  1.00  0.00     0.157 HD
ATOM     24  H41 UNL     1       1.544  -5.195  -3.020  1.00  0.00     0.157 HD
BRANCH  21  25
HETATM   25  N5  UNL     1      -0.600  -3.815  -2.684  1.00  0.00    -0.291 N
ATOM     26  H5  UNL     1      -0.656  -2.797  -2.696  1.00  0.00     0.188 HD
BRANCH  25  27
HETATM   27  N6  UNL     1      -1.325  -4.542  -3.624  1.00  0.00    -0.344 N
ATOM     28  H62 UNL     1      -1.025  -5.496  -3.826  1.00  0.00     0.176 HD
ATOM     29  H61 UNL     1      -2.134  -4.151  -4.107  1.00  0.00     0.176 HD
ENDBRANCH  25  27
ENDBRANCH  21  25
ENDBRANCH   3  21
TORSDOF 9
ENDMDL