MODEL 5
REMARK VINA RESULT: -4.997017163      3.017      5.907
REMARK  8 active torsions:
REMARK  status: ('A' for Active; 'I' for Inactive)
REMARK    1  A    between atoms: N1_2  and  O1_3
REMARK    2  A    between atoms: N1_2  and  N2_5
REMARK    3  A    between atoms: N2_5  and  N3_7
REMARK    4  A    between atoms: N3_7  and  C2_9
REMARK    5  A    between atoms: C4_16  and  N6_17
REMARK    6  A    between atoms: C4_16  and  C6_25
REMARK       I    between atoms: N6_17  and  C5_19
REMARK    7  A    between atoms: C5_19  and  O3_21
REMARK    8  A    between atoms: O3_21  and  N7_22
ROOT
HETATM    1  C2  UNL     1      -0.203  -3.870   5.342  1.00  0.00     0.164 C
HETATM    2  N4  UNL     1       0.160  -5.138   5.099  1.00  0.00    -0.351 N
ATOM      3  H4  UNL     1       0.605  -5.753   5.780  1.00  0.00     0.162 HD
HETATM    4  C3  UNL     1      -0.160  -5.508   3.759  1.00  0.00     0.360 C
HETATM    5  N5  UNL     1      -1.316  -4.560   3.552  1.00  0.00    -0.015 N
ATOM      6  H51 UNL     1      -2.206  -4.828   3.975  1.00  0.00     0.283 HD
ATOM      7  H52 UNL     1      -1.701  -4.509   2.608  1.00  0.00     0.283 HD
HETATM    8  C4  UNL     1      -0.698  -3.366   4.059  1.00  0.00     0.350 C
ENDROOT
BRANCH   8   9
HETATM    9  N6  UNL     1      -1.423  -2.160   4.136  1.00  0.00    -0.287 N
HETATM   10  C5  UNL     1      -1.962  -1.537   2.989  1.00  0.00     0.384 C
HETATM   11  O2  UNL     1      -1.821  -1.988   1.793  1.00  0.00    -0.236 OA
ATOM     12  H6  UNL     1      -1.563  -1.723   5.048  1.00  0.00     0.168 HD
BRANCH  10  13
HETATM   13  O3  UNL     1      -2.690  -0.359   3.043  1.00  0.00    -0.188 OA
BRANCH  13  14
HETATM   14  N7  UNL     1      -3.319   0.077   4.167  1.00  0.00    -0.301 N
ATOM     15  H72 UNL     1      -3.945  -0.577   4.637  1.00  0.00     0.184 HD
ATOM     16  H71 UNL     1      -3.193   1.013   4.551  1.00  0.00     0.184 HD
ENDBRANCH  13  14
ENDBRANCH  10  13
ENDBRANCH   8   9
BRANCH   8  17
HETATM   17  C6  UNL     1       0.495  -3.182   3.131  1.00  0.00     0.241 C
HETATM   18  O4  UNL     1       0.811  -3.886   2.191  1.00  0.00    -0.644 OA
HETATM   19  O5  UNL     1       1.291  -2.038   3.470  1.00  0.00    -0.644 OA
ENDBRANCH   8  17
BRANCH   1  20
HETATM   20  N3  UNL     1      -0.014  -3.340   6.670  1.00  0.00    -0.269 N
ATOM     21  H3  UNL     1      -0.798  -3.230   7.313  1.00  0.00     0.190 HD
BRANCH  20  22
HETATM   22  N2  UNL     1       1.310  -2.977   7.050  1.00  0.00    -0.220 N
ATOM     23  H2  UNL     1       1.942  -2.488   6.416  1.00  0.00     0.210 HD
BRANCH  22  24
HETATM   24  N1  UNL     1       1.679  -3.324   8.320  1.00  0.00    -0.192 N
HETATM   25  C1  UNL     1       2.522  -4.520   8.481  1.00  0.00     0.209 C
BRANCH  24  26
HETATM   26  O1  UNL     1       1.307  -2.640   9.304  1.00  0.00    -0.272 OA
ATOM     27  H1  UNL     1       1.438  -1.700   9.338  1.00  0.00     0.246 HD
ENDBRANCH  24  26
ENDBRANCH  22  24
ENDBRANCH  20  22
ENDBRANCH   1  20
TORSDOF 8
ENDMDL