MODEL 2
REMARK VINA RESULT: -7.497208937      1.288      2.946
REMARK  8 active torsions:
REMARK  status: ('A' for Active; 'I' for Inactive)
REMARK    1  A    between atoms: N1_1  and  N2_4
REMARK    2  A    between atoms: N2_4  and  C1_6
REMARK    3  A    between atoms: N5_17  and  C5_18
REMARK    4  A    between atoms: C5_18  and  C6_19
REMARK    5  A    between atoms: C6_19  and  C7_20
REMARK    6  A    between atoms: C7_20  and  C8_21
REMARK    7  A    between atoms: C8_21  and  N6_22
REMARK    8  A    between atoms: N6_22  and  N7_23
ROOT
HETATM    1  C1  UNL     1      -0.080  -4.069   3.645  1.00  0.00     0.195 C
HETATM    2  C2  UNL     1       0.013  -3.176   4.716  1.00  0.00     0.295 C
HETATM    3  O1  UNL     1       0.910  -3.419   5.563  1.00  0.00    -0.264 OA
HETATM    4  N3  UNL     1      -0.748  -2.096   4.930  1.00  0.00    -0.272 N
ATOM      5  H3  UNL     1      -0.712  -1.702   5.871  1.00  0.00     0.174 HD
HETATM    6  C3  UNL     1      -1.560  -1.462   4.049  1.00  0.00     0.331 C
HETATM    7  O2  UNL     1      -2.179  -0.473   4.526  1.00  0.00    -0.246 OA
HETATM    8  N4  UNL     1      -1.776  -1.759   2.757  1.00  0.00    -0.260 N
ATOM      9  H4  UNL     1      -2.333  -1.080   2.238  1.00  0.00     0.175 HD
HETATM   10  C4  UNL     1      -1.357  -2.834   2.046  1.00  0.00     0.332 C
HETATM   11  O3  UNL     1      -1.717  -2.884   0.842  1.00  0.00    -0.246 OA
HETATM   12  N5  UNL     1      -0.601  -3.882   2.418  1.00  0.00    -0.280 N
ENDROOT
BRANCH  12  13
HETATM   13  C5  UNL     1      -0.330  -4.887   1.414  1.00  0.00     0.135 C
BRANCH  13  14
HETATM   14  C6  UNL     1       0.574  -4.371   0.320  1.00  0.00     0.022 C
BRANCH  14  15
HETATM   15  C7  UNL     1       0.219  -5.030  -0.996  1.00  0.00     0.019 C
BRANCH  15  16
HETATM   16  C8  UNL     1       0.102  -3.971  -2.042  1.00  0.00     0.134 C
BRANCH  16  17
HETATM   17  N6  UNL     1      -0.172  -4.504  -3.359  1.00  0.00    -0.148 NA
BRANCH  17  18
HETATM   18  N7  UNL     1      -1.512  -4.499  -3.680  1.00  0.00    -0.348 N
ATOM     19  H72 UNL     1      -2.110  -5.315  -3.554  1.00  0.00     0.172 HD
ATOM     20  H71 UNL     1      -1.834  -3.604  -4.051  1.00  0.00     0.172 HD
ENDBRANCH  17  18
ENDBRANCH  16  17
ENDBRANCH  15  16
ENDBRANCH  14  15
ENDBRANCH  13  14
ENDBRANCH  12  13
BRANCH   1  21
HETATM   21  N2  UNL     1       0.386  -5.240   3.825  1.00  0.00    -0.287 N
ATOM     22  H2  UNL     1       1.134  -5.596   3.229  1.00  0.00     0.188 HD
BRANCH  21  23
HETATM   23  N1  UNL     1      -0.140  -6.031   4.848  1.00  0.00    -0.343 N
ATOM     24  H12 UNL     1      -1.079  -5.840   5.197  1.00  0.00     0.176 HD
ATOM     25  H11 UNL     1       0.426  -6.788   5.230  1.00  0.00     0.176 HD
ENDBRANCH  21  23
ENDBRANCH   1  21
TORSDOF 8
ENDMDL