MODEL 2
REMARK VINA RESULT: -7.988742657      0.780      1.365
REMARK  4 active torsions:
REMARK  status: ('A' for Active; 'I' for Inactive)
REMARK    1  A    between atoms: C1_2  and  O2_4
REMARK    2  A    between atoms: O2_4  and  N2_5
REMARK       I    between atoms: N2_5  and  C2_6
REMARK       I    between atoms: C2_6  and  N3_7
REMARK       I    between atoms: C2_6  and  N4_11
REMARK       I    between atoms: N4_11  and  C3_13
REMARK    3  A    between atoms: C3_13  and  C4_15
REMARK    4  A    between atoms: C4_15  and  C5_17
ROOT
HETATM    1  N2  UNL     1      -0.159  -5.592  -1.647  1.00  0.00    -0.035 NA
HETATM    2  C2  UNL     1       0.212  -4.441  -0.829  1.00  0.00     0.407 C
HETATM    3  N3  UNL     1       1.589  -4.074  -1.012  1.00  0.00    -0.042 N
ATOM      4  H31 UNL     1       1.849  -3.270  -0.440  1.00  0.00     0.278 HD
ATOM      5  H32 UNL     1       1.803  -3.913  -1.996  1.00  0.00     0.278 HD
ATOM      6  H33 UNL     1       2.210  -4.866  -0.840  1.00  0.00     0.278 HD
HETATM    7  N4  UNL     1      -0.095  -4.713   0.548  1.00  0.00    -0.312 N
ATOM      8  H4  UNL     1       0.391  -5.478   1.016  1.00  0.00     0.166 HD
HETATM    9  C3  UNL     1      -1.072  -3.943   1.306  1.00  0.00     0.295 C
HETATM   10  O3  UNL     1      -1.607  -3.031   0.638  1.00  0.00    -0.264 OA
ENDROOT
BRANCH   9  11
HETATM   11  C4  UNL     1      -1.310  -4.286   2.666  1.00  0.00     0.256 C
HETATM   12  O4  UNL     1      -1.799  -5.464   2.863  1.00  0.00    -0.281 OA
BRANCH  11  13
HETATM   13  C5  UNL     1      -1.063  -3.463   3.829  1.00  0.00     0.106 A
HETATM   14  C6  UNL     1      -1.399  -2.088   3.904  1.00  0.00     0.128 A
HETATM   15  N5  UNL     1      -1.037  -1.634   5.106  1.00  0.00    -0.308 N
HETATM   16  N6  UNL     1      -0.495  -2.595   5.814  1.00  0.00    -0.266 N
ATOM     17  H5  UNL     1      -1.163  -0.674   5.428  1.00  0.00     0.186 HD
HETATM   18  C7  UNL     1      -0.502  -3.726   5.047  1.00  0.00     0.275 A
ATOM     19  H6  UNL     1      -0.135  -2.514   6.765  1.00  0.00     0.190 HD
HETATM   20  O5  UNL     1      -0.044  -4.841   5.444  1.00  0.00    -0.266 OA
ENDBRANCH  11  13
ENDBRANCH   9  11
BRANCH   1  21
HETATM   21  O2  UNL     1       0.018  -5.332  -2.977  1.00  0.00    -0.188 OA
BRANCH  21  22
HETATM   22  C1  UNL     1      -0.623  -4.321  -3.665  1.00  0.00     0.391 C
HETATM   23  N1  UNL     1      -1.801  -4.555  -4.433  1.00  0.00    -0.031 NA
HETATM   24  O1  UNL     1      -0.151  -3.157  -3.609  1.00  0.00    -0.241 OA
ENDBRANCH  21  22
ENDBRANCH   1  21
TORSDOF 4
ENDMDL