MODEL 1
REMARK VINA RESULT: -7.363414885      0.000      0.000
REMARK  7 active torsions:
REMARK  status: ('A' for Active; 'I' for Inactive)
REMARK    1  A    between atoms: N1_1  and  N2_4
REMARK    2  A    between atoms: C1_6  and  C2_8
REMARK    3  A    between atoms: C2_8  and  O1_9
REMARK    4  A    between atoms: C2_8  and  C4_17
REMARK    5  A    between atoms: O1_9  and  C3_10
REMARK       I    between atoms: C3_10  and  N4_12
REMARK    6  A    between atoms: N4_12  and  N5_14
REMARK    7  A    between atoms: C6_21  and  C7_22
ROOT
HETATM    1  C2  UNL     1      -1.144  -2.721   3.988  1.00  0.00     0.258 C
ENDROOT
BRANCH   1   2
HETATM    2  C1  UNL     1      -1.449  -1.295   3.726  1.00  0.00     0.143 C
HETATM    3  N2  UNL     1      -0.462  -0.491   3.529  1.00  0.00    -0.295 N
ATOM      4  H2  UNL     1      -0.676   0.490   3.349  1.00  0.00     0.187 HD
HETATM    5  N3  UNL     1      -2.770  -0.778   3.685  1.00  0.00    -0.083 NA
BRANCH   3   6
HETATM    6  N1  UNL     1       0.866  -0.869   3.544  1.00  0.00    -0.344 N
ATOM      7  H12 UNL     1       1.117  -1.688   2.989  1.00  0.00     0.176 HD
ATOM      8  H11 UNL     1       1.596  -0.386   4.067  1.00  0.00     0.176 HD
ENDBRANCH   3   6
ENDBRANCH   1   2
BRANCH   1   9
HETATM    9  O1  UNL     1       0.074  -2.750   4.686  1.00  0.00    -0.283 OA
BRANCH   9  10
HETATM   10  C3  UNL     1       0.401  -3.616   5.695  1.00  0.00     0.380 C
HETATM   11  O2  UNL     1      -0.089  -4.766   5.669  1.00  0.00    -0.237 OA
HETATM   12  N4  UNL     1       1.279  -3.191   6.732  1.00  0.00    -0.252 N
ATOM     13  H4  UNL     1       1.646  -2.240   6.697  1.00  0.00     0.191 HD
BRANCH  12  14
HETATM   14  N5  UNL     1       1.662  -4.012   7.798  1.00  0.00    -0.341 N
ATOM     15  H52 UNL     1       2.334  -4.753   7.600  1.00  0.00     0.177 HD
ATOM     16  H51 UNL     1       1.302  -3.902   8.746  1.00  0.00     0.177 HD
ENDBRANCH  12  14
ENDBRANCH   9  10
ENDBRANCH   1   9
BRANCH   1  17
HETATM   17  C4  UNL     1      -1.152  -3.547   2.773  1.00  0.00     0.107 A
HETATM   18  C5  UNL     1      -2.094  -4.422   2.302  1.00  0.00     0.126 A
HETATM   19  N6  UNL     1      -1.640  -4.928   1.158  1.00  0.00    -0.340 N
HETATM   20  C6  UNL     1      -0.434  -4.390   0.898  1.00  0.00     0.214 A
ATOM     21  H6  UNL     1      -2.125  -5.610   0.575  1.00  0.00     0.167 HD
HETATM   22  O4  UNL     1      -0.173  -3.571   1.883  1.00  0.00    -0.289 OA
BRANCH  20  23
HETATM   23  C7  UNL     1       0.427  -4.658  -0.250  1.00  0.00     0.306 C
HETATM   24  N7  UNL     1       0.172  -5.762  -1.098  1.00  0.00    -0.054 NA
HETATM   25  O3  UNL     1       1.401  -3.914  -0.497  1.00  0.00    -0.267 OA
ENDBRANCH  20  23
ENDBRANCH   1  17
TORSDOF 7
ENDMDL