MODEL 5
REMARK VINA RESULT: -6.784730350      1.958      3.079
REMARK  7 active torsions:
REMARK  status: ('A' for Active; 'I' for Inactive)
REMARK    1  A    between atoms: C1_4  and  O1_6
REMARK    2  A    between atoms: O1_6  and  N3_7
REMARK       I    between atoms: C2_9  and  N5_11
REMARK    3  A    between atoms: N5_11  and  N6_13
REMARK    4  A    between atoms: N6_13  and  N7_15
REMARK    5  A    between atoms: C3_17  and  C4_18
REMARK    6  A    between atoms: C3_17  and  C5_22
REMARK    7  A    between atoms: C4_18  and  N8_19
ROOT
HETATM    1  N3  UNL     1      -0.502  -5.326  -1.179  1.00  0.00    -0.228 N
ATOM      2  H3  UNL     1      -1.267  -5.862  -0.769  1.00  0.00     0.197 HD
HETATM    3  C2  UNL     1       0.210  -4.524  -0.459  1.00  0.00     0.228 C
HETATM    4  N4  UNL     1       1.278  -3.769  -1.012  1.00  0.00    -0.060 NA
HETATM    5  N5  UNL     1      -0.056  -4.369   0.921  1.00  0.00    -0.257 N
ATOM      6  H5  UNL     1      -1.006  -4.139   1.212  1.00  0.00     0.191 HD
ENDROOT
BRANCH   5   7
HETATM    7  N6  UNL     1       0.920  -4.518   1.899  1.00  0.00    -0.240 N
ATOM      8  H6  UNL     1       1.909  -4.399   1.681  1.00  0.00     0.208 HD
BRANCH   7   9
HETATM    9  N7  UNL     1       0.496  -4.835   3.189  1.00  0.00    -0.283 N
HETATM   10  C3  UNL     1       0.316  -3.899   4.046  1.00  0.00     0.115 C
ATOM     11  H7  UNL     1       0.330  -5.807   3.449  1.00  0.00     0.188 HD
BRANCH  10  12
HETATM   12  C4  UNL     1       0.566  -2.499   3.636  1.00  0.00     0.265 C
BRANCH  12  13
HETATM   13  N8  UNL     1      -0.664  -1.797   3.317  1.00  0.00    -0.150 N
HETATM   14  O2  UNL     1      -0.954  -0.736   3.882  1.00  0.00    -0.536 OA
HETATM   15  O3  UNL     1      -1.481  -2.346   2.380  1.00  0.00    -0.536 OA
ENDBRANCH  12  13
ENDBRANCH  10  12
BRANCH  10  16
HETATM   16  C5  UNL     1      -0.122  -4.220   5.385  1.00  0.00     0.280 C
HETATM   17  N9  UNL     1      -0.141  -3.288   6.444  1.00  0.00    -0.056 NA
HETATM   18  O4  UNL     1      -0.510  -5.388   5.637  1.00  0.00    -0.270 OA
ENDBRANCH  10  16
ENDBRANCH   7   9
ENDBRANCH   5   7
BRANCH   1  19
HETATM   19  O1  UNL     1      -0.195  -5.436  -2.522  1.00  0.00    -0.202 OA
BRANCH  19  20
HETATM   20  C1  UNL     1      -0.751  -4.539  -3.440  1.00  0.00     0.249 C
HETATM   21  N1  UNL     1      -0.302  -3.340  -3.416  1.00  0.00    -0.366 N
ATOM     22  H12 UNL     1      -0.708  -2.685  -4.085  1.00  0.00     0.159 HD
ATOM     23  H11 UNL     1       0.424  -3.045  -2.762  1.00  0.00     0.159 HD
HETATM   24  N2  UNL     1      -1.771  -4.953  -4.358  1.00  0.00    -0.055 NA
ENDBRANCH  19  20
ENDBRANCH   1  19
TORSDOF 7
ENDMDL