MODEL 5
REMARK VINA RESULT: -5.270600882      1.624      3.880
REMARK  10 active torsions:
REMARK  status: ('A' for Active; 'I' for Inactive)
REMARK    1  A    between atoms: C3_8  and  C4_9
REMARK    2  A    between atoms: C4_9  and  O1_10
REMARK    3  A    between atoms: C4_9  and  N3_12
REMARK    4  A    between atoms: N3_12  and  C5_13
REMARK    5  A    between atoms: C5_13  and  O2_14
REMARK    6  A    between atoms: O2_14  and  N4_15
REMARK    7  A    between atoms: N5_18  and  O3_19
REMARK    8  A    between atoms: O3_19  and  C6_20
REMARK    9  A    between atoms: C6_20  and  C7_21
REMARK       I    between atoms: C7_21  and  N6_23
REMARK   10  A    between atoms: N6_23  and  N7_24
ROOT
HETATM    1  N1  UNL     1       1.156  -3.556   6.250  1.00  0.00    -0.232 N
ATOM      2  H11 UNL     1       1.491  -2.593   6.240  1.00  0.00     0.174 HD
ATOM      3  H12 UNL     1       1.344  -3.970   7.163  1.00  0.00     0.174 HD
HETATM    4  C1  UNL     1       0.497  -3.992   5.230  1.00  0.00     0.703 A
HETATM    5  N2  UNL     1       0.045  -5.292   5.244  1.00  0.00    -0.198 N
ATOM      6  H2  UNL     1       0.101  -5.935   6.034  1.00  0.00     0.183 HD
HETATM    7  C2  UNL     1      -0.481  -5.566   4.047  1.00  0.00     0.144 A
HETATM    8  C3  UNL     1      -0.357  -4.448   3.302  1.00  0.00     0.162 A
HETATM    9  N5  UNL     1       0.253  -3.453   4.039  1.00  0.00    -0.043 N
ENDROOT
BRANCH   8  10
HETATM   10  C4  UNL     1      -0.823  -4.242   1.902  1.00  0.00     0.242 C
BRANCH  10  11
HETATM   11  O1  UNL     1      -2.064  -3.838   1.929  1.00  0.00    -0.334 OA
ATOM     12  H1  UNL     1      -2.608  -4.545   2.255  1.00  0.00     0.220 HD
ENDBRANCH  10  11
BRANCH  10  13
HETATM   13  N3  UNL     1      -0.021  -4.463   0.828  1.00  0.00    -0.394 NA
BRANCH  13  14
HETATM   14  C5  UNL     1       0.778  -4.683  -0.242  1.00  0.00     0.421 C
BRANCH  14  15
HETATM   15  O2  UNL     1       0.323  -5.870  -0.926  1.00  0.00    -0.255 OA
BRANCH  15  16
HETATM   16  N4  UNL     1      -0.388  -5.441  -2.019  1.00  0.00    -0.308 N
ATOM     17  H42 UNL     1      -0.712  -4.488  -2.187  1.00  0.00     0.184 HD
ATOM     18  H41 UNL     1      -0.523  -6.257  -2.616  1.00  0.00     0.184 HD
ENDBRANCH  15  16
ENDBRANCH  14  15
ENDBRANCH  13  14
ENDBRANCH  10  13
ENDBRANCH   8  10
BRANCH   9  19
HETATM   19  O3  UNL     1       0.392  -2.186   3.687  1.00  0.00    -0.249 OA
BRANCH  19  20
HETATM   20  C6  UNL     1       0.066  -0.913   3.776  1.00  0.00     0.323 C
BRANCH  20  21
HETATM   21  C7  UNL     1      -1.483  -0.873   3.654  1.00  0.00     0.337 C
HETATM   22  O4  UNL     1      -2.058  -0.807   4.766  1.00  0.00    -0.253 OA
HETATM   23  N6  UNL     1      -2.018  -0.928   2.447  1.00  0.00    -0.292 NA
BRANCH  23  24
HETATM   24  N7  UNL     1      -2.558  -0.983   1.233  1.00  0.00    -0.277 N
ATOM     25  H72 UNL     1      -2.138  -0.922   2.161  1.00  0.00     0.191 HD
ATOM     26  H71 UNL     1      -2.971  -1.025   0.302  1.00  0.00     0.191 HD
ENDBRANCH  23  24
ENDBRANCH  20  21
ENDBRANCH  19  20
ENDBRANCH   9  19
TORSDOF 10
ENDMDL