MODEL 1
REMARK VINA RESULT: -10.214373743      0.000      0.000
REMARK  4 active torsions:
REMARK  status: ('A' for Active; 'I' for Inactive)
REMARK       I    between atoms: N1_1  and  C1_4
REMARK       I    between atoms: C1_4  and  N3_6
REMARK    1  A    between atoms: N3_6  and  C2_8
REMARK    2  A    between atoms: C2_8  and  O1_9
REMARK    3  A    between atoms: O1_9  and  C3_10
REMARK    4  A    between atoms: C3_10  and  N4_11
ROOT
HETATM    1  N4  UNL     1      -0.370  -4.586   2.164  1.00  0.00    -0.244 N
HETATM    2  N5  UNL     1       0.309  -5.584   2.723  1.00  0.00    -0.016 NA
HETATM    3  N6  UNL     1       0.468  -5.338   4.014  1.00  0.00    -0.266 N
ATOM      4  H6  UNL     1       0.955  -5.949   4.669  1.00  0.00     0.186 HD
HETATM    5  C4  UNL     1      -0.112  -4.157   4.340  1.00  0.00     0.166 A
HETATM    6  N7  UNL     1      -0.233  -3.465   5.486  1.00  0.00    -0.280 N
ATOM      7  H7  UNL     1       0.168  -3.836   6.348  1.00  0.00     0.188 HD
HETATM    8  N8  UNL     1      -0.870  -2.307   5.502  1.00  0.00    -0.261 N
ATOM      9  H8  UNL     1      -0.961  -1.783   6.373  1.00  0.00     0.190 HD
HETATM   10  C5  UNL     1      -1.400  -1.823   4.354  1.00  0.00     0.312 A
HETATM   11  O2  UNL     1      -2.015  -0.708   4.363  1.00  0.00    -0.262 OA
HETATM   12  C6  UNL     1      -1.303  -2.493   3.152  1.00  0.00     0.272 A
HETATM   13  O3  UNL     1      -1.785  -2.058   2.092  1.00  0.00    -0.280 OA
HETATM   14  C7  UNL     1      -0.641  -3.696   3.136  1.00  0.00     0.153 A
ENDROOT
BRANCH   1  15
HETATM   15  C3  UNL     1      -0.722  -4.525   0.770  1.00  0.00     0.317 C
BRANCH  15  16
HETATM   16  O1  UNL     1       0.105  -5.377   0.060  1.00  0.00    -0.352 OA
BRANCH  16  17
HETATM   17  C2  UNL     1       0.565  -4.831  -1.121  1.00  0.00     0.295 C
BRANCH  17  18
HETATM   18  N3  UNL     1      -0.556  -4.292  -1.855  1.00  0.00    -0.344 N
HETATM   19  C1  UNL     1      -0.410  -3.976  -3.257  1.00  0.00     0.183 C
HETATM   20  N1  UNL     1       0.537  -3.186  -3.635  1.00  0.00    -0.374 N
HETATM   21  N2  UNL     1      -1.342  -4.570  -4.151  1.00  0.00    -0.064 NA
ATOM     22  H12 UNL     1       0.640  -2.963  -4.625  1.00  0.00     0.158 HD
ATOM     23  H11 UNL     1       1.206  -2.759  -2.993  1.00  0.00     0.158 HD
ATOM     24  H3  UNL     1      -1.447  -4.135  -1.385  1.00  0.00     0.164 HD
ENDBRANCH  17  18
ENDBRANCH  16  17
ENDBRANCH  15  16
ENDBRANCH   1  15
TORSDOF 4
ENDMDL