MODEL 1
REMARK VINA RESULT: -6.564943590      0.000      0.000
REMARK  7 active torsions:
REMARK  status: ('A' for Active; 'I' for Inactive)
REMARK    1  A    between atoms: C2_2  and  O1_3
REMARK    2  A    between atoms: O1_3  and  C3_4
REMARK       I    between atoms: C3_4  and  N1_6
REMARK    3  A    between atoms: N1_6  and  C4_8
REMARK    4  A    between atoms: C4_8  and  N2_9
REMARK    5  A    between atoms: C4_8  and  C5_13
REMARK    6  A    between atoms: C4_8  and  C7_22
REMARK    7  A    between atoms: C5_13  and  N3_14
ROOT
HETATM    1  C4  UNL     1      -0.561  -2.701   4.086  1.00  0.00     0.296 C
ENDROOT
BRANCH   1   2
HETATM    2  N1  UNL     1      -0.481  -2.515   5.524  1.00  0.00    -0.295 N
HETATM    3  C3  UNL     1       0.258  -3.431   6.306  1.00  0.00     0.362 C
HETATM    4  O2  UNL     1       0.834  -4.393   5.755  1.00  0.00    -0.238 OA
ATOM      5  H1  UNL     1      -0.957  -1.728   5.967  1.00  0.00     0.167 HD
BRANCH   3   6
HETATM    6  O1  UNL     1       0.367  -3.296   7.679  1.00  0.00    -0.304 OA
BRANCH   6   7
HETATM    7  C2  UNL     1       1.599  -3.075   8.325  1.00  0.00     0.176 C
HETATM    8  C1  UNL     1       2.343  -4.381   8.383  1.00  0.00     0.034 C
ENDBRANCH   6   7
ENDBRANCH   3   6
ENDBRANCH   1   2
BRANCH   1   9
HETATM    9  N2  UNL     1       0.698  -2.435   3.497  1.00  0.00    -0.042 N
ATOM     10  H23 UNL     1       0.610  -1.907   2.629  1.00  0.00     0.278 HD
ATOM     11  H22 UNL     1       1.234  -1.752   4.032  1.00  0.00     0.278 HD
ATOM     12  H21 UNL     1       1.210  -3.307   3.365  1.00  0.00     0.278 HD
ENDBRANCH   1   9
BRANCH   1  13
HETATM   13  C5  UNL     1      -1.116  -4.079   3.781  1.00  0.00     0.238 C
BRANCH  13  14
HETATM   14  N3  UNL     1      -0.898  -4.427   2.376  1.00  0.00    -0.211 N
HETATM   15  N4  UNL     1       0.338  -4.548   1.733  1.00  0.00    -0.257 N
HETATM   16  C6  UNL     1       0.165  -4.363   0.445  1.00  0.00     0.221 C
ATOM     17  H4  UNL     1       1.227  -4.747   2.190  1.00  0.00     0.191 HD
HETATM   18  N5  UNL     1       1.159  -4.401  -0.563  1.00  0.00    -0.061 NA
HETATM   19  N6  UNL     1      -1.223  -4.118   0.258  1.00  0.00    -0.255 N
HETATM   20  N7  UNL     1      -1.848  -4.708   1.388  1.00  0.00    -0.002 NA
ATOM     21  H6  UNL     1      -1.671  -3.627  -0.516  1.00  0.00     0.187 HD
ENDBRANCH  13  14
ENDBRANCH   1  13
BRANCH   1  22
HETATM   22  C7  UNL     1      -1.552  -1.741   3.553  1.00  0.00     0.290 C
HETATM   23  N8  UNL     1      -2.169  -0.839   4.449  1.00  0.00    -0.058 NA
HETATM   24  O3  UNL     1      -1.849  -1.714   2.348  1.00  0.00    -0.272 OA
ENDBRANCH   1  22
TORSDOF 7
ENDMDL