MODEL 2
REMARK VINA RESULT: -6.781743686      1.741      4.057
REMARK  11 active torsions:
REMARK  status: ('A' for Active; 'I' for Inactive)
REMARK    1  A    between atoms: C2_3  and  O1_4
REMARK    2  A    between atoms: C3_7  and  N2_8
REMARK    3  A    between atoms: N2_8  and  C4_10
REMARK    4  A    between atoms: C4_10  and  C5_11
REMARK    5  A    between atoms: C5_11  and  C6_12
REMARK    6  A    between atoms: C6_12  and  N3_13
REMARK    7  A    between atoms: N3_13  and  C7_15
REMARK    8  A    between atoms: C7_15  and  C8_16
REMARK    9  A    between atoms: C8_16  and  C9_17
REMARK   10  A    between atoms: C9_17  and  N4_18
REMARK   11  A    between atoms: C11_23  and  O3_24
ROOT
HETATM    1  N1  UNL     1      14.912   6.542  17.419  1.00  0.00    -0.191 NA
HETATM    2  C1  UNL     1      14.376   5.937  16.571  1.00  0.00     0.130 C
HETATM    3  C2  UNL     1      13.684   5.156  15.520  1.00  0.00     0.286 C
HETATM    4  O2  UNL     1      13.363   3.940  16.058  1.00  0.00    -0.314 OA
HETATM    5  C3  UNL     1      13.067   2.928  15.089  1.00  0.00     0.256 C
HETATM    6  C11 UNL     1      11.692   3.040  14.607  1.00  0.00     0.197 C
HETATM    7  C12 UNL     1      11.104   4.424  14.627  1.00  0.00     0.221 C
HETATM    8  C13 UNL     1      11.224   5.159  15.919  1.00  0.00     0.075 C
HETATM    9  C14 UNL     1      12.382   5.863  15.222  1.00  0.00     0.266 C
HETATM   10  N7  UNL     1      11.924   5.401  13.942  1.00  0.00    -0.058 N
ATOM     11  H71 UNL     1      11.509   6.050  13.274  1.00  0.00     0.278 HD
ATOM     12  H72 UNL     1      12.590   5.110  13.226  1.00  0.00     0.278 HD
ENDROOT
BRANCH   3  13
HETATM   13  O1  UNL     1      14.544   5.117  14.454  1.00  0.00    -0.352 OA
ATOM     14  H1  UNL     1      15.240   4.521  14.704  1.00  0.00     0.214 HD
ENDBRANCH   3  13
BRANCH   5  15
HETATM   15  N2  UNL     1      13.452   1.701  15.744  1.00  0.00    -0.374 N
ATOM     16  H2  UNL     1      14.241   1.154  15.396  1.00  0.00     0.161 HD
BRANCH  15  17
HETATM   17  C4  UNL     1      12.735   1.274  16.852  1.00  0.00     0.059 C
BRANCH  17  18
HETATM   18  C5  UNL     1      12.835  -0.016  17.513  1.00  0.00     0.063 C
BRANCH  18  19
HETATM   19  C6  UNL     1      13.793  -1.028  16.883  1.00  0.00     0.123 C
BRANCH  19  20
HETATM   20  N3  UNL     1      14.817  -1.283  17.845  1.00  0.00    -0.402 N
ATOM     21  H3  UNL     1      14.619  -1.240  18.845  1.00  0.00     0.158 HD
BRANCH  20  22
HETATM   22  C7  UNL     1      16.106  -1.595  17.377  1.00  0.00     0.057 C
BRANCH  22  23
HETATM   23  C8  UNL     1      17.057  -0.485  17.794  1.00  0.00     0.063 C
BRANCH  23  24
HETATM   24  C9  UNL     1      16.605   0.880  17.326  1.00  0.00     0.127 C
BRANCH  24  25
HETATM   25  N4  UNL     1      16.844   1.118  15.954  1.00  0.00    -0.367 N
HETATM   26  C10 UNL     1      16.976   2.198  15.307  1.00  0.00     0.196 C
HETATM   27  N5  UNL     1      17.215   2.068  13.900  1.00  0.00    -0.067 NA
HETATM   28  N6  UNL     1      16.914   3.517  15.814  1.00  0.00    -0.067 NA
ATOM     29  H4  UNL     1      16.924   0.275  15.387  1.00  0.00     0.161 HD
ENDBRANCH  24  25
ENDBRANCH  23  24
ENDBRANCH  22  23
ENDBRANCH  20  22
ENDBRANCH  19  20
ENDBRANCH  18  19
ENDBRANCH  17  18
ENDBRANCH  15  17
ENDBRANCH   5  15
BRANCH   6  30
HETATM   30  O3  UNL     1      11.658   2.671  13.216  1.00  0.00    -0.389 OA
ATOM     31  H3  UNL     1      10.881   3.048  12.819  1.00  0.00     0.210 HD
ENDBRANCH   6  30
TORSDOF 11
ENDMDL