MODEL 5
REMARK VINA RESULT: -6.600973803      2.828      5.484
REMARK  13 active torsions:
REMARK  status: ('A' for Active; 'I' for Inactive)
REMARK    1  A    between atoms: O1_2  and  C2_3
REMARK    2  A    between atoms: C2_3  and  N1_4
REMARK    3  A    between atoms: C3_5  and  N2_6
REMARK    4  A    between atoms: C5_12  and  N4_13
REMARK    5  A    between atoms: N4_13  and  C6_15
REMARK    6  A    between atoms: C6_15  and  C7_16
REMARK    7  A    between atoms: C7_16  and  O2_17
REMARK    8  A    between atoms: N6_22  and  C9_24
REMARK    9  A    between atoms: C9_24  and  C10_25
REMARK   10  A    between atoms: C10_25  and  N7_26
REMARK   11  A    between atoms: N7_26  and  C11_28
REMARK   12  A    between atoms: C11_28  and  C12_29
REMARK   13  A    between atoms: C12_29  and  N8_30
ROOT
HETATM    1  N1  UNL     1      15.241   0.054  17.034  1.00  0.00    -0.120 N
HETATM    2  C3  UNL     1      16.528  -0.298  17.059  1.00  0.00     0.686 A
HETATM    3  N3  UNL     1      17.236   0.732  16.513  1.00  0.00    -0.184 N
ATOM      4  H3  UNL     1      18.249   0.757  16.394  1.00  0.00     0.184 HD
HETATM    5  C4  UNL     1      16.389   1.704  16.158  1.00  0.00     0.139 A
HETATM    6  C5  UNL     1      16.526   2.939  15.577  1.00  0.00     0.148 A
HETATM    7  N5  UNL     1      15.403   3.697  15.346  1.00  0.00    -0.174 N
ATOM      8  H5  UNL     1      15.520   4.613  14.912  1.00  0.00     0.186 HD
HETATM    9  C8  UNL     1      14.162   3.296  15.659  1.00  0.00     0.685 A
HETATM   10  N6  UNL     1      13.174   4.067  15.409  1.00  0.00    -0.204 N
ATOM     11  H6  UNL     1      13.431   4.954  14.976  1.00  0.00     0.183 HD
HETATM   12  N9  UNL     1      14.060   2.086  16.226  1.00  0.00    -0.173 N
ATOM     13  H9  UNL     1      13.129   1.755  16.476  1.00  0.00     0.186 HD
HETATM   14  C13 UNL     1      15.106   1.276  16.489  1.00  0.00     0.176 A
ENDROOT
BRANCH  10  15
HETATM   15  C9  UNL     1      11.798   3.908  15.626  1.00  0.00     0.098 C
BRANCH  15  16
HETATM   16  C10 UNL     1      11.007   3.520  14.398  1.00  0.00     0.159 C
BRANCH  16  17
HETATM   17  N7  UNL     1      11.852   3.056  13.346  1.00  0.00    -0.415 N
ATOM     18  H7  UNL     1      12.495   2.273  13.463  1.00  0.00     0.153 HD
BRANCH  17  19
HETATM   19  C11 UNL     1      11.729   3.779  12.109  1.00  0.00     0.141 C
BRANCH  19  20
HETATM   20  C12 UNL     1      11.875   2.877  10.903  1.00  0.00     0.248 C
BRANCH  20  21
HETATM   21  N8  UNL     1      10.583   2.383  10.529  1.00  0.00    -0.078 N
ATOM     22  H83 UNL     1       9.906   3.134  10.390  1.00  0.00     0.274 HD
ATOM     23  H82 UNL     1      10.572   2.004   9.581  1.00  0.00     0.274 HD
ATOM     24  H81 UNL     1      10.272   1.703  11.222  1.00  0.00     0.274 HD
ENDBRANCH  20  21
ENDBRANCH  19  20
ENDBRANCH  17  19
ENDBRANCH  16  17
ENDBRANCH  15  16
ENDBRANCH  10  15
BRANCH   6  25
HETATM   25  N4  UNL     1      17.632   3.412  15.257  1.00  0.00    -0.372 N
ATOM     26  H4  UNL     1      18.331   2.673  15.175  1.00  0.00     0.161 HD
BRANCH  25  27
HETATM   27  C6  UNL     1      18.193   4.650  14.979  1.00  0.00     0.147 C
BRANCH  27  28
HETATM   28  C7  UNL     1      19.507   4.503  14.180  1.00  0.00     0.183 C
BRANCH  28  29
HETATM   29  O2  UNL     1      19.549   5.323  13.080  1.00  0.00    -0.399 OA
ATOM     30  H2  UNL     1      18.812   5.921  13.043  1.00  0.00     0.209 HD
ENDBRANCH  28  29
ENDBRANCH  27  28
ENDBRANCH  25  27
ENDBRANCH   6  25
BRANCH   1  31
HETATM   31  C2  UNL     1      14.149  -0.746  17.535  1.00  0.00     0.252 C
BRANCH  31  32
HETATM   32  O1  UNL     1      13.159  -0.077  18.181  1.00  0.00    -0.350 OA
HETATM   33  C1  UNL     1      11.890  -0.151  17.646  1.00  0.00     0.210 C
ENDBRANCH  31  32
ENDBRANCH   1  31
BRANCH   2  34
HETATM   34  N2  UNL     1      17.087  -1.391  17.488  1.00  0.00    -0.234 N
ATOM     35  H22 UNL     1      17.623  -2.014  16.885  1.00  0.00     0.174 HD
ATOM     36  H21 UNL     1      17.089  -1.802  18.422  1.00  0.00     0.174 HD
ENDBRANCH   2  34
TORSDOF 13
ENDMDL