MODEL 5
REMARK VINA RESULT: -6.562350654      3.962      6.275
REMARK  11 active torsions:
REMARK  status: ('A' for Active; 'I' for Inactive)
REMARK    1  A    between atoms: N1_1  and  C1_4
REMARK    2  A    between atoms: N4_11  and  C4_12
REMARK    3  A    between atoms: C4_12  and  C5_13
REMARK       I    between atoms: C5_13  and  N5_15
REMARK    4  A    between atoms: N5_15  and  C6_17
REMARK    5  A    between atoms: C6_17  and  C7_18
REMARK    6  A    between atoms: C7_18  and  N6_19
REMARK    7  A    between atoms: N6_19  and  C8_22
REMARK    8  A    between atoms: C8_22  and  C9_23
REMARK    9  A    between atoms: C10_25  and  C11_26
REMARK   10  A    between atoms: C11_26  and  N7_27
REMARK   11  A    between atoms: C12_31  and  O3_32
ROOT
HETATM    1  C5  UNL     1      13.664   4.338  15.805  1.00  0.00     0.235 C
HETATM    2  O1  UNL     1      13.581   4.924  16.899  1.00  0.00    -0.272 OA
HETATM    3  N5  UNL     1      13.004   4.693  14.637  1.00  0.00    -0.358 N
ATOM      4  H5  UNL     1      13.191   4.079  13.844  1.00  0.00     0.162 HD
ENDROOT
BRANCH   3   5
HETATM    5  C6  UNL     1      12.115   5.761  14.354  1.00  0.00     0.150 C
BRANCH   5   6
HETATM    6  C7  UNL     1      10.728   5.592  14.884  1.00  0.00     0.252 C
BRANCH   6   7
HETATM    7  N6  UNL     1      10.635   5.810  16.284  1.00  0.00    -0.071 N
ATOM      8  H62 UNL     1      10.481   4.929  16.775  1.00  0.00     0.277 HD
ATOM      9  H61 UNL     1      11.544   6.064  16.671  1.00  0.00     0.277 HD
BRANCH   7  10
HETATM   10  C8  UNL     1       9.635   6.781  16.652  1.00  0.00     0.266 C
BRANCH  10  11
HETATM   11  C9  UNL     1      10.155   7.567  17.826  1.00  0.00     0.179 C
HETATM   12  O2  UNL     1       9.290   7.639  18.917  1.00  0.00    -0.372 OA
HETATM   13  C10 UNL     1      10.431   7.681  19.715  1.00  0.00     0.178 C
HETATM   14  C12 UNL     1      11.087   6.764  18.747  1.00  0.00     0.179 C
BRANCH  13  15
HETATM   15  C11 UNL     1      10.261   7.202  21.119  1.00  0.00     0.264 C
BRANCH  15  16
HETATM   16  N7  UNL     1       9.210   7.868  21.842  1.00  0.00    -0.077 N
ATOM     17  H73 UNL     1       8.408   8.036  21.233  1.00  0.00     0.274 HD
ATOM     18  H72 UNL     1       8.784   7.235  22.518  1.00  0.00     0.274 HD
ATOM     19  H71 UNL     1       9.503   8.734  22.295  1.00  0.00     0.274 HD
ENDBRANCH  15  16
ENDBRANCH  13  15
BRANCH  14  20
HETATM   20  O3  UNL     1      12.438   7.015  18.512  1.00  0.00    -0.390 OA
ATOM     21  H3  UNL     1      13.010   6.345  18.868  1.00  0.00     0.210 HD
ENDBRANCH  14  20
ENDBRANCH  10  11
ENDBRANCH   7  10
ENDBRANCH   6   7
ENDBRANCH   5   6
ENDBRANCH   3   5
BRANCH   1  22
HETATM   22  C4  UNL     1      14.587   3.139  15.824  1.00  0.00     0.234 C
BRANCH  22  23
HETATM   23  N4  UNL     1      13.872   1.931  16.158  1.00  0.00    -0.317 N
HETATM   24  C3  UNL     1      12.538   1.734  16.076  1.00  0.00     0.186 A
HETATM   25  N3  UNL     1      12.269   0.494  16.475  1.00  0.00    -0.335 N
HETATM   26  C2  UNL     1      13.421  -0.100  16.810  1.00  0.00     0.167 A
ATOM     27  H3  UNL     1      11.343   0.068  16.518  1.00  0.00     0.168 HD
HETATM   28  N2  UNL     1      14.020  -1.219  17.264  1.00  0.00    -0.173 N
HETATM   29  C13 UNL     1      14.434   0.801  16.612  1.00  0.00     0.169 A
HETATM   30  C1  UNL     1      15.338  -1.013  17.342  1.00  0.00     0.679 A
ATOM     31  H2  UNL     1      13.542  -2.086  17.511  1.00  0.00     0.186 HD
HETATM   32  N8  UNL     1      15.605   0.235  16.940  1.00  0.00    -0.173 N
ATOM     33  H8  UNL     1      16.525   0.673  16.892  1.00  0.00     0.186 HD
BRANCH  30  34
HETATM   34  N1  UNL     1      16.223  -1.865  17.736  1.00  0.00    -0.234 N
ATOM     35  H12 UNL     1      16.189  -2.373  18.620  1.00  0.00     0.174 HD
ATOM     36  H11 UNL     1      17.063  -2.143  17.229  1.00  0.00     0.174 HD
ENDBRANCH  30  34
ENDBRANCH  22  23
ENDBRANCH   1  22
TORSDOF 11
ENDMDL