MODEL 1
REMARK VINA RESULT: -7.023232556      0.000      0.000
REMARK  14 active torsions:
REMARK  status: ('A' for Active; 'I' for Inactive)
REMARK    1  A    between atoms: C2_2  and  N1_3
REMARK    2  A    between atoms: N1_3  and  C3_4
REMARK    3  A    between atoms: N1_3  and  C5_8
REMARK    4  A    between atoms: C3_4  and  C4_5
REMARK    5  A    between atoms: C4_5  and  O1_6
REMARK    6  A    between atoms: C5_8  and  C6_9
REMARK    7  A    between atoms: C6_9  and  N2_10
REMARK       I    between atoms: N2_10  and  C7_12
REMARK    8  A    between atoms: C7_12  and  C8_14
REMARK    9  A    between atoms: C8_14  and  N3_15
REMARK   10  A    between atoms: N3_15  and  C9_17
REMARK   11  A    between atoms: C10_20  and  N5_21
REMARK   12  A    between atoms: C12_28  and  N8_29
REMARK   13  A    between atoms: N8_29  and  N9_30
REMARK   14  A    between atoms: N8_29  and  O3_33
ROOT
HETATM    1  C9  UNL     1      15.197   1.421  16.091  1.00  0.00     0.146 A
HETATM    2  N4  UNL     1      13.879   1.569  16.268  1.00  0.00    -0.175 N
ATOM      3  H4  UNL     1      13.404   2.347  15.810  1.00  0.00     0.186 HD
HETATM    4  C10 UNL     1      13.157   0.718  17.034  1.00  0.00     0.678 A
HETATM    5  N6  UNL     1      13.754  -0.319  17.648  1.00  0.00    -0.177 N
ATOM      6  H6  UNL     1      13.196  -0.953  18.220  1.00  0.00     0.185 HD
HETATM    7  C11 UNL     1      15.094  -0.535  17.514  1.00  0.00     0.161 A
HETATM    8  N7  UNL     1      15.713  -1.628  18.168  1.00  0.00    -0.080 NA
HETATM    9  C12 UNL     1      15.792   0.356  16.725  1.00  0.00     0.144 A
ENDROOT
BRANCH   1  10
HETATM   10  N3  UNL     1      15.889   2.223  15.385  1.00  0.00    -0.365 N
ATOM     11  H3  UNL     1      16.074   1.922  14.429  1.00  0.00     0.161 HD
BRANCH  10  12
HETATM   12  C8  UNL     1      16.440   3.481  15.750  1.00  0.00     0.224 C
BRANCH  12  13
HETATM   13  C7  UNL     1      15.531   4.586  15.389  1.00  0.00     0.235 C
HETATM   14  N2  UNL     1      14.538   5.033  16.295  1.00  0.00    -0.355 N
ATOM     15  H2  UNL     1      14.452   4.580  17.205  1.00  0.00     0.162 HD
HETATM   16  O2  UNL     1      15.624   5.146  14.272  1.00  0.00    -0.272 OA
BRANCH  14  17
HETATM   17  C6  UNL     1      13.638   6.123  15.959  1.00  0.00     0.167 C
BRANCH  17  18
HETATM   18  C5  UNL     1      12.235   5.845  16.391  1.00  0.00     0.082 C
BRANCH  18  19
HETATM   19  N1  UNL     1      11.353   5.316  15.434  1.00  0.00    -0.371 N
BRANCH  19  20
HETATM   20  C2  UNL     1      10.353   6.200  15.024  1.00  0.00     0.059 C
HETATM   21  C1  UNL     1      10.572   6.939  13.752  1.00  0.00     0.055 C
ENDBRANCH  19  20
BRANCH  19  22
HETATM   22  C3  UNL     1      11.160   3.939  15.313  1.00  0.00     0.153 C
BRANCH  22  23
HETATM   23  C4  UNL     1      11.681   3.348  13.995  1.00  0.00     0.184 C
BRANCH  23  24
HETATM   24  O1  UNL     1      13.044   3.284  14.030  1.00  0.00    -0.399 OA
ATOM     25  H1  UNL     1      13.406   3.871  13.377  1.00  0.00     0.209 HD
ENDBRANCH  23  24
ENDBRANCH  22  23
ENDBRANCH  19  22
ENDBRANCH  18  19
ENDBRANCH  17  18
ENDBRANCH  14  17
ENDBRANCH  12  13
ENDBRANCH  10  12
ENDBRANCH   1  10
BRANCH   9  26
HETATM   26  N8  UNL     1      17.198   0.136  16.578  1.00  0.00    -0.070 NA
BRANCH  26  27
HETATM   27  N9  UNL     1      17.859   0.312  17.805  1.00  0.00    -0.336 NA
ATOM     28  H92 UNL     1      18.502   1.093  17.672  1.00  0.00     0.173 HD
ATOM     29  H91 UNL     1      18.437  -0.500  18.023  1.00  0.00     0.173 HD
ENDBRANCH  26  27
BRANCH  26  30
HETATM   30  O3  UNL     1      17.345  -1.172  16.253  1.00  0.00    -0.289 OA
ATOM     31  H3  UNL     1      17.846  -1.190  15.446  1.00  0.00     0.239 HD
ENDBRANCH  26  30
ENDBRANCH   9  26
BRANCH   4  32
HETATM   32  N5  UNL     1      11.881   0.860  17.208  1.00  0.00    -0.234 N
ATOM     33  H52 UNL     1      11.376   0.086  17.637  1.00  0.00     0.174 HD
ATOM     34  H51 UNL     1      11.387   1.709  16.931  1.00  0.00     0.174 HD
ENDBRANCH   4  32
TORSDOF 14
ENDMDL