MODEL 1
REMARK VINA RESULT: -6.850232954      0.000      0.000
REMARK  11 active torsions:
REMARK  status: ('A' for Active; 'I' for Inactive)
REMARK       I    between atoms: C1_4  and  N3_6
REMARK    1  A    between atoms: N3_6  and  C2_7
REMARK    2  A    between atoms: N3_6  and  C4_13
REMARK    3  A    between atoms: C2_7  and  C3_8
REMARK    4  A    between atoms: C3_8  and  N4_9
REMARK    5  A    between atoms: C5_16  and  N6_17
REMARK    6  A    between atoms: C6_19  and  C7_20
REMARK    7  A    between atoms: C7_20  and  N7_21
REMARK    8  A    between atoms: N7_21  and  C8_24
REMARK    9  A    between atoms: C8_24  and  C9_25
REMARK   10  A    between atoms: C9_25  and  O1_26
REMARK   11  A    between atoms: C11_32  and  N9_33
ROOT
HETATM    1  C4  UNL     1      13.105   4.385  15.740  1.00  0.00     0.164 A
HETATM    2  N5  UNL     1      13.048   3.290  16.536  1.00  0.00    -0.173 N
ATOM      3  H5  UNL     1      13.504   3.330  17.447  1.00  0.00     0.186 HD
HETATM    4  C5  UNL     1      12.409   2.132  16.179  1.00  0.00     0.686 A
HETATM    5  N8  UNL     1      11.823   2.126  14.979  1.00  0.00    -0.154 N
ATOM      6  H8  UNL     1      11.338   1.277  14.687  1.00  0.00     0.187 HD
HETATM    7  C10 UNL     1      11.834   3.168  14.135  1.00  0.00     0.296 A
HETATM    8  O2  UNL     1      11.258   3.095  13.014  1.00  0.00    -0.265 OA
HETATM    9  C11 UNL     1      12.504   4.338  14.542  1.00  0.00     0.215 A
ENDROOT
BRANCH   1  10
HETATM   10  N3  UNL     1      13.845   5.535  16.207  1.00  0.00    -0.303 N
HETATM   11  C1  UNL     1      13.275   6.743  16.649  1.00  0.00     0.189 C
HETATM   12  N1  UNL     1      13.055   7.808  15.978  1.00  0.00    -0.373 N
HETATM   13  N2  UNL     1      12.871   6.842  18.042  1.00  0.00    -0.063 NA
ATOM     14  H12 UNL     1      12.642   8.684  16.299  1.00  0.00     0.158 HD
ATOM     15  H11 UNL     1      13.339   7.739  15.001  1.00  0.00     0.158 HD
BRANCH  10  16
HETATM   16  C2  UNL     1      15.298   5.273  16.255  1.00  0.00     0.160 C
BRANCH  16  17
HETATM   17  C3  UNL     1      15.996   5.210  14.961  1.00  0.00     0.250 C
BRANCH  17  18
HETATM   18  N4  UNL     1      15.857   6.389  14.136  1.00  0.00    -0.078 N
ATOM     19  H43 UNL     1      14.896   6.729  14.168  1.00  0.00     0.274 HD
ATOM     20  H42 UNL     1      16.339   7.179  14.565  1.00  0.00     0.274 HD
ATOM     21  H41 UNL     1      16.159   6.274  13.169  1.00  0.00     0.274 HD
ENDBRANCH  17  18
ENDBRANCH  16  17
ENDBRANCH  10  16
ENDBRANCH   1  10
BRANCH   9  22
HETATM   22  N9  UNL     1      12.482   5.375  13.602  1.00  0.00    -0.106 N
HETATM   23  O3  UNL     1      13.368   5.451  12.741  1.00  0.00    -0.531 OA
HETATM   24  O4  UNL     1      11.482   6.303  13.625  1.00  0.00    -0.531 OA
ENDBRANCH   9  22
BRANCH   4  25
HETATM   25  N6  UNL     1      12.445   1.184  16.936  1.00  0.00    -0.203 N
HETATM   26  C6  UNL     1      12.997   0.082  17.496  1.00  0.00     0.106 C
ATOM     27  H6  UNL     1      11.557   1.261  17.431  1.00  0.00     0.183 HD
BRANCH  26  28
HETATM   28  C7  UNL     1      14.477  -0.059  17.200  1.00  0.00     0.277 C
BRANCH  28  29
HETATM   29  N7  UNL     1      14.936  -1.407  17.545  1.00  0.00    -0.069 N
ATOM     30  H72 UNL     1      14.570  -1.733  18.440  1.00  0.00     0.277 HD
ATOM     31  H71 UNL     1      14.519  -2.129  16.958  1.00  0.00     0.277 HD
BRANCH  29  32
HETATM   32  C8  UNL     1      16.373  -1.406  17.496  1.00  0.00     0.258 C
BRANCH  32  33
HETATM   33  C9  UNL     1      16.956  -0.061  17.153  1.00  0.00     0.191 C
BRANCH  33  34
HETATM   34  O1  UNL     1      18.298   0.043  17.500  1.00  0.00    -0.399 OA
ATOM     35  H1  UNL     1      18.454   0.710  18.158  1.00  0.00     0.209 HD
ENDBRANCH  33  34
ENDBRANCH  32  33
ENDBRANCH  29  32
ENDBRANCH  28  29
ENDBRANCH  26  28
ENDBRANCH   4  25
TORSDOF 11
ENDMDL