MODEL 1
REMARK VINA RESULT: -6.580664538      0.000      0.000
REMARK  13 active torsions:
REMARK  status: ('A' for Active; 'I' for Inactive)
REMARK    1  A    between atoms: N1_1  and  C1_4
REMARK    2  A    between atoms: N2_7  and  C4_8
REMARK    3  A    between atoms: C5_9  and  O1_10
REMARK    4  A    between atoms: C6_13  and  C7_14
REMARK    5  A    between atoms: C7_14  and  N3_15
REMARK    6  A    between atoms: N3_15  and  C8_17
REMARK    7  A    between atoms: C8_17  and  C9_18
REMARK    8  A    between atoms: C9_18  and  C10_19
REMARK    9  A    between atoms: C10_19  and  N4_20
REMARK   10  A    between atoms: N4_20  and  C11_22
REMARK   11  A    between atoms: C11_22  and  C12_23
REMARK   12  A    between atoms: C12_23  and  N5_24
REMARK   13  A    between atoms: C13_28  and  O3_29
ROOT
HETATM    1  C4  UNL     1      12.260   4.422  14.257  1.00  0.00     0.180 C
HETATM    2  C5  UNL     1      13.583   4.659  14.962  1.00  0.00     0.283 C
HETATM    3  O2  UNL     1      13.938   3.341  15.266  1.00  0.00    -0.350 OA
HETATM    4  C6  UNL     1      12.783   2.779  15.829  1.00  0.00     0.173 C
HETATM    5  C13 UNL     1      11.677   3.231  14.889  1.00  0.00     0.177 C
ENDROOT
BRANCH   4   6
HETATM    6  C7  UNL     1      13.007   1.267  15.755  1.00  0.00     0.153 C
BRANCH   6   7
HETATM    7  N3  UNL     1      12.006   0.619  16.468  1.00  0.00    -0.396 N
ATOM      8  H3  UNL     1      11.048   0.697  16.124  1.00  0.00     0.158 HD
BRANCH   7   9
HETATM    9  C8  UNL     1      12.223  -0.130  17.623  1.00  0.00     0.084 C
BRANCH   9  10
HETATM   10  C9  UNL     1      13.570  -0.448  18.098  1.00  0.00     0.034 C
BRANCH  10  11
HETATM   11  C10 UNL     1      14.541  -1.257  17.353  1.00  0.00     0.088 C
BRANCH  11  12
HETATM   12  N4  UNL     1      15.882  -1.149  17.296  1.00  0.00    -0.377 N
ATOM     13  H4  UNL     1      16.333  -1.988  17.661  1.00  0.00     0.164 HD
BRANCH  12  14
HETATM   14  C11 UNL     1      16.802  -0.239  16.891  1.00  0.00     0.087 C
BRANCH  14  15
HETATM   15  C12 UNL     1      16.445   1.216  16.886  1.00  0.00     0.274 C
BRANCH  15  16
HETATM   16  N5  UNL     1      16.696   1.695  15.492  1.00  0.00    -0.075 N
ATOM     17  H53 UNL     1      17.205   2.577  15.450  1.00  0.00     0.274 HD
ATOM     18  H52 UNL     1      17.381   1.133  14.986  1.00  0.00     0.274 HD
ATOM     19  H51 UNL     1      15.782   1.730  15.040  1.00  0.00     0.274 HD
ENDBRANCH  15  16
ENDBRANCH  14  15
ENDBRANCH  12  14
ENDBRANCH  11  12
ENDBRANCH  10  11
ENDBRANCH   9  10
ENDBRANCH   7   9
ENDBRANCH   6   7
ENDBRANCH   4   6
BRANCH   5  20
HETATM   20  O3  UNL     1      10.460   3.319  15.488  1.00  0.00    -0.391 OA
ATOM     21  H3  UNL     1      10.409   3.444  16.428  1.00  0.00     0.210 HD
ENDBRANCH   5  20
BRANCH   2  22
HETATM   22  O1  UNL     1      13.490   5.367  16.131  1.00  0.00    -0.369 OA
ATOM     23  H1  UNL     1      14.231   5.935  16.311  1.00  0.00     0.212 HD
ENDBRANCH   2  22
BRANCH   1  24
HETATM   24  N2  UNL     1      11.494   5.598  14.087  1.00  0.00    -0.298 N
HETATM   25  C3  UNL     1      11.004   6.380  15.055  1.00  0.00     0.100 A
HETATM   26  C2  UNL     1      10.259   7.531  14.776  1.00  0.00     0.065 A
HETATM   27  C1  UNL     1       9.995   7.918  13.489  1.00  0.00     0.103 A
HETATM   28  N6  UNL     1      10.505   7.104  12.520  1.00  0.00    -0.295 N
HETATM   29  C14 UNL     1      11.197   6.033  12.817  1.00  0.00     0.328 A
ATOM     30  H6  UNL     1      10.342   7.336  11.540  1.00  0.00     0.172 HD
HETATM   31  O4  UNL     1      11.638   5.328  11.856  1.00  0.00    -0.246 OA
BRANCH  27  32
HETATM   32  N1  UNL     1       9.312   8.959  13.168  1.00  0.00    -0.385 N
ATOM     33  H12 UNL     1       9.360   9.802  13.741  1.00  0.00     0.157 HD
ATOM     34  H11 UNL     1       8.705   9.021  12.350  1.00  0.00     0.157 HD
ENDBRANCH  27  32
ENDBRANCH   1  24
TORSDOF 13
ENDMDL