MODEL 5
REMARK VINA RESULT: -7.116958698      4.833      7.539
REMARK  11 active torsions:
REMARK  status: ('A' for Active; 'I' for Inactive)
REMARK       I    between atoms: C1_4  and  N3_6
REMARK    1  A    between atoms: N3_6  and  C2_8
REMARK    2  A    between atoms: C2_8  and  C3_9
REMARK    3  A    between atoms: C3_9  and  C4_10
REMARK    4  A    between atoms: C4_10  and  N5_14
REMARK    5  A    between atoms: N5_14  and  C5_16
REMARK    6  A    between atoms: C5_16  and  C6_17
REMARK    7  A    between atoms: C7_19  and  C8_20
REMARK    8  A    between atoms: C8_20  and  N6_21
REMARK    9  A    between atoms: C10_23  and  C11_24
REMARK   10  A    between atoms: C11_24  and  N7_25
REMARK   11  A    between atoms: N7_25  and  N8_26
ROOT
HETATM    1  C6  UNL     1       9.594   5.947  15.884  1.00  0.00     0.233 C
HETATM    2  O1  UNL     1      10.390   6.504  16.896  1.00  0.00    -0.349 OA
HETATM    3  C7  UNL     1       9.565   7.380  17.541  1.00  0.00     0.243 C
HETATM    4  N11 UNL     1       8.908   8.056  16.479  1.00  0.00    -0.331 N
ATOM      5  H11 UNL     1       8.696   9.050  16.400  1.00  0.00     0.165 HD
HETATM    6  C12 UNL     1       8.609   6.996  15.533  1.00  0.00     0.250 C
HETATM    7  O2  UNL     1       7.717   7.032  14.660  1.00  0.00    -0.271 OA
ENDROOT
BRANCH   1   8
HETATM    8  C5  UNL     1      10.468   5.782  14.630  1.00  0.00     0.162 C
BRANCH   8   9
HETATM    9  N5  UNL     1      11.724   5.216  15.014  1.00  0.00    -0.377 N
ATOM     10  H5  UNL     1      12.473   5.842  15.309  1.00  0.00     0.160 HD
BRANCH   9  11
HETATM   11  C4  UNL     1      11.973   3.802  14.999  1.00  0.00     0.072 C
HETATM   12  N4  UNL     1      12.164   3.114  13.951  1.00  0.00    -0.389 N
ATOM     13  H42 UNL     1      12.340   2.110  13.940  1.00  0.00     0.157 HD
ATOM     14  H41 UNL     1      12.150   3.538  13.023  1.00  0.00     0.157 HD
BRANCH  11  15
HETATM   15  C3  UNL     1      11.993   3.177  16.369  1.00  0.00     0.095 C
BRANCH  15  16
HETATM   16  C2  UNL     1      12.877   1.966  16.366  1.00  0.00     0.130 C
BRANCH  16  17
HETATM   17  N3  UNL     1      12.162   0.741  16.352  1.00  0.00    -0.364 N
HETATM   18  C1  UNL     1      12.632  -0.327  17.248  1.00  0.00     0.181 C
HETATM   19  N1  UNL     1      13.277  -1.260  16.765  1.00  0.00    -0.374 N
HETATM   20  N2  UNL     1      12.267  -0.134  18.623  1.00  0.00    -0.064 NA
ATOM     21  H12 UNL     1      13.602  -2.001  17.387  1.00  0.00     0.158 HD
ATOM     22  H11 UNL     1      13.536  -1.398  15.788  1.00  0.00     0.158 HD
ATOM     23  H3  UNL     1      11.354   0.606  15.743  1.00  0.00     0.162 HD
ENDBRANCH  16  17
ENDBRANCH  15  16
ENDBRANCH  11  15
ENDBRANCH   9  11
ENDBRANCH   8   9
ENDBRANCH   1   8
BRANCH   3  24
HETATM   24  C8  UNL     1      10.339   8.323  18.444  1.00  0.00     0.199 C
BRANCH  24  25
HETATM   25  N6  UNL     1      10.072   7.937  19.811  1.00  0.00    -0.281 N
HETATM   26  C9  UNL     1      10.942   7.236  20.548  1.00  0.00     0.135 A
HETATM   27  C10 UNL     1      10.365   7.065  21.837  1.00  0.00     0.057 A
HETATM   28  N9  UNL     1       9.210   7.658  21.801  1.00  0.00    -0.285 N
HETATM   29  N10 UNL     1       9.019   8.196  20.578  1.00  0.00    -0.020 NA
ATOM     30  H9  UNL     1       8.550   7.709  22.577  1.00  0.00     0.184 HD
BRANCH  27  31
HETATM   31  C11 UNL     1      11.139   6.310  22.880  1.00  0.00     0.194 C
BRANCH  31  32
HETATM   32  N7  UNL     1      10.667   6.753  24.170  1.00  0.00    -0.142 NA
BRANCH  32  33
HETATM   33  N8  UNL     1       9.919   5.672  24.701  1.00  0.00    -0.348 N
ATOM     34  H82 UNL     1       9.794   5.451  25.689  1.00  0.00     0.172 HD
ATOM     35  H81 UNL     1       9.540   5.172  23.896  1.00  0.00     0.172 HD
ENDBRANCH  32  33
ENDBRANCH  31  32
ENDBRANCH  27  31
ENDBRANCH  24  25
ENDBRANCH   3  24
TORSDOF 11
ENDMDL