MODEL 1
REMARK VINA RESULT: -7.398638174      0.000      0.000
REMARK  11 active torsions:
REMARK  status: ('A' for Active; 'I' for Inactive)
REMARK    1  A    between atoms: N1_1  and  C1_4
REMARK    2  A    between atoms: C2_7  and  N3_8
REMARK    3  A    between atoms: N4_11  and  C3_12
REMARK    4  A    between atoms: C3_12  and  C4_13
REMARK    5  A    between atoms: C4_13  and  C5_14
REMARK    6  A    between atoms: C5_14  and  C6_15
REMARK    7  A    between atoms: C6_15  and  N5_16
REMARK       I    between atoms: N5_16  and  C7_18
REMARK    8  A    between atoms: C7_18  and  C8_20
REMARK    9  A    between atoms: C8_20  and  C9_21
REMARK   10  A    between atoms: C9_21  and  C10_22
REMARK   11  A    between atoms: C10_22  and  C11_23
ROOT
HETATM    1  C4  UNL     1      13.372   5.166  15.034  1.00  0.00     0.022 C
ENDROOT
BRANCH   1   2
HETATM    2  C3  UNL     1      14.323   4.713  16.105  1.00  0.00     0.153 C
BRANCH   2   3
HETATM    3  N4  UNL     1      15.647   4.431  15.602  1.00  0.00    -0.132 N
HETATM    4  C2  UNL     1      16.486   5.451  15.380  1.00  0.00     0.696 A
HETATM    5  N2  UNL     1      17.736   5.171  14.930  1.00  0.00    -0.022 N
HETATM    6  C1  UNL     1      18.144   3.917  14.704  1.00  0.00     0.694 A
ATOM      7  H2  UNL     1      18.383   5.940  14.759  1.00  0.00     0.203 HD
HETATM    8  N10 UNL     1      17.274   2.923  14.939  1.00  0.00    -0.140 N
HETATM    9  C12 UNL     1      16.019   3.151  15.387  1.00  0.00     0.355 A
ATOM     10  H10 UNL     1      17.569   1.961  14.773  1.00  0.00     0.189 HD
HETATM   11  O2  UNL     1      15.246   2.181  15.593  1.00  0.00    -0.245 OA
BRANCH   4  12
HETATM   12  N3  UNL     1      16.211   6.690  15.556  1.00  0.00    -0.234 N
ATOM     13  H32 UNL     1      16.893   7.449  15.582  1.00  0.00     0.174 HD
ATOM     14  H31 UNL     1      15.225   6.921  15.680  1.00  0.00     0.174 HD
ENDBRANCH   4  12
BRANCH   6  15
HETATM   15  N1  UNL     1      19.354   3.674  14.270  1.00  0.00    -0.234 N
ATOM     16  H12 UNL     1      19.555   3.594  13.273  1.00  0.00     0.174 HD
ATOM     17  H11 UNL     1      20.130   3.558  14.922  1.00  0.00     0.174 HD
ENDBRANCH   6  15
ENDBRANCH   2   3
ENDBRANCH   1   2
BRANCH   1  18
HETATM   18  C5  UNL     1      12.708   4.091  14.250  1.00  0.00     0.021 C
BRANCH  18  19
HETATM   19  C6  UNL     1      11.739   3.279  15.084  1.00  0.00     0.122 C
BRANCH  19  20
HETATM   20  N5  UNL     1      12.148   1.936  15.347  1.00  0.00    -0.361 N
HETATM   21  C7  UNL     1      12.182   1.376  16.650  1.00  0.00     0.217 C
HETATM   22  O1  UNL     1      11.833   2.114  17.599  1.00  0.00    -0.274 OA
ATOM     23  H5  UNL     1      12.430   1.352  14.560  1.00  0.00     0.162 HD
BRANCH  21  24
HETATM   24  C8  UNL     1      12.610  -0.015  16.853  1.00  0.00     0.103 C
BRANCH  24  25
HETATM   25  C9  UNL     1      13.732  -0.142  17.819  1.00  0.00     0.017 C
BRANCH  25  26
HETATM   26  C10 UNL     1      14.612  -1.339  17.601  1.00  0.00     0.079 C
BRANCH  26  27
HETATM   27  C11 UNL     1      16.005  -0.799  17.484  1.00  0.00     0.106 A
HETATM   28  N6  UNL     1      17.080  -1.567  17.261  1.00  0.00    -0.274 N
HETATM   29  N7  UNL     1      18.115  -0.738  17.221  1.00  0.00    -0.007 NA
ATOM     30  H6  UNL     1      17.099  -2.581  17.146  1.00  0.00     0.185 HD
HETATM   31  N8  UNL     1      17.746   0.517  17.408  1.00  0.00    -0.007 NA
HETATM   32  N9  UNL     1      16.413   0.457  17.571  1.00  0.00    -0.274 N
ATOM     33  H9  UNL     1      15.807   1.260  17.738  1.00  0.00     0.185 HD
ENDBRANCH  26  27
ENDBRANCH  25  26
ENDBRANCH  24  25
ENDBRANCH  21  24
ENDBRANCH  19  20
ENDBRANCH  18  19
ENDBRANCH   1  18
TORSDOF 11
ENDMDL