MODEL 2
REMARK VINA RESULT: -6.044088944      1.430      1.763
REMARK  13 active torsions:
REMARK  status: ('A' for Active; 'I' for Inactive)
REMARK    1  A    between atoms: N1_1  and  C1_5
REMARK    2  A    between atoms: C1_5  and  C2_6
REMARK    3  A    between atoms: C2_6  and  C3_7
REMARK    4  A    between atoms: C3_7  and  C4_8
REMARK    5  A    between atoms: C4_8  and  N2_9
REMARK    6  A    between atoms: N2_9  and  C5_11
REMARK    7  A    between atoms: C6_12  and  O1_13
REMARK    8  A    between atoms: C7_15  and  C8_16
REMARK    9  A    between atoms: C8_16  and  O2_17
REMARK   10  A    between atoms: C9_20  and  N3_21
REMARK   11  A    between atoms: N3_21  and  C10_24
REMARK   12  A    between atoms: C14_31  and  O4_32
REMARK   13  A    between atoms: C15_34  and  O5_35
ROOT
HETATM    1  C5  UNL     1      12.470   2.784  15.862  1.00  0.00     0.141 C
HETATM    2  C6  UNL     1      13.381   3.236  14.761  1.00  0.00     0.174 C
HETATM    3  C7  UNL     1      13.320   4.717  14.509  1.00  0.00     0.178 C
HETATM    4  O3  UNL     1      12.560   5.400  15.435  1.00  0.00    -0.347 OA
HETATM    5  C9  UNL     1      11.275   4.968  15.560  1.00  0.00     0.353 C
HETATM    6  C15 UNL     1      11.133   3.501  15.832  1.00  0.00     0.199 C
ENDROOT
BRANCH   5   7
HETATM    7  N3  UNL     1      10.588   5.787  16.540  1.00  0.00    -0.039 N
ATOM      8  H32 UNL     1      10.467   5.290  17.423  1.00  0.00     0.280 HD
ATOM      9  H31 UNL     1      11.178   6.551  16.869  1.00  0.00     0.280 HD
BRANCH   7  10
HETATM   10  C10 UNL     1       9.325   6.275  16.030  1.00  0.00     0.230 C
HETATM   11  C11 UNL     1       9.454   7.066  14.735  1.00  0.00     0.075 C
HETATM   12  C12 UNL     1      10.471   8.103  15.119  1.00  0.00     0.242 C
HETATM   13  C14 UNL     1       8.173   7.766  15.196  1.00  0.00     0.158 C
HETATM   14  N4  UNL     1       9.946   8.484  16.448  1.00  0.00    -0.066 N
HETATM   15  C13 UNL     1       8.842   7.596  16.575  1.00  0.00     0.245 C
ATOM     16  H42 UNL     1      10.622   8.452  17.211  1.00  0.00     0.277 HD
ATOM     17  H41 UNL     1       9.726   9.473  16.564  1.00  0.00     0.277 HD
BRANCH  13  18
HETATM   18  O4  UNL     1       7.059   6.969  15.028  1.00  0.00    -0.393 OA
ATOM     19  H4  UNL     1       6.319   7.458  14.687  1.00  0.00     0.210 HD
ENDBRANCH  13  18
ENDBRANCH   7  10
ENDBRANCH   5   7
BRANCH   6  20
HETATM   20  O5  UNL     1      10.294   2.872  14.914  1.00  0.00    -0.389 OA
ATOM     21  H5  UNL     1       9.661   3.500  14.587  1.00  0.00     0.210 HD
ENDBRANCH   6  20
BRANCH   3  22
HETATM   22  C8  UNL     1      12.876   5.016  13.079  1.00  0.00     0.198 C
BRANCH  22  23
HETATM   23  O2  UNL     1      12.335   3.874  12.486  1.00  0.00    -0.398 OA
ATOM     24  H2  UNL     1      12.475   3.890  11.546  1.00  0.00     0.209 HD
ENDBRANCH  22  23
ENDBRANCH   3  22
BRANCH   1  25
HETATM   25  N2  UNL     1      12.196   1.394  15.921  1.00  0.00    -0.412 N
ATOM     26  H2  UNL     1      11.765   0.893  15.143  1.00  0.00     0.153 HD
BRANCH  25  27
HETATM   27  C4  UNL     1      12.563   0.735  17.141  1.00  0.00     0.114 C
BRANCH  27  28
HETATM   28  C3  UNL     1      13.499  -0.420  16.966  1.00  0.00     0.021 C
BRANCH  28  29
HETATM   29  C2  UNL     1      14.945  -0.044  17.206  1.00  0.00     0.029 C
BRANCH  29  30
HETATM   30  C1  UNL     1      15.754  -1.300  17.546  1.00  0.00     0.229 C
BRANCH  30  31
HETATM   31  N1  UNL     1      17.121  -1.183  17.055  1.00  0.00    -0.079 N
ATOM     32  H13 UNL     1      17.163  -1.251  16.038  1.00  0.00     0.274 HD
ATOM     33  H12 UNL     1      17.480  -0.233  17.160  1.00  0.00     0.274 HD
ATOM     34  H11 UNL     1      17.728  -1.867  17.505  1.00  0.00     0.274 HD
ENDBRANCH  30  31
ENDBRANCH  29  30
ENDBRANCH  28  29
ENDBRANCH  27  28
ENDBRANCH  25  27
ENDBRANCH   1  25
BRANCH   2  35
HETATM   35  O1  UNL     1      14.703   2.866  15.033  1.00  0.00    -0.391 OA
ATOM     36  H1  UNL     1      15.043   3.362  15.768  1.00  0.00     0.210 HD
ENDBRANCH   2  35
TORSDOF 13
ENDMDL