MODEL 5
REMARK VINA RESULT: -5.098125363      2.445      3.765
REMARK  15 active torsions:
REMARK  status: ('A' for Active; 'I' for Inactive)
REMARK    1  A    between atoms: N1_2  and  C3_4
REMARK    2  A    between atoms: N1_2  and  C5_10
REMARK    3  A    between atoms: C3_4  and  C4_5
REMARK    4  A    between atoms: C4_5  and  N2_6
REMARK    5  A    between atoms: C5_10  and  C6_11
REMARK    6  A    between atoms: C6_11  and  C7_12
REMARK    7  A    between atoms: C7_12  and  C8_13
REMARK    8  A    between atoms: C8_13  and  C9_14
REMARK    9  A    between atoms: C9_14  and  O1_15
REMARK   10  A    between atoms: O1_15  and  C10_16
REMARK   11  A    between atoms: C11_18  and  N3_19
REMARK   12  A    between atoms: C12_23  and  N4_24
REMARK   13  A    between atoms: C12_23  and  N5_28
REMARK   14  A    between atoms: C13_32  and  O3_33
REMARK   15  A    between atoms: C14_35  and  O4_36
ROOT
HETATM    1  C10 UNL     1      13.587   2.581  16.084  1.00  0.00     0.293 C
HETATM    2  O2  UNL     1      14.531   1.957  16.879  1.00  0.00    -0.322 OA
HETATM    3  C11 UNL     1      14.627   0.600  16.694  1.00  0.00     0.388 C
HETATM    4  C12 UNL     1      13.378  -0.146  17.128  1.00  0.00     0.360 C
HETATM    5  C13 UNL     1      12.177   0.710  16.748  1.00  0.00     0.220 C
HETATM    6  C14 UNL     1      12.632   1.536  15.559  1.00  0.00     0.206 C
ENDROOT
BRANCH   1   7
HETATM    7  O1  UNL     1      12.978   3.547  16.836  1.00  0.00    -0.358 OA
BRANCH   7   8
HETATM    8  C9  UNL     1      13.209   4.837  16.468  1.00  0.00     0.171 C
BRANCH   8   9
HETATM    9  C8  UNL     1      12.353   5.360  15.364  1.00  0.00     0.026 C
BRANCH   9  10
HETATM   10  C7  UNL     1      13.296   5.772  14.224  1.00  0.00     0.004 C
BRANCH  10  11
HETATM   11  C6  UNL     1      14.435   6.537  14.802  1.00  0.00     0.028 C
BRANCH  11  12
HETATM   12  C5  UNL     1      15.776   6.208  14.269  1.00  0.00     0.236 C
BRANCH  12  13
HETATM   13  N1  UNL     1      16.826   5.959  15.180  1.00  0.00    -0.073 N
HETATM   14  C1  UNL     1      16.664   6.775  16.382  1.00  0.00     0.272 C
HETATM   15  C2  UNL     1      18.155   6.114  14.641  1.00  0.00     0.272 C
BRANCH  13  16
HETATM   16  C3  UNL     1      16.717   4.577  15.625  1.00  0.00     0.263 C
BRANCH  16  17
HETATM   17  C4  UNL     1      17.665   3.655  14.911  1.00  0.00     0.257 C
BRANCH  17  18
HETATM   18  N2  UNL     1      17.037   2.332  14.841  1.00  0.00    -0.078 N
ATOM     19  H23 UNL     1      17.455   1.733  14.130  1.00  0.00     0.274 HD
ATOM     20  H22 UNL     1      17.249   1.750  15.651  1.00  0.00     0.274 HD
ATOM     21  H21 UNL     1      16.035   2.469  14.704  1.00  0.00     0.274 HD
ENDBRANCH  17  18
ENDBRANCH  16  17
ENDBRANCH  13  16
ENDBRANCH  12  13
ENDBRANCH  11  12
ENDBRANCH  10  11
ENDBRANCH   9  10
ENDBRANCH   8   9
ENDBRANCH   7   8
ENDBRANCH   1   7
BRANCH   6  22
HETATM   22  O4  UNL     1      11.560   2.087  14.873  1.00  0.00    -0.388 OA
ATOM     23  H4  UNL     1      11.247   1.527  14.173  1.00  0.00     0.210 HD
ENDBRANCH   6  22
BRANCH   3  24
HETATM   24  N3  UNL     1      15.694   0.127  17.580  1.00  0.00    -0.048 N
ATOM     25  H33 UNL     1      16.536  -0.159  17.079  1.00  0.00     0.277 HD
ATOM     26  H32 UNL     1      16.120   0.873  18.130  1.00  0.00     0.277 HD
ATOM     27  H31 UNL     1      15.295  -0.617  18.152  1.00  0.00     0.277 HD
ENDBRANCH   3  24
BRANCH   5  28
HETATM   28  O3  UNL     1      11.869   1.538  17.826  1.00  0.00    -0.388 OA
ATOM     29  H3  UNL     1      12.095   2.430  17.593  1.00  0.00     0.210 HD
ENDBRANCH   5  28
BRANCH   4  30
HETATM   30  N4  UNL     1      13.250  -1.389  16.389  1.00  0.00    -0.038 N
ATOM     31  H43 UNL     1      12.876  -2.140  16.969  1.00  0.00     0.277 HD
ATOM     32  H42 UNL     1      12.502  -1.345  15.697  1.00  0.00     0.277 HD
ATOM     33  H41 UNL     1      14.143  -1.644  15.967  1.00  0.00     0.277 HD
ENDBRANCH   4  30
BRANCH   4  34
HETATM   34  N5  UNL     1      13.383  -0.425  18.545  1.00  0.00    -0.038 N
ATOM     35  H53 UNL     1      12.848  -1.266  18.760  1.00  0.00     0.277 HD
ATOM     36  H52 UNL     1      14.303  -0.736  18.859  1.00  0.00     0.277 HD
ATOM     37  H51 UNL     1      13.055   0.372  19.091  1.00  0.00     0.277 HD
ENDBRANCH   4  34
TORSDOF 15
ENDMDL