MODEL 5
REMARK VINA RESULT: -4.937813520      2.006      3.056
REMARK  7 active torsions:
REMARK  status: ('A' for Active; 'I' for Inactive)
REMARK    1  A    between atoms: C3_3  and  N1_4
REMARK    2  A    between atoms: C3_3  and  C4_8
REMARK       I    between atoms: C4_8  and  N2_10
REMARK    3  A    between atoms: N2_10  and  C5_12
REMARK    4  A    between atoms: C5_12  and  C6_13
REMARK    5  A    between atoms: C5_12  and  C12_24
REMARK       I    between atoms: C6_13  and  N3_15
REMARK    6  A    between atoms: N3_15  and  C7_17
REMARK    7  A    between atoms: C12_24  and  C13_26
ROOT
HETATM    1  C1  UNL     1     -17.707  52.078  53.252  1.00  0.00     0.015 C
HETATM    2  C2  UNL     1     -16.962  52.635  52.487  1.00  0.00    -0.075 C
HETATM    3  C3  UNL     1     -16.019  53.291  51.566  1.00  0.00     0.352 C
ENDROOT
BRANCH   3   4
HETATM    4  N1  UNL     1     -14.774  53.485  52.304  1.00  0.00    -0.056 N
ATOM      5  H13 UNL     1     -14.636  54.446  52.615  1.00  0.00     0.276 HD
ATOM      6  H12 UNL     1     -14.783  53.052  53.228  1.00  0.00     0.276 HD
ATOM      7  H11 UNL     1     -14.021  53.143  51.708  1.00  0.00     0.276 HD
ENDBRANCH   3   4
BRANCH   3   8
HETATM    8  C4  UNL     1     -16.542  54.590  51.077  1.00  0.00     0.261 C
HETATM    9  O1  UNL     1     -15.914  55.665  51.304  1.00  0.00    -0.270 OA
HETATM   10  N2  UNL     1     -17.749  54.639  50.350  1.00  0.00    -0.339 N
ATOM     11  H2  UNL     1     -18.258  53.775  50.164  1.00  0.00     0.163 HD
BRANCH  10  12
HETATM   12  C5  UNL     1     -18.277  55.900  49.863  1.00  0.00     0.257 C
BRANCH  12  13
HETATM   13  C6  UNL     1     -17.366  56.406  48.794  1.00  0.00     0.253 C
HETATM   14  O2  UNL     1     -17.439  55.806  47.675  1.00  0.00    -0.270 OA
HETATM   15  N3  UNL     1     -16.467  57.469  48.937  1.00  0.00    -0.325 N
ATOM     16  H3  UNL     1     -15.778  57.388  49.686  1.00  0.00     0.169 HD
BRANCH  15  17
HETATM   17  C7  UNL     1     -16.420  58.531  48.224  1.00  0.00     0.037 A
HETATM   18  C8  UNL     1     -17.574  59.252  47.971  1.00  0.00     0.046 A
HETATM   19  C9  UNL     1     -17.550  60.398  47.212  1.00  0.00     0.090 A
HETATM   20  N4  UNL     1     -16.361  60.821  46.706  1.00  0.00    -0.375 N
HETATM   21  C10 UNL     1     -15.209  60.155  46.924  1.00  0.00     0.090 A
ATOM     22  H4  UNL     1     -16.339  61.671  46.142  1.00  0.00     0.164 HD
HETATM   23  C11 UNL     1     -15.234  59.011  47.683  1.00  0.00     0.046 A
ENDBRANCH  15  17
ENDBRANCH  12  13
BRANCH  12  24
HETATM   24  C12 UNL     1     -19.673  55.763  49.468  1.00  0.00     0.245 C
HETATM   25  O3  UNL     1     -20.223  54.604  49.488  1.00  0.00    -0.285 OA
BRANCH  24  26
HETATM   26  C13 UNL     1     -20.525  56.853  49.045  1.00  0.00     0.303 C
HETATM   27  N5  UNL     1     -20.492  58.126  49.671  1.00  0.00    -0.054 NA
HETATM   28  O4  UNL     1     -21.325  56.694  48.102  1.00  0.00    -0.268 OA
ENDBRANCH  24  26
ENDBRANCH  12  24
ENDBRANCH  10  12
ENDBRANCH   3   8
TORSDOF 7
ENDMDL