MODEL 5
REMARK VINA RESULT: -7.130687915      1.858      3.732
REMARK  6 active torsions:
REMARK  status: ('A' for Active; 'I' for Inactive)
REMARK    1  A    between atoms: C2_2  and  C3_3
REMARK    2  A    between atoms: C3_3  and  N1_4
REMARK    3  A    between atoms: C3_3  and  C4_9
REMARK    4  A    between atoms: C4_9  and  C5_10
REMARK    5  A    between atoms: C4_9  and  N7_22
REMARK    6  A    between atoms: C5_10  and  C6_11
ROOT
HETATM    1  C4  UNL     1     -17.700  57.115  49.989  1.00  0.00     0.129 C
ENDROOT
BRANCH   1   2
HETATM    2  C3  UNL     1     -16.906  57.500  48.763  1.00  0.00     0.122 C
BRANCH   2   3
HETATM    3  C2  UNL     1     -17.197  58.936  48.397  1.00  0.00     0.024 C
HETATM    4  C1  UNL     1     -16.050  59.458  47.544  1.00  0.00     0.007 C
ENDBRANCH   2   3
BRANCH   2   5
HETATM    5  N1  UNL     1     -17.266  56.628  47.648  1.00  0.00    -0.336 N
HETATM    6  N2  UNL     1     -18.007  57.021  46.732  1.00  0.00    -0.349 N
ATOM      7  H22 UNL     1     -18.363  57.976  46.775  1.00  0.00     0.176 HD
ATOM      8  H21 UNL     1     -18.258  56.412  45.954  1.00  0.00     0.176 HD
ATOM      9  H1  UNL     1     -16.901  55.675  47.620  1.00  0.00     0.180 HD
ENDBRANCH   2   5
ENDBRANCH   1   2
BRANCH   1  10
HETATM   10  C5  UNL     1     -16.808  56.656  51.079  1.00  0.00     0.106 C
BRANCH  10  11
HETATM   11  C6  UNL     1     -15.482  56.187  50.595  1.00  0.00     0.114 A
HETATM   12  N3  UNL     1     -15.178  55.129  49.833  1.00  0.00    -0.274 N
HETATM   13  N4  UNL     1     -13.876  55.060  49.628  1.00  0.00    -0.131 N
ATOM     14  H3  UNL     1     -15.860  54.468  49.462  1.00  0.00     0.189 HD
HETATM   15  C7  UNL     1     -13.319  56.099  50.273  1.00  0.00     0.691 A
ATOM     16  H4  UNL     1     -13.386  54.351  49.082  1.00  0.00     0.205 HD
HETATM   17  N5  UNL     1     -12.040  56.335  50.280  1.00  0.00    -0.233 N
HETATM   18  N6  UNL     1     -14.311  56.787  50.865  1.00  0.00    -0.178 N
ATOM     19  H52 UNL     1     -11.288  55.813  49.830  1.00  0.00     0.174 HD
ATOM     20  H51 UNL     1     -11.617  57.124  50.769  1.00  0.00     0.174 HD
ATOM     21  H6  UNL     1     -14.193  57.629  51.429  1.00  0.00     0.185 HD
ENDBRANCH  10  11
ENDBRANCH   1  10
BRANCH   1  22
HETATM   22  N7  UNL     1     -18.756  56.198  49.670  1.00  0.00    -0.254 N
HETATM   23  C8  UNL     1     -18.721  54.789  49.815  1.00  0.00     0.332 A
HETATM   24  O1  UNL     1     -17.780  54.066  50.243  1.00  0.00    -0.246 OA
HETATM   25  N8  UNL     1     -19.985  54.241  49.382  1.00  0.00    -0.271 N
HETATM   26  C9  UNL     1     -20.821  55.313  48.962  1.00  0.00     0.318 A
ATOM     27  H8  UNL     1     -20.236  53.252  49.377  1.00  0.00     0.174 HD
HETATM   28  O2  UNL     1     -21.988  55.150  48.530  1.00  0.00    -0.262 OA
HETATM   29  C10 UNL     1     -20.041  56.514  49.150  1.00  0.00     0.320 A
HETATM   30  O3  UNL     1     -20.475  57.669  48.876  1.00  0.00    -0.262 OA
ENDBRANCH   1  22
TORSDOF 6
ENDMDL