MODEL 2
REMARK VINA RESULT: -6.141864665      2.055      3.266
REMARK  7 active torsions:
REMARK  status: ('A' for Active; 'I' for Inactive)
REMARK    1  A    between atoms: C3_5  and  C4_6
REMARK    2  A    between atoms: C4_6  and  C5_7
REMARK    3  A    between atoms: C7_9  and  O1_10
REMARK    4  A    between atoms: N3_14  and  C9_15
REMARK    5  A    between atoms: C9_15  and  C10_16
REMARK    6  A    between atoms: C10_16  and  C11_17
REMARK    7  A    between atoms: C11_17  and  N4_18
ROOT
HETATM    1  C5  UNL     1     -18.210  55.910  50.488  1.00  0.00     0.057 A
HETATM    2  C6  UNL     1     -18.637  54.636  50.206  1.00  0.00     0.088 A
HETATM    3  C7  UNL     1     -19.755  54.778  49.418  1.00  0.00     0.159 A
HETATM    4  N2  UNL     1     -19.968  56.096  49.248  1.00  0.00    -0.273 N
HETATM    5  C8  UNL     1     -21.087  56.590  48.435  1.00  0.00     0.180 C
HETATM    6  N3  UNL     1     -19.047  56.765  49.887  1.00  0.00    -0.288 N
ENDROOT
BRANCH   1   7
HETATM    7  C4  UNL     1     -17.054  56.262  51.299  1.00  0.00     0.066 C
BRANCH   7   8
HETATM    8  C3  UNL     1     -15.806  56.152  50.936  1.00  0.00     0.103 A
HETATM    9  N1  UNL     1     -15.229  57.161  50.247  1.00  0.00    -0.348 N
HETATM   10  C2  UNL     1     -13.963  57.155  49.825  1.00  0.00     0.092 A
ATOM     11  H1  UNL     1     -15.798  57.980  50.035  1.00  0.00     0.166 HD
HETATM   12  C1  UNL     1     -13.414  58.150  49.152  1.00  0.00     0.049 C
HETATM   13  C14 UNL     1     -13.190  56.030  50.121  1.00  0.00     0.274 A
HETATM   14  N6  UNL     1     -13.738  55.012  50.805  1.00  0.00    -0.287 N
HETATM   15  O3  UNL     1     -11.992  55.966  49.750  1.00  0.00    -0.266 OA
HETATM   16  C13 UNL     1     -15.040  55.066  51.214  1.00  0.00     0.275 A
ATOM     17  H6  UNL     1     -13.174  54.190  51.022  1.00  0.00     0.172 HD
HETATM   18  O2  UNL     1     -15.498  54.079  51.853  1.00  0.00    -0.266 OA
ENDBRANCH   7   8
ENDBRANCH   1   7
BRANCH   6  19
HETATM   19  C9  UNL     1     -18.939  58.220  49.920  1.00  0.00     0.151 C
BRANCH  19  20
HETATM   20  C10 UNL     1     -17.765  58.767  49.188  1.00  0.00     0.041 C
BRANCH  20  21
HETATM   21  C11 UNL     1     -17.578  58.251  47.785  1.00  0.00     0.121 C
BRANCH  21  22
HETATM   22  N4  UNL     1     -16.303  58.756  47.256  1.00  0.00    -0.388 N
HETATM   23  C12 UNL     1     -16.211  59.956  46.797  1.00  0.00     0.185 C
HETATM   24  N5  UNL     1     -17.373  60.772  46.816  1.00  0.00    -0.097 NA
ATOM     25  H4  UNL     1     -15.482  58.150  47.253  1.00  0.00     0.159 HD
ENDBRANCH  21  22
ENDBRANCH  20  21
ENDBRANCH  19  20
ENDBRANCH   6  19
BRANCH   3  26
HETATM   26  O1  UNL     1     -20.476  53.698  48.925  1.00  0.00    -0.345 OA
ATOM     27  H1  UNL     1     -20.707  53.604  48.008  1.00  0.00     0.219 HD
ENDBRANCH   3  26
TORSDOF 7
ENDMDL