MODEL 2
REMARK VINA RESULT: -7.432587574      1.421      1.761
REMARK  5 active torsions:
REMARK  status: ('A' for Active; 'I' for Inactive)
REMARK    1  A    between atoms: N3_4  and  C2_6
REMARK    2  A    between atoms: N4_7  and  S1_9
REMARK    3  A    between atoms: S1_9  and  C3_12
REMARK    4  A    between atoms: C3_12  and  C4_13
REMARK    5  A    between atoms: C4_13  and  C5_14
ROOT
HETATM    1  C4  UNL     1     -18.218  55.131  49.771  1.00  0.00     0.051 C
ENDROOT
BRANCH   1   2
HETATM    2  C3  UNL     1     -19.591  55.600  49.617  1.00  0.00     0.166 C
BRANCH   2   3
HETATM    3  S1  UNL     1     -19.955  57.178  48.999  1.00  0.00     0.231 S
HETATM    4  O1  UNL     1     -20.214  58.216  50.049  1.00  0.00    -0.206 OA
HETATM    5  O2  UNL     1     -20.998  57.197  47.911  1.00  0.00    -0.206 OA
BRANCH   3   6
HETATM    6  N4  UNL     1     -18.497  57.708  48.132  1.00  0.00    -0.281 N
HETATM    7  C2  UNL     1     -17.759  58.610  48.685  1.00  0.00     0.193 C
ATOM      8  H4  UNL     1     -18.251  57.311  47.226  1.00  0.00     0.179 HD
BRANCH   7   9
HETATM    9  N3  UNL     1     -16.584  59.066  48.032  1.00  0.00    -0.329 N
HETATM   10  C1  UNL     1     -16.629  60.090  47.244  1.00  0.00     0.201 C
HETATM   11  N1  UNL     1     -17.853  60.764  47.029  1.00  0.00    -0.066 NA
HETATM   12  N2  UNL     1     -15.454  60.531  46.600  1.00  0.00    -0.066 NA
ATOM     13  H3  UNL     1     -15.698  58.583  48.185  1.00  0.00     0.168 HD
ENDBRANCH   7   9
ENDBRANCH   3   6
ENDBRANCH   2   3
ENDBRANCH   1   2
BRANCH   1  14
HETATM   14  C5  UNL     1     -17.463  55.246  51.032  1.00  0.00     0.179 C
HETATM   15  N5  UNL     1     -16.470  56.273  51.096  1.00  0.00    -0.330 N
HETATM   16  C6  UNL     1     -15.272  56.294  50.290  1.00  0.00     0.321 C
ATOM     17  H5  UNL     1     -16.617  57.039  51.752  1.00  0.00     0.165 HD
HETATM   18  O3  UNL     1     -14.834  57.451  49.994  1.00  0.00    -0.247 OA
HETATM   19  N6  UNL     1     -14.565  55.163  49.817  1.00  0.00    -0.305 N
HETATM   20  C7  UNL     1     -14.719  53.761  50.064  1.00  0.00     0.187 C
ATOM     21  H6  UNL     1     -13.802  55.389  49.180  1.00  0.00     0.171 HD
HETATM   22  N7  UNL     1     -15.584  53.422  51.148  1.00  0.00    -0.321 N
HETATM   23  C8  UNL     1     -16.879  53.915  51.398  1.00  0.00     0.245 C
ATOM     24  H7  UNL     1     -15.222  52.744  51.819  1.00  0.00     0.169 HD
HETATM   25  O4  UNL     1     -17.665  53.161  52.006  1.00  0.00    -0.271 OA
ENDBRANCH   1  14
TORSDOF 5
ENDMDL