MODEL 2
REMARK VINA RESULT: -5.091370409      2.266      4.014
REMARK  4 active torsions:
REMARK  status: ('A' for Active; 'I' for Inactive)
REMARK    1  A    between atoms: C4_8  and  C5_9
REMARK    2  A    between atoms: C5_9  and  C6_10
REMARK    3  A    between atoms: C6_10  and  C7_11
REMARK    4  A    between atoms: C7_11  and  N3_12
ROOT
HETATM    1  N1  UNL     1     -15.796  61.128  46.502  1.00  0.00    -0.188 NA
HETATM    2  C1  UNL     1     -15.904  60.209  47.205  1.00  0.00     0.138 C
HETATM    3  C2  UNL     1     -16.043  59.062  48.052  1.00  0.00     0.209 C
HETATM    4  N2  UNL     1     -14.937  58.496  48.435  1.00  0.00    -0.301 N
ATOM      5  H2  UNL     1     -14.140  58.999  48.045  1.00  0.00     0.171 HD
HETATM    6  C3  UNL     1     -14.477  57.407  49.219  1.00  0.00     0.246 C
HETATM    7  O1  UNL     1     -13.212  57.265  49.189  1.00  0.00    -0.271 OA
HETATM    8  C4  UNL     1     -15.179  56.411  50.057  1.00  0.00     0.177 C
HETATM    9  N6  UNL     1     -16.341  56.885  50.724  1.00  0.00    -0.346 N
ATOM     10  H6  UNL     1     -16.251  56.763  51.733  1.00  0.00     0.163 HD
HETATM   11  C9  UNL     1     -17.576  57.472  50.406  1.00  0.00     0.252 C
HETATM   12  O2  UNL     1     -18.428  57.184  51.324  1.00  0.00    -0.271 OA
HETATM   13  C10 UNL     1     -18.237  58.293  49.405  1.00  0.00     0.295 C
HETATM   14  C11 UNL     1     -18.982  57.631  48.314  1.00  0.00     0.270 C
HETATM   15  O3  UNL     1     -19.682  56.628  48.062  1.00  0.00    -0.269 OA
HETATM   16  N7  UNL     1     -18.551  58.720  47.502  1.00  0.00    -0.262 N
ATOM     17  H7  UNL     1     -18.905  59.244  46.703  1.00  0.00     0.190 HD
HETATM   18  N8  UNL     1     -17.400  58.732  48.328  1.00  0.00    -0.241 N
ENDROOT
BRANCH   8  19
HETATM   19  C5  UNL     1     -14.226  55.735  51.030  1.00  0.00     0.036 C
BRANCH  19  20
HETATM   20  C6  UNL     1     -14.691  54.413  51.533  1.00  0.00     0.022 C
BRANCH  20  21
HETATM   21  C7  UNL     1     -15.459  53.758  50.373  1.00  0.00     0.122 C
BRANCH  21  22
HETATM   22  N3  UNL     1     -16.885  53.708  50.712  1.00  0.00    -0.367 N
HETATM   23  C8  UNL     1     -17.767  53.988  49.830  1.00  0.00     0.196 C
HETATM   24  N4  UNL     1     -17.366  54.346  48.523  1.00  0.00    -0.067 NA
HETATM   25  N5  UNL     1     -19.136  53.936  50.167  1.00  0.00    -0.067 NA
ATOM     26  H3  UNL     1     -17.175  53.448  51.655  1.00  0.00     0.161 HD
ENDBRANCH  21  22
ENDBRANCH  20  21
ENDBRANCH  19  20
ENDBRANCH   8  19
TORSDOF 4
ENDMDL