MODEL 3
REMARK VINA RESULT: -4.988205686      0.909      1.166
REMARK  5 active torsions:
REMARK  status: ('A' for Active; 'I' for Inactive)
REMARK    1  A    between atoms: C1_2  and  C2_4
REMARK    2  A    between atoms: C2_4  and  N2_5
REMARK       I    between atoms: N4_9  and  C4_11
REMARK       I    between atoms: C4_11  and  N5_13
REMARK    3  A    between atoms: N5_13  and  C5_15
REMARK    4  A    between atoms: C5_15  and  C6_16
REMARK    5  A    between atoms: C6_16  and  N6_17
ROOT
HETATM    1  N2  UNL     1     -18.126  57.242  49.283  1.00  0.00    -0.232 N
HETATM    2  N3  UNL     1     -17.479  56.461  50.111  1.00  0.00    -0.274 N
ATOM      3  H3  UNL     1     -16.652  56.828  50.581  1.00  0.00     0.189 HD
HETATM    4  C3  UNL     1     -17.863  55.169  50.376  1.00  0.00     0.194 A
HETATM    5  N4  UNL     1     -17.175  54.544  51.158  1.00  0.00    -0.289 N
ATOM      6  H4  UNL     1     -16.440  55.197  51.430  1.00  0.00     0.172 HD
HETATM    7  C4  UNL     1     -16.898  53.425  51.842  1.00  0.00     0.321 C
HETATM    8  O2  UNL     1     -17.720  52.455  51.991  1.00  0.00    -0.247 OA
HETATM    9  N5  UNL     1     -15.610  53.277  52.453  1.00  0.00    -0.341 N
ATOM     10  H5  UNL     1     -14.964  54.056  52.329  1.00  0.00     0.164 HD
HETATM   11  C8  UNL     1     -19.007  54.738  49.696  1.00  0.00     0.295 A
HETATM   12  O3  UNL     1     -19.370  53.565  49.933  1.00  0.00    -0.264 OA
HETATM   13  N9  UNL     1     -19.671  55.534  48.848  1.00  0.00    -0.271 N
ATOM     14  H9  UNL     1     -20.504  55.199  48.362  1.00  0.00     0.174 HD
HETATM   15  C9  UNL     1     -19.218  56.786  48.650  1.00  0.00     0.344 A
HETATM   16  O4  UNL     1     -19.798  57.570  47.871  1.00  0.00    -0.245 OA
ENDROOT
BRANCH   1  17
HETATM   17  C2  UNL     1     -17.633  58.620  49.090  1.00  0.00     0.253 C
BRANCH  17  18
HETATM   18  C1  UNL     1     -16.346  58.582  48.364  1.00  0.00     0.251 C
HETATM   19  N1  UNL     1     -16.169  59.096  47.054  1.00  0.00    -0.061 NA
HETATM   20  O1  UNL     1     -15.333  58.058  48.940  1.00  0.00    -0.275 OA
ENDBRANCH  17  18
ENDBRANCH   1  17
BRANCH   9  21
HETATM   21  C5  UNL     1     -15.123  52.182  53.209  1.00  0.00     0.144 C
BRANCH  21  22
HETATM   22  C6  UNL     1     -14.110  52.651  54.232  1.00  0.00     0.141 C
BRANCH  22  23
HETATM   23  N6  UNL     1     -12.795  52.432  53.696  1.00  0.00    -0.365 N
HETATM   24  C7  UNL     1     -11.812  52.090  54.406  1.00  0.00     0.197 C
HETATM   25  N7  UNL     1     -11.931  51.893  55.797  1.00  0.00    -0.067 NA
HETATM   26  N8  UNL     1     -10.508  51.881  53.826  1.00  0.00    -0.067 NA
ATOM     27  H6  UNL     1     -12.650  52.559  52.694  1.00  0.00     0.161 HD
ENDBRANCH  22  23
ENDBRANCH  21  22
ENDBRANCH   9  21
TORSDOF 5
ENDMDL