MODEL 2
REMARK VINA RESULT: -7.703587701      2.422      4.159
REMARK  6 active torsions:
REMARK  status: ('A' for Active; 'I' for Inactive)
REMARK    1  A    between atoms: C2_2  and  N1_3
REMARK    2  A    between atoms: N1_3  and  C3_5
REMARK    3  A    between atoms: N5_15  and  S1_17
REMARK    4  A    between atoms: S1_17  and  C6_20
REMARK    5  A    between atoms: C6_20  and  C7_21
REMARK    6  A    between atoms: C7_21  and  N6_22
ROOT
HETATM    1  C3  UNL     1     -15.207  55.437  50.021  1.00  0.00     0.152 A
HETATM    2  N2  UNL     1     -13.979  55.415  50.561  1.00  0.00    -0.290 N
ATOM      3  H2  UNL     1     -13.650  54.591  51.065  1.00  0.00     0.172 HD
HETATM    4  C4  UNL     1     -13.189  56.493  50.428  1.00  0.00     0.340 A
HETATM    5  O1  UNL     1     -12.039  56.494  50.925  1.00  0.00    -0.245 OA
HETATM    6  N3  UNL     1     -13.576  57.598  49.775  1.00  0.00    -0.250 N
ATOM      7  H3  UNL     1     -12.947  58.397  49.695  1.00  0.00     0.192 HD
HETATM    8  N4  UNL     1     -14.802  57.641  49.226  1.00  0.00    -0.278 N
ATOM      9  H4  UNL     1     -15.105  58.477  48.726  1.00  0.00     0.189 HD
HETATM   10  C5  UNL     1     -15.627  56.590  49.331  1.00  0.00     0.174 A
HETATM   11  N5  UNL     1     -16.797  56.562  48.838  1.00  0.00    -0.266 N
ATOM     12  H5  UNL     1     -17.358  55.720  48.966  1.00  0.00     0.180 HD
ENDROOT
BRANCH   1  13
HETATM   13  N1  UNL     1     -16.049  54.470  50.081  1.00  0.00    -0.373 N
ATOM     14  H1  UNL     1     -16.776  54.378  49.371  1.00  0.00     0.161 HD
BRANCH  13  15
HETATM   15  C2  UNL     1     -15.962  53.511  51.162  1.00  0.00     0.117 C
HETATM   16  C1  UNL     1     -17.294  53.302  51.839  1.00  0.00     0.026 C
ENDBRANCH  13  15
ENDBRANCH   1  13
BRANCH  11  17
HETATM   17  S1  UNL     1     -17.475  57.864  47.971  1.00  0.00     0.233 S
HETATM   18  O2  UNL     1     -18.339  57.426  46.827  1.00  0.00    -0.206 OA
HETATM   19  O3  UNL     1     -16.356  58.688  47.307  1.00  0.00    -0.206 OA
BRANCH  17  20
HETATM   20  C6  UNL     1     -18.431  58.967  49.000  1.00  0.00     0.183 C
BRANCH  20  21
HETATM   21  C7  UNL     1     -19.223  58.151  49.985  1.00  0.00     0.138 C
BRANCH  21  22
HETATM   22  N6  UNL     1     -20.304  57.434  49.380  1.00  0.00    -0.366 N
HETATM   23  C8  UNL     1     -20.333  56.162  49.202  1.00  0.00     0.196 C
HETATM   24  N7  UNL     1     -19.290  55.292  49.585  1.00  0.00    -0.067 NA
HETATM   25  N8  UNL     1     -21.483  55.611  48.585  1.00  0.00    -0.067 NA
ATOM     26  H6  UNL     1     -21.111  57.973  49.066  1.00  0.00     0.161 HD
ENDBRANCH  21  22
ENDBRANCH  20  21
ENDBRANCH  17  20
ENDBRANCH  11  17
TORSDOF 6
ENDMDL