MODEL 2
REMARK VINA RESULT: -6.230116218      1.067      1.067
REMARK  9 active torsions:
REMARK  status: ('A' for Active; 'I' for Inactive)
REMARK    1  A    between atoms: C2_2  and  N1_3
REMARK    2  A    between atoms: N1_3  and  C3_5
REMARK    3  A    between atoms: C7_14  and  N4_15
REMARK    4  A    between atoms: N4_15  and  C9_17
REMARK    5  A    between atoms: C9_17  and  C10_18
REMARK    6  A    between atoms: C10_18  and  O2_19
REMARK    7  A    between atoms: C11_21  and  C12_22
REMARK    8  A    between atoms: C12_22  and  C13_23
REMARK    9  A    between atoms: N6_25  and  O3_27
ROOT
HETATM    1  C3  UNL     1     -15.856  54.070  51.785  1.00  0.00     0.681 A
HETATM    2  N2  UNL     1     -14.665  54.523  51.354  1.00  0.00    -0.155 N
ATOM      3  H2  UNL     1     -13.820  54.017  51.620  1.00  0.00     0.187 HD
HETATM    4  C4  UNL     1     -14.550  55.619  50.582  1.00  0.00     0.272 A
HETATM    5  O1  UNL     1     -13.447  56.036  50.183  1.00  0.00    -0.267 OA
HETATM    6  C5  UNL     1     -15.679  56.340  50.195  1.00  0.00     0.071 A
HETATM    7  C6  UNL     1     -16.891  55.882  50.633  1.00  0.00     0.092 A
HETATM    8  N3  UNL     1     -16.947  54.762  51.415  1.00  0.00    -0.189 N
ATOM      9  H3  UNL     1     -17.860  54.435  51.732  1.00  0.00     0.184 HD
HETATM   10  C7  UNL     1     -17.482  56.878  50.002  1.00  0.00     0.066 A
HETATM   11  C11 UNL     1     -16.195  57.359  49.537  1.00  0.00    -0.004 A
ENDROOT
BRANCH  11  12
HETATM   12  C12 UNL     1     -15.661  58.488  48.694  1.00  0.00     0.117 C
BRANCH  12  13
HETATM   13  C13 UNL     1     -16.668  58.940  47.746  1.00  0.00     0.117 C
HETATM   14  N5  UNL     1     -17.569  58.024  47.151  1.00  0.00    -0.085 NA
HETATM   15  N6  UNL     1     -16.760  60.182  47.429  1.00  0.00    -0.259 N
ATOM     16  H6  UNL     1     -16.107  60.834  47.863  1.00  0.00     0.195 HD
BRANCH  15  17
HETATM   17  O3  UNL     1     -17.675  60.687  46.551  1.00  0.00    -0.289 OA
ATOM     18  H3  UNL     1     -18.599  60.467  46.553  1.00  0.00     0.244 HD
ENDBRANCH  15  17
ENDBRANCH  12  13
ENDBRANCH  11  12
BRANCH  10  19
HETATM   19  N4  UNL     1     -18.821  57.307  49.837  1.00  0.00    -0.381 N
HETATM   20  C8  UNL     1     -19.189  58.624  50.356  1.00  0.00     0.150 C
BRANCH  19  21
HETATM   21  C9  UNL     1     -19.813  56.495  49.190  1.00  0.00     0.148 C
BRANCH  21  22
HETATM   22  C10 UNL     1     -19.360  55.075  49.061  1.00  0.00     0.183 C
BRANCH  22  23
HETATM   23  O2  UNL     1     -20.373  54.210  49.499  1.00  0.00    -0.399 OA
ATOM     24  H2  UNL     1     -20.676  53.675  48.775  1.00  0.00     0.209 HD
ENDBRANCH  22  23
ENDBRANCH  21  22
ENDBRANCH  19  21
ENDBRANCH  10  19
BRANCH   1  25
HETATM   25  N1  UNL     1     -15.976  53.009  52.529  1.00  0.00    -0.226 N
ATOM     26  H1  UNL     1     -16.896  52.792  52.912  1.00  0.00     0.177 HD
BRANCH  25  27
HETATM   27  C2  UNL     1     -14.897  52.129  52.843  1.00  0.00     0.133 C
HETATM   28  C1  UNL     1     -14.207  52.453  54.125  1.00  0.00     0.027 C
ENDBRANCH  25  27
ENDBRANCH   1  25
TORSDOF 9
ENDMDL