MODEL 4
REMARK VINA RESULT: -3.598141925      2.961      7.854
REMARK  8 active torsions:
REMARK  status: ('A' for Active; 'I' for Inactive)
REMARK    1  A    between atoms: C3_3  and  N1_4
REMARK    2  A    between atoms: N2_7  and  C6_8
REMARK    3  A    between atoms: C6_8  and  N3_9
REMARK       I    between atoms: N3_9  and  C7_11
REMARK       I    between atoms: C7_11  and  N8_25
REMARK    4  A    between atoms: N4_12  and  C8_14
REMARK    5  A    between atoms: C9_19  and  N7_20
REMARK    6  A    between atoms: N8_25  and  C10_27
REMARK    7  A    between atoms: C10_27  and  C11_28
REMARK    8  A    between atoms: C11_28  and  N9_29
ROOT
HETATM    1  C1  UNL     1     -20.765  56.731  48.840  1.00  0.00     0.014 C
HETATM    2  C2  UNL     1     -19.699  57.213  48.531  1.00  0.00    -0.097 C
HETATM    3  C3  UNL     1     -18.397  57.812  48.176  1.00  0.00     0.220 C
ENDROOT
BRANCH   3   4
HETATM    4  N1  UNL     1     -17.349  57.030  48.802  1.00  0.00    -0.353 N
HETATM    5  C4  UNL     1     -17.382  55.691  48.641  1.00  0.00     0.108 A
HETATM    6  C5  UNL     1     -16.412  54.930  49.217  1.00  0.00     0.109 A
HETATM    7  N2  UNL     1     -15.399  55.465  49.957  1.00  0.00    -0.347 N
HETATM    8  C12 UNL     1     -15.390  56.802  50.101  1.00  0.00     0.109 A
HETATM    9  C13 UNL     1     -16.363  57.608  49.528  1.00  0.00     0.108 A
BRANCH   7  10
HETATM   10  C6  UNL     1     -14.414  54.595  50.529  1.00  0.00     0.269 C
BRANCH  10  11
HETATM   11  N3  UNL     1     -14.540  54.486  51.971  1.00  0.00    -0.210 N
HETATM   12  C7  UNL     1     -15.202  53.338  52.468  1.00  0.00     0.674 C
HETATM   13  N4  UNL     1     -14.673  52.663  53.416  1.00  0.00    -0.181 N
HETATM   14  N8  UNL     1     -16.449  52.898  51.942  1.00  0.00    -0.225 N
ATOM     15  H4  UNL     1     -15.162  51.837  53.763  1.00  0.00     0.182 HD
ATOM     16  H8  UNL     1     -16.598  52.985  50.937  1.00  0.00     0.177 HD
ATOM     17  H3  UNL     1     -14.169  55.201  52.597  1.00  0.00     0.179 HD
BRANCH  13  18
HETATM   18  C8  UNL     1     -13.423  53.021  54.008  1.00  0.00     0.363 C
HETATM   19  N5  UNL     1     -12.454  52.032  53.563  1.00  0.00    -0.290 N
HETATM   20  N6  UNL     1     -11.697  51.736  54.525  1.00  0.00    -0.285 N
ATOM     21  H5  UNL     1     -12.398  51.640  52.623  1.00  0.00     0.184 HD
HETATM   22  C9  UNL     1     -12.090  52.496  55.689  1.00  0.00     0.443 C
ATOM     23  H6  UNL     1     -10.928  51.066  54.488  1.00  0.00     0.184 HD
HETATM   24  O1  UNL     1     -13.402  52.892  55.399  1.00  0.00    -0.298 OA
BRANCH  22  25
HETATM   25  N7  UNL     1     -12.049  51.715  56.898  1.00  0.00    -0.033 N
ATOM     26  H73 UNL     1     -11.425  50.914  56.797  1.00  0.00     0.279 HD
ATOM     27  H72 UNL     1     -11.557  52.213  57.639  1.00  0.00     0.279 HD
ATOM     28  H71 UNL     1     -12.976  51.422  57.205  1.00  0.00     0.279 HD
ENDBRANCH  22  25
ENDBRANCH  13  18
BRANCH  14  29
HETATM   29  C10 UNL     1     -17.512  52.341  52.729  1.00  0.00     0.165 C
BRANCH  29  30
HETATM   30  C11 UNL     1     -18.864  52.969  52.411  1.00  0.00     0.249 C
BRANCH  30  31
HETATM   31  N9  UNL     1     -19.026  52.960  50.952  1.00  0.00    -0.078 N
ATOM     32  H93 UNL     1     -18.757  52.072  50.528  1.00  0.00     0.274 HD
ATOM     33  H92 UNL     1     -20.003  52.958  50.660  1.00  0.00     0.274 HD
ATOM     34  H91 UNL     1     -18.503  53.753  50.578  1.00  0.00     0.274 HD
ENDBRANCH  30  31
ENDBRANCH  29  30
ENDBRANCH  14  29
ENDBRANCH  10  11
ENDBRANCH   7  10
ENDBRANCH   3   4
TORSDOF 8
ENDMDL