MODEL 1
REMARK VINA RESULT: -5.624122570      0.000      0.000
REMARK  6 active torsions:
REMARK  status: ('A' for Active; 'I' for Inactive)
REMARK    1  A    between atoms: O1_2  and  N1_3
REMARK       I    between atoms: C2_5  and  N3_7
REMARK    2  A    between atoms: N3_7  and  C3_9
REMARK    3  A    between atoms: C6_12  and  N4_13
REMARK    4  A    between atoms: N4_13  and  C7_15
REMARK    5  A    between atoms: C7_15  and  C8_16
REMARK    6  A    between atoms: C8_16  and  N5_17
ROOT
HETATM    1  C3  UNL     1       1.953  43.770   5.393  1.00  0.00     0.122 A
HETATM    2  C4  UNL     1       1.671  42.478   5.035  1.00  0.00     0.053 A
HETATM    3  C5  UNL     1       2.676  41.541   5.254  1.00  0.00     0.053 A
HETATM    4  C6  UNL     1       3.885  41.870   5.797  1.00  0.00     0.115 A
HETATM    5  N6  UNL     1       4.086  43.168   6.124  1.00  0.00    -0.284 N
ATOM      6  H6  UNL     1       4.976  43.455   6.532  1.00  0.00     0.188 HD
HETATM    7  N7  UNL     1       3.139  44.066   5.920  1.00  0.00    -0.284 N
ATOM      8  H7  UNL     1       3.326  45.034   6.180  1.00  0.00     0.188 HD
ENDROOT
BRANCH   1   9
HETATM    9  N3  UNL     1       1.084  44.701   5.220  1.00  0.00    -0.314 N
HETATM   10  C2  UNL     1       1.479  45.989   4.796  1.00  0.00     0.213 C
HETATM   11  N1  UNL     1       1.271  46.422   3.584  1.00  0.00    -0.239 N
HETATM   12  N2  UNL     1       2.125  46.833   5.736  1.00  0.00    -0.061 NA
ATOM     13  H1  UNL     1       1.564  47.357   3.299  1.00  0.00     0.197 HD
ATOM     14  H3  UNL     1       0.097  44.508   5.392  1.00  0.00     0.170 HD
BRANCH  11  15
HETATM   15  O1  UNL     1       0.638  45.568   2.702  1.00  0.00    -0.283 OA
HETATM   16  C1  UNL     1       1.353  44.998   1.627  1.00  0.00     0.237 C
ENDBRANCH  11  15
ENDBRANCH   1   9
BRANCH   4  17
HETATM   17  N4  UNL     1       4.760  40.969   5.968  1.00  0.00    -0.374 N
ATOM     18  H4  UNL     1       5.199  40.543   5.153  1.00  0.00     0.161 HD
BRANCH  17  19
HETATM   19  C7  UNL     1       5.148  40.536   7.270  1.00  0.00     0.151 C
BRANCH  19  20
HETATM   20  C8  UNL     1       6.592  40.100   7.345  1.00  0.00     0.290 C
BRANCH  20  21
HETATM   21  N5  UNL     1       6.838  38.795   6.826  1.00  0.00     0.081 N
HETATM   22  C9  UNL     1       8.186  38.489   6.484  1.00  0.00     0.309 C
HETATM   23  C10 UNL     1       6.385  37.821   7.799  1.00  0.00     0.309 C
ENDBRANCH  20  21
ENDBRANCH  19  20
ENDBRANCH  17  19
ENDBRANCH   4  17
TORSDOF 6
ENDMDL