MODEL 4
REMARK VINA RESULT: -5.042632175      1.542      3.818
REMARK  5 active torsions:
REMARK  status: ('A' for Active; 'I' for Inactive)
REMARK    1  A    between atoms: C2_2  and  C3_3
REMARK    2  A    between atoms: C6_7  and  N2_8
REMARK       I    between atoms: N2_8  and  C7_9
REMARK       I    between atoms: C7_9  and  N4_13
REMARK    3  A    between atoms: N4_13  and  C8_15
REMARK    4  A    between atoms: C8_15  and  C9_16
REMARK    5  A    between atoms: C9_16  and  O1_17
ROOT
HETATM    1  C3  UNL     1       4.036  41.653   5.758  1.00  0.00     0.028 A
HETATM    2  C4  UNL     1       4.192  42.871   6.362  1.00  0.00     0.118 A
HETATM    3  N1  UNL     1       3.492  43.944   5.949  1.00  0.00    -0.332 N
HETATM    4  C5  UNL     1       3.663  45.206   6.612  1.00  0.00     0.158 C
HETATM    5  C6  UNL     1       2.592  43.881   4.909  1.00  0.00     0.226 A
HETATM    6  C11 UNL     1       2.479  42.629   4.342  1.00  0.00     0.177 A
HETATM    7  N5  UNL     1       1.598  42.396   3.256  1.00  0.00    -0.077 NA
HETATM    8  N6  UNL     1       3.177  41.534   4.749  1.00  0.00    -0.338 N
HETATM    9  C12 UNL     1       2.918  40.262   4.054  1.00  0.00     0.157 C
ENDROOT
BRANCH   5  10
HETATM   10  N2  UNL     1       2.025  44.895   4.588  1.00  0.00    -0.349 NA
HETATM   11  C7  UNL     1       1.423  45.975   4.216  1.00  0.00     0.254 C
HETATM   12  N3  UNL     1       1.431  47.150   4.896  1.00  0.00    -0.359 N
HETATM   13  N4  UNL     1       0.641  46.201   3.025  1.00  0.00    -0.328 N
ATOM     14  H32 UNL     1       1.984  46.990   5.738  1.00  0.00     0.160 HD
ATOM     15  H31 UNL     1       0.955  48.002   4.602  1.00  0.00     0.160 HD
ATOM     16  H4  UNL     1      -0.276  46.635   3.131  1.00  0.00     0.169 HD
BRANCH  13  17
HETATM   17  C8  UNL     1       1.061  45.860   1.730  1.00  0.00     0.091 C
BRANCH  17  18
HETATM   18  C9  UNL     1       0.411  44.742   1.016  1.00  0.00     0.211 C
BRANCH  18  19
HETATM   19  O1  UNL     1      -0.599  44.989   0.177  1.00  0.00    -0.391 OA
HETATM   20  C10 UNL     1      -1.086  43.968  -0.549  1.00  0.00     0.201 C
ENDBRANCH  18  19
ENDBRANCH  17  18
ENDBRANCH  13  17
ENDBRANCH   5  10
BRANCH   1  21
HETATM   21  C2  UNL     1       4.833  40.485   6.217  1.00  0.00     0.054 C
HETATM   22  C1  UNL     1       5.803  40.837   7.300  1.00  0.00     0.011 C
ENDBRANCH   1  21
TORSDOF 5
ENDMDL