MODEL 3
REMARK VINA RESULT: -6.688258717      1.789      2.839
REMARK  6 active torsions:
REMARK  status: ('A' for Active; 'I' for Inactive)
REMARK    1  A    between atoms: C2_2  and  C3_3
REMARK    2  A    between atoms: C3_3  and  N1_4
REMARK    3  A    between atoms: C4_5  and  N2_6
REMARK    4  A    between atoms: C8_14  and  C9_15
REMARK    5  A    between atoms: C9_15  and  N4_16
REMARK    6  A    between atoms: N4_16  and  N5_18
ROOT
HETATM    1  N1  UNL     1       0.725  44.703   2.916  1.00  0.00    -0.144 N
HETATM    2  C4  UNL     1       0.410  43.762   2.046  1.00  0.00     0.681 A
HETATM    3  N3  UNL     1       0.952  42.510   2.197  1.00  0.00    -0.191 N
ATOM      4  H3  UNL     1       0.701  41.791   1.518  1.00  0.00     0.184 HD
HETATM    5  C5  UNL     1       1.791  42.178   3.183  1.00  0.00     0.065 A
HETATM    6  C6  UNL     1       2.328  40.912   3.320  1.00  0.00     0.032 A
HETATM    7  C7  UNL     1       3.192  40.577   4.339  1.00  0.00     0.015 A
HETATM    8  C8  UNL     1       3.525  41.554   5.252  1.00  0.00    -0.018 A
HETATM    9  C10 UNL     1       2.988  42.835   5.122  1.00  0.00     0.032 A
HETATM   10  C11 UNL     1       2.131  43.152   4.104  1.00  0.00     0.061 A
HETATM   11  C12 UNL     1       1.574  44.399   3.931  1.00  0.00     0.274 A
HETATM   12  O1  UNL     1       1.859  45.312   4.746  1.00  0.00    -0.266 OA
ENDROOT
BRANCH   8  13
HETATM   13  C9  UNL     1       4.434  41.213   6.330  1.00  0.00     0.120 C
BRANCH  13  14
HETATM   14  N4  UNL     1       5.173  40.164   6.287  1.00  0.00    -0.297 N
ATOM     15  H4  UNL     1       4.890  39.392   5.684  1.00  0.00     0.187 HD
BRANCH  14  16
HETATM   16  N5  UNL     1       6.347  40.038   7.031  1.00  0.00    -0.250 N
HETATM   17  N6  UNL     1       7.286  39.276   6.599  1.00  0.00    -0.331 N
ATOM     18  H62 UNL     1       7.160  38.776   5.720  1.00  0.00     0.178 HD
ATOM     19  H61 UNL     1       8.145  39.184   7.143  1.00  0.00     0.178 HD
ATOM     20  H5  UNL     1       6.459  40.544   7.909  1.00  0.00     0.207 HD
ENDBRANCH  14  16
ENDBRANCH  13  14
ENDBRANCH   8  13
BRANCH   1  21
HETATM   21  C3  UNL     1       0.183  46.042   2.784  1.00  0.00     0.177 C
BRANCH  21  22
HETATM   22  C2  UNL     1       1.200  47.099   2.704  1.00  0.00    -0.016 C
HETATM   23  C1  UNL     1       1.116  48.203   3.416  1.00  0.00     0.008 C
ENDBRANCH  21  22
ENDBRANCH   1  21
BRANCH   2  24
HETATM   24  N2  UNL     1      -0.395  43.898   1.034  1.00  0.00    -0.234 N
ATOM     25  H22 UNL     1       0.041  43.811   0.116  1.00  0.00     0.174 HD
ATOM     26  H21 UNL     1      -1.399  44.071   1.086  1.00  0.00     0.174 HD
ENDBRANCH   2  24
TORSDOF 6
ENDMDL