MODEL 4
REMARK VINA RESULT: -7.341670625      2.275      5.768
REMARK  5 active torsions:
REMARK  status: ('A' for Active; 'I' for Inactive)
REMARK    1  A    between atoms: N2_5  and  C4_6
REMARK    2  A    between atoms: C4_6  and  C5_7
REMARK    3  A    between atoms: C5_7  and  C6_8
REMARK    4  A    between atoms: C6_8  and  N3_9
REMARK    5  A    between atoms: C11_18  and  N5_19
ROOT
HETATM    1  N3  UNL     1       2.326  44.400   5.979  1.00  0.00    -0.376 N
ATOM      2  H3  UNL     1       2.865  44.598   6.822  1.00  0.00     0.161 HD
HETATM    3  C7  UNL     1       2.632  43.345   5.339  1.00  0.00     0.117 C
HETATM    4  C8  UNL     1       1.906  43.083   4.208  1.00  0.00     0.054 C
HETATM    5  C9  UNL     1       1.679  41.835   3.668  1.00  0.00     0.079 C
HETATM    6  C10 UNL     1       2.306  40.637   3.924  1.00  0.00     0.259 C
HETATM    7  O1  UNL     1       1.872  39.598   3.358  1.00  0.00    -0.268 OA
HETATM    8  N4  UNL     1       3.377  40.447   4.746  1.00  0.00    -0.156 N
ATOM      9  H4  UNL     1       3.796  39.519   4.708  1.00  0.00     0.187 HD
HETATM   10  C11 UNL     1       3.953  41.300   5.592  1.00  0.00     0.680 C
HETATM   11  N6  UNL     1       3.630  42.605   5.844  1.00  0.00    -0.177 N
ATOM     12  H6  UNL     1       4.234  43.084   6.512  1.00  0.00     0.185 HD
ENDROOT
BRANCH   1  13
HETATM   13  C6  UNL     1       1.293  45.347   5.633  1.00  0.00     0.123 C
BRANCH  13  14
HETATM   14  C5  UNL     1       1.860  46.667   5.191  1.00  0.00     0.040 C
BRANCH  14  15
HETATM   15  C4  UNL     1       1.098  47.286   4.057  1.00  0.00     0.131 C
BRANCH  15  16
HETATM   16  N2  UNL     1       0.995  46.343   2.964  1.00  0.00    -0.351 N
HETATM   17  C3  UNL     1       1.998  46.050   2.077  1.00  0.00     0.109 A
HETATM   18  C2  UNL     1       1.525  45.096   1.203  1.00  0.00     0.108 A
HETATM   19  N1  UNL     1       0.258  44.798   1.533  1.00  0.00    -0.356 N
HETATM   20  C1  UNL     1      -0.608  43.833   0.857  1.00  0.00     0.156 C
HETATM   21  C12 UNL     1      -0.038  45.560   2.594  1.00  0.00     0.184 A
ENDBRANCH  15  16
ENDBRANCH  14  15
ENDBRANCH  13  14
ENDBRANCH   1  13
BRANCH  10  22
HETATM   22  N5  UNL     1       4.957  40.823   6.265  1.00  0.00    -0.234 N
ATOM     23  H52 UNL     1       5.779  40.566   5.718  1.00  0.00     0.174 HD
ATOM     24  H51 UNL     1       4.815  40.757   7.273  1.00  0.00     0.174 HD
ENDBRANCH  10  22
TORSDOF 5
ENDMDL