MODEL 1
REMARK VINA RESULT: -6.931236208      0.000      0.000
REMARK  5 active torsions:
REMARK  status: ('A' for Active; 'I' for Inactive)
REMARK    1  A    between atoms: C2_2  and  N1_3
REMARK    2  A    between atoms: C4_6  and  C5_7
REMARK    3  A    between atoms: C5_7  and  C6_8
REMARK    4  A    between atoms: C6_8  and  N3_9
REMARK    5  A    between atoms: N5_16  and  N6_18
ROOT
HETATM    1  N1  UNL     1       1.439  44.925   1.797  1.00  0.00    -0.298 N
HETATM    2  C3  UNL     1       2.140  44.000   2.513  1.00  0.00     0.144 A
HETATM    3  N2  UNL     1       3.217  44.523   3.301  1.00  0.00    -0.080 NA
HETATM    4  C4  UNL     1       1.833  42.650   2.493  1.00  0.00     0.054 A
HETATM    5  N4  UNL     1       0.792  42.264   1.724  1.00  0.00    -0.337 N
ATOM      6  H4  UNL     1       0.547  41.274   1.692  1.00  0.00     0.167 HD
HETATM    7  C10 UNL     1       0.066  43.132   0.996  1.00  0.00     0.189 A
HETATM    8  N5  UNL     1      -0.909  42.672   0.292  1.00  0.00    -0.287 N
ATOM      9  H5  UNL     1      -1.108  41.672   0.301  1.00  0.00     0.188 HD
HETATM   10  C11 UNL     1       0.410  44.465   1.050  1.00  0.00     0.294 A
HETATM   11  O1  UNL     1      -0.243  45.311   0.386  1.00  0.00    -0.264 OA
ENDROOT
BRANCH   4  12
HETATM   12  C5  UNL     1       2.620  41.680   3.288  1.00  0.00     0.088 C
BRANCH  12  13
HETATM   13  C6  UNL     1       3.688  42.271   4.135  1.00  0.00     0.242 C
BRANCH  13  14
HETATM   14  N3  UNL     1       3.453  42.138   5.544  1.00  0.00    -0.078 N
HETATM   15  C7  UNL     1       2.119  41.669   5.847  1.00  0.00     0.271 C
HETATM   16  C8  UNL     1       3.625  43.437   6.168  1.00  0.00     0.271 C
HETATM   17  C9  UNL     1       4.384  41.237   6.191  1.00  0.00     0.271 C
ENDBRANCH  13  14
ENDBRANCH  12  13
ENDBRANCH   4  12
BRANCH   1  18
HETATM   18  C2  UNL     1       1.797  46.318   1.852  1.00  0.00     0.129 C
HETATM   19  C1  UNL     1       1.167  47.080   2.972  1.00  0.00     0.027 C
ENDBRANCH   1  18
BRANCH   8  20
HETATM   20  N6  UNL     1      -1.696  43.521  -0.479  1.00  0.00    -0.343 N
ATOM     21  H62 UNL     1      -1.816  44.486  -0.174  1.00  0.00     0.176 HD
ATOM     22  H61 UNL     1      -2.145  43.188  -1.332  1.00  0.00     0.176 HD
ENDBRANCH   8  20
TORSDOF 5
ENDMDL