MODEL 5
REMARK VINA RESULT: -4.523695999      3.893      7.023
REMARK  7 active torsions:
REMARK  status: ('A' for Active; 'I' for Inactive)
REMARK    1  A    between atoms: C3_5  and  C4_6
REMARK    2  A    between atoms: C4_6  and  C5_7
REMARK    3  A    between atoms: C8_10  and  O1_11
REMARK    4  A    between atoms: O1_11  and  C9_12
REMARK    5  A    between atoms: C9_12  and  C10_13
REMARK    6  A    between atoms: C10_13  and  O2_14
REMARK    7  A    between atoms: C13_18  and  N2_19
ROOT
HETATM    1  C4  UNL     1       0.971  44.346   4.309  1.00  0.00     0.044 C
ENDROOT
BRANCH   1   2
HETATM    2  C3  UNL     1       0.637  44.391   3.032  1.00  0.00     0.078 A
HETATM    3  N1  UNL     1      -0.095  43.459   2.384  1.00  0.00    -0.340 N
HETATM    4  C2  UNL     1      -0.250  43.818   1.088  1.00  0.00     0.099 A
ATOM      5  H1  UNL     1      -0.473  42.612   2.808  1.00  0.00     0.167 HD
HETATM    6  C1  UNL     1      -0.905  43.159   0.141  1.00  0.00     0.064 C
HETATM    7  N3  UNL     1       0.404  44.988   0.964  1.00  0.00    -0.323 N
HETATM    8  C13 UNL     1       0.961  45.378   2.124  1.00  0.00     0.129 A
HETATM    9  C14 UNL     1       0.507  45.750  -0.263  1.00  0.00     0.159 C
BRANCH   8  10
HETATM   10  N2  UNL     1       1.654  46.433   2.378  1.00  0.00    -0.383 N
ATOM     11  H22 UNL     1       2.612  46.655   2.106  1.00  0.00     0.157 HD
ATOM     12  H21 UNL     1       1.334  47.239   2.913  1.00  0.00     0.157 HD
ENDBRANCH   8  10
ENDBRANCH   1   2
BRANCH   1  13
HETATM   13  C5  UNL     1       1.989  43.464   4.837  1.00  0.00    -0.034 A
HETATM   14  C6  UNL     1       3.075  43.895   5.557  1.00  0.00     0.014 A
HETATM   15  C7  UNL     1       4.031  43.000   6.047  1.00  0.00     0.037 A
HETATM   16  C8  UNL     1       3.913  41.646   5.820  1.00  0.00     0.068 A
HETATM   17  C11 UNL     1       2.802  41.201   5.082  1.00  0.00     0.037 A
HETATM   18  C12 UNL     1       1.891  42.118   4.624  1.00  0.00     0.014 A
BRANCH  16  19
HETATM   19  O1  UNL     1       4.791  40.716   6.260  1.00  0.00    -0.349 OA
BRANCH  19  20
HETATM   20  C9  UNL     1       5.722  40.677   7.257  1.00  0.00     0.201 C
BRANCH  20  21
HETATM   21  C10 UNL     1       6.619  39.468   7.309  1.00  0.00     0.190 C
BRANCH  21  22
HETATM   22  O2  UNL     1       6.336  38.589   6.247  1.00  0.00    -0.399 OA
ATOM     23  H2  UNL     1       6.904  37.829   6.278  1.00  0.00     0.209 HD
ENDBRANCH  21  22
ENDBRANCH  20  21
ENDBRANCH  19  20
ENDBRANCH  16  19
ENDBRANCH   1  13
TORSDOF 7
ENDMDL