MODEL 5
REMARK VINA RESULT: -4.627302021      2.351      3.458
REMARK  4 active torsions:
REMARK  status: ('A' for Active; 'I' for Inactive)
REMARK    1  A    between atoms: C3_6  and  C4_7
REMARK    2  A    between atoms: N5_19  and  C11_21
REMARK    3  A    between atoms: C11_21  and  C12_22
REMARK    4  A    between atoms: C12_22  and  N6_23
ROOT
HETATM    1  C1  UNL     1       2.864  39.343   4.230  1.00  0.00     0.197 C
HETATM    2  N1  UNL     1       3.039  40.758   4.575  1.00  0.00    -0.128 N
HETATM    3  N2  UNL     1       2.236  41.717   3.972  1.00  0.00    -0.279 N
ATOM      4  H2  UNL     1       1.536  41.410   3.297  1.00  0.00     0.188 HD
HETATM    5  C2  UNL     1       2.345  43.134   4.259  1.00  0.00     0.119 A
HETATM    6  C3  UNL     1       1.534  43.971   3.681  1.00  0.00     0.066 C
HETATM    7  C9  UNL     1       3.369  43.460   5.233  1.00  0.00     0.287 A
HETATM    8  O1  UNL     1       3.551  44.657   5.563  1.00  0.00    -0.265 OA
HETATM    9  N4  UNL     1       4.215  42.485   5.872  1.00  0.00    -0.153 N
ATOM     10  H4  UNL     1       4.921  42.767   6.551  1.00  0.00     0.187 HD
HETATM   11  C10 UNL     1       4.037  41.130   5.530  1.00  0.00     0.697 A
HETATM   12  N5  UNL     1       4.737  40.208   6.043  1.00  0.00    -0.223 N
ATOM     13  H5  UNL     1       4.568  39.242   5.763  1.00  0.00     0.177 HD
ENDROOT
BRANCH   6  14
HETATM   14  C4  UNL     1       1.407  45.392   3.757  1.00  0.00     0.034 A
HETATM   15  C5  UNL     1       1.289  46.288   2.731  1.00  0.00     0.029 A
HETATM   16  C6  UNL     1       1.199  47.635   2.989  1.00  0.00     0.004 A
HETATM   17  C7  UNL     1       1.224  48.103   4.291  1.00  0.00     0.017 A
HETATM   18  C8  UNL     1       1.343  47.187   5.324  1.00  0.00     0.088 A
HETATM   19  N3  UNL     1       1.428  45.901   5.036  1.00  0.00    -0.366 N
ATOM     20  H3  UNL     1       1.514  45.242   5.810  1.00  0.00     0.165 HD
ENDBRANCH   6  14
BRANCH  12  21
HETATM   21  C11 UNL     1       5.761  40.485   7.008  1.00  0.00     0.165 C
BRANCH  21  22
HETATM   22  C12 UNL     1       6.520  39.201   7.304  1.00  0.00     0.249 C
BRANCH  22  23
HETATM   23  N6  UNL     1       7.320  38.815   6.180  1.00  0.00    -0.078 N
ATOM     24  H63 UNL     1       7.663  39.625   5.664  1.00  0.00     0.274 HD
ATOM     25  H62 UNL     1       8.217  38.426   6.471  1.00  0.00     0.274 HD
ATOM     26  H61 UNL     1       6.808  38.171   5.577  1.00  0.00     0.274 HD
ENDBRANCH  22  23
ENDBRANCH  21  22
ENDBRANCH  12  21
TORSDOF 4
ENDMDL