MODEL 1
REMARK VINA RESULT: -7.782393612      0.000      0.000
REMARK  4 active torsions:
REMARK  status: ('A' for Active; 'I' for Inactive)
REMARK    1  A    between atoms: C3_3  and  O1_4
REMARK    2  A    between atoms: O1_4  and  C4_5
REMARK    3  A    between atoms: C5_6  and  C6_7
REMARK    4  A    between atoms: N1_8  and  N2_10
REMARK       I    between atoms: N2_10  and  C7_12
ROOT
HETATM    1  C1  UNL     1       2.408  38.923   3.542  1.00  0.00     0.014 C
HETATM    2  C2  UNL     1       2.134  40.081   3.437  1.00  0.00    -0.091 C
HETATM    3  C3  UNL     1       1.809  41.483   3.284  1.00  0.00     0.270 C
ENDROOT
BRANCH   3   4
HETATM    4  O1  UNL     1       2.987  42.298   3.357  1.00  0.00    -0.323 OA
BRANCH   4   5
HETATM    5  C4  UNL     1       2.864  43.423   4.190  1.00  0.00     0.158 A
HETATM    6  C5  UNL     1       2.267  44.592   3.753  1.00  0.00     0.051 A
HETATM    7  C8  UNL     1       2.172  45.659   4.601  1.00  0.00     0.034 A
HETATM    8  C9  UNL     1       1.559  46.884   4.180  1.00  0.00    -0.077 C
HETATM    9  C11 UNL     1       2.688  45.524   5.890  1.00  0.00     0.039 A
HETATM   10  C10 UNL     1       1.048  47.928   3.851  1.00  0.00     0.018 C
HETATM   11  C12 UNL     1       3.281  44.354   6.314  1.00  0.00     0.094 A
HETATM   12  N5  UNL     1       3.349  43.329   5.434  1.00  0.00    -0.341 N
HETATM   13  C13 UNL     1       3.974  42.069   5.853  1.00  0.00     0.158 C
BRANCH   6  14
HETATM   14  C6  UNL     1       1.768  44.609   2.386  1.00  0.00     0.124 C
HETATM   15  N1  UNL     1       0.543  44.584   2.031  1.00  0.00    -0.309 N
ATOM     16  H1  UNL     1      -0.166  44.549   2.763  1.00  0.00     0.186 HD
BRANCH  15  17
HETATM   17  N2  UNL     1       0.117  44.602   0.707  1.00  0.00    -0.274 N
HETATM   18  C7  UNL     1      -0.724  43.605   0.146  1.00  0.00     0.200 C
HETATM   19  N3  UNL     1      -0.792  42.437   0.689  1.00  0.00    -0.372 N
HETATM   20  N4  UNL     1      -1.506  43.852  -1.011  1.00  0.00    -0.062 NA
ATOM     21  H32 UNL     1      -0.230  42.259   1.521  1.00  0.00     0.158 HD
ATOM     22  H31 UNL     1      -1.396  41.720   0.287  1.00  0.00     0.158 HD
ATOM     23  H2  UNL     1       0.423  45.369   0.109  1.00  0.00     0.189 HD
ENDBRANCH  15  17
ENDBRANCH   6  14
ENDBRANCH   4   5
ENDBRANCH   3   4
TORSDOF 4
ENDMDL