MODEL 4
REMARK VINA RESULT: -6.032945764      2.938      5.242
REMARK  7 active torsions:
REMARK  status: ('A' for Active; 'I' for Inactive)
REMARK    1  A    between atoms: C2_2  and  C3_3
REMARK    2  A    between atoms: C3_3  and  C4_4
REMARK    3  A    between atoms: C4_4  and  N1_5
REMARK    4  A    between atoms: N1_5  and  C5_7
REMARK    5  A    between atoms: N3_10  and  N4_11
REMARK    6  A    between atoms: C10_20  and  N6_21
REMARK    7  A    between atoms: N6_21  and  C11_23
ROOT
HETATM    1  C5  UNL     1       3.611  41.645   5.554  1.00  0.00     0.699 C
HETATM    2  N2  UNL     1       3.030  40.795   4.691  1.00  0.00    -0.111 N
ATOM      3  H2  UNL     1       3.041  39.810   4.957  1.00  0.00     0.208 HD
HETATM    4  N3  UNL     1       2.438  41.084   3.519  1.00  0.00    -0.187 N
HETATM    5  C6  UNL     1       1.795  42.215   3.151  1.00  0.00     0.106 A
HETATM    6  C7  UNL     1       1.141  42.446   1.958  1.00  0.00     0.053 A
HETATM    7  C8  UNL     1       0.606  43.722   1.950  1.00  0.00     0.091 A
HETATM    8  N5  UNL     1       0.937  44.263   3.147  1.00  0.00    -0.361 N
ATOM      9  H5  UNL     1       0.686  45.204   3.451  1.00  0.00     0.165 HD
HETATM   10  C9  UNL     1       1.645  43.383   3.877  1.00  0.00     0.107 A
HETATM   11  C10 UNL     1       2.151  43.599   5.156  1.00  0.00     0.146 C
HETATM   12  N7  UNL     1       3.085  42.884   5.811  1.00  0.00    -0.173 N
ATOM     13  H7  UNL     1       3.465  43.343   6.640  1.00  0.00     0.186 HD
ENDROOT
BRANCH   1  14
HETATM   14  N1  UNL     1       4.682  41.339   6.178  1.00  0.00    -0.204 N
ATOM     15  H1  UNL     1       5.199  42.142   6.536  1.00  0.00     0.183 HD
BRANCH  14  16
HETATM   16  C4  UNL     1       5.280  40.105   6.459  1.00  0.00     0.079 C
BRANCH  16  17
HETATM   17  C3  UNL     1       6.362  40.081   7.492  1.00  0.00     0.045 C
BRANCH  17  18
HETATM   18  C2  UNL     1       7.265  38.850   7.293  1.00  0.00     0.001 C
HETATM   19  C1  UNL     1       6.479  37.650   7.778  1.00  0.00     0.005 C
ENDBRANCH  17  18
ENDBRANCH  16  17
ENDBRANCH  14  16
ENDBRANCH   1  14
BRANCH   4  20
HETATM   20  N4  UNL     1       2.461  40.122   2.514  1.00  0.00    -0.323 N
ATOM     21  H42 UNL     1       2.661  39.185   2.865  1.00  0.00     0.179 HD
ATOM     22  H41 UNL     1       2.284  40.421   1.555  1.00  0.00     0.179 HD
ENDBRANCH   4  20
BRANCH  11  23
HETATM   23  N6  UNL     1       1.647  44.616   5.762  1.00  0.00    -0.374 N
ATOM     24  H6  UNL     1       0.684  44.529   6.086  1.00  0.00     0.161 HD
BRANCH  23  25
HETATM   25  C11 UNL     1       2.314  45.859   6.025  1.00  0.00     0.116 C
HETATM   26  C12 UNL     1       1.658  47.043   5.345  1.00  0.00     0.026 C
ENDBRANCH  23  25
ENDBRANCH  11  23
TORSDOF 7
ENDMDL