MODEL 4
REMARK VINA RESULT: -7.011102900      1.660      2.385
REMARK  1 active torsions:
REMARK  status: ('A' for Active; 'I' for Inactive)
REMARK       I    between atoms: C1_2  and  N2_4
REMARK    1  A    between atoms: N2_4  and  C2_6
ROOT
HETATM    1  C2  UNL     1      14.755  37.602  42.911  1.00  0.00     0.157 A
HETATM    2  C3  UNL     1      14.291  38.847  42.727  1.00  0.00     0.140 A
HETATM    3  N3  UNL     1      14.230  39.928  41.935  1.00  0.00    -0.292 N
ATOM      4  H3  UNL     1      14.627  40.143  41.021  1.00  0.00     0.187 HD
HETATM    5  N4  UNL     1      13.469  40.614  42.771  1.00  0.00    -0.282 N
ATOM      6  H4  UNL     1      13.041  41.539  42.789  1.00  0.00     0.188 HD
HETATM    7  C4  UNL     1      13.511  39.534  43.597  1.00  0.00     0.168 A
HETATM    8  N5  UNL     1      13.130  39.034  44.721  1.00  0.00    -0.268 N
ATOM      9  H5  UNL     1      12.542  39.557  45.370  1.00  0.00     0.190 HD
HETATM   10  N6  UNL     1      13.562  37.743  45.002  1.00  0.00    -0.239 N
ATOM     11  H6  UNL     1      13.276  37.320  45.885  1.00  0.00     0.208 HD
HETATM   12  N7  UNL     1      14.379  36.985  44.125  1.00  0.00    -0.269 N
ATOM     13  H7  UNL     1      14.681  36.040  44.359  1.00  0.00     0.190 HD
ENDROOT
BRANCH   1  14
HETATM   14  N2  UNL     1      15.563  36.977  41.939  1.00  0.00    -0.294 N
HETATM   15  C1  UNL     1      15.373  35.768  41.280  1.00  0.00     0.334 C
HETATM   16  N1  UNL     1      16.334  35.311  40.313  1.00  0.00    -0.040 NA
HETATM   17  O1  UNL     1      14.398  35.025  41.471  1.00  0.00    -0.251 OA
ATOM     18  H2  UNL     1      16.409  37.485  41.683  1.00  0.00     0.172 HD
ENDBRANCH   1  14
TORSDOF 1
ENDMDL