MODEL 4
REMARK VINA RESULT: -7.068435567      2.844      3.508
REMARK  2 active torsions:
REMARK  status: ('A' for Active; 'I' for Inactive)
REMARK    1  A    between atoms: N3_8  and  N4_10
REMARK    2  A    between atoms: N4_10  and  N5_12
ROOT
HETATM    1  C1  UNL     1      15.462  40.775  42.111  1.00  0.00     0.065 C
HETATM    2  C2  UNL     1      14.925  39.572  42.222  1.00  0.00     0.113 A
HETATM    3  N1  UNL     1      15.515  38.548  43.005  1.00  0.00    -0.284 N
ATOM      4  H1  UNL     1      16.383  38.746  43.502  1.00  0.00     0.188 HD
HETATM    5  N2  UNL     1      14.944  37.276  43.120  1.00  0.00    -0.278 N
ATOM      6  H2  UNL     1      15.397  36.563  43.691  1.00  0.00     0.189 HD
HETATM    7  C3  UNL     1      13.746  36.982  42.446  1.00  0.00     0.205 A
HETATM    8  N3  UNL     1      13.210  35.820  42.541  1.00  0.00    -0.264 N
ATOM      9  H3  UNL     1      12.341  35.607  42.051  1.00  0.00     0.190 HD
HETATM   10  C4  UNL     1      13.083  37.983  41.624  1.00  0.00     0.293 A
HETATM   11  O1  UNL     1      12.011  37.738  41.012  1.00  0.00    -0.264 OA
HETATM   12  N7  UNL     1      13.701  39.261  41.537  1.00  0.00    -0.306 N
ATOM     13  H7  UNL     1      13.259  39.983  40.968  1.00  0.00     0.170 HD
ENDROOT
BRANCH   8  14
HETATM   14  N4  UNL     1      13.838  34.854  43.327  1.00  0.00    -0.227 N
ATOM     15  H4  UNL     1      14.840  34.904  43.509  1.00  0.00     0.210 HD
BRANCH  14  16
HETATM   16  N5  UNL     1      13.065  33.816  43.861  1.00  0.00    -0.235 N
HETATM   17  N6  UNL     1      11.956  33.453  43.366  1.00  0.00    -0.330 N
ATOM     18  H62 UNL     1      11.625  33.952  42.540  1.00  0.00     0.178 HD
ATOM     19  H61 UNL     1      11.393  32.696  43.755  1.00  0.00     0.178 HD
ATOM     20  H5  UNL     1      13.411  33.328  44.688  1.00  0.00     0.209 HD
ENDBRANCH  14  16
ENDBRANCH   8  14
TORSDOF 2
ENDMDL