MODEL 5
REMARK VINA RESULT: -6.593444889      1.048      1.583
REMARK  6 active torsions:
REMARK  status: ('A' for Active; 'I' for Inactive)
REMARK    1  A    between atoms: C1_4  and  N2_5
REMARK    2  A    between atoms: C1_4  and  C2_14
REMARK    3  A    between atoms: N2_5  and  N3_7
REMARK    4  A    between atoms: N3_7  and  N4_9
REMARK    5  A    between atoms: N4_9  and  N5_11
REMARK       I    between atoms: C2_14  and  N6_16
REMARK    6  A    between atoms: N6_16  and  N7_18
REMARK       I    between atoms: N7_18  and  C3_20
ROOT
HETATM    1  N1  UNL     1      15.646  37.113  42.275  1.00  0.00    -0.380 N
ATOM      2  H11 UNL     1      15.762  37.086  41.262  1.00  0.00     0.158 HD
ATOM      3  H12 UNL     1      16.484  37.269  42.836  1.00  0.00     0.158 HD
HETATM    4  C1  UNL     1      14.545  36.948  42.885  1.00  0.00     0.185 C
ENDROOT
BRANCH   4   5
HETATM    5  N2  UNL     1      14.383  36.987  44.300  1.00  0.00    -0.266 N
ATOM      6  H2  UNL     1      14.860  36.312  44.897  1.00  0.00     0.190 HD
BRANCH   5   7
HETATM    7  N3  UNL     1      13.619  37.894  44.809  1.00  0.00    -0.227 N
ATOM      8  H3  UNL     1      12.885  37.627  45.465  1.00  0.00     0.210 HD
BRANCH   7   9
HETATM    9  N4  UNL     1      13.792  39.242  44.468  1.00  0.00    -0.235 N
ATOM     10  H4  UNL     1      14.667  39.689  44.738  1.00  0.00     0.209 HD
BRANCH   9  11
HETATM   11  N5  UNL     1      12.871  40.005  43.798  1.00  0.00    -0.330 N
ATOM     12  H52 UNL     1      12.105  40.385  44.354  1.00  0.00     0.178 HD
ATOM     13  H51 UNL     1      12.902  40.213  42.800  1.00  0.00     0.178 HD
ENDBRANCH   9  11
ENDBRANCH   7   9
ENDBRANCH   5   7
ENDBRANCH   4   5
BRANCH   4  14
HETATM   14  C2  UNL     1      13.316  36.719  42.062  1.00  0.00     0.304 C
HETATM   15  O1  UNL     1      12.518  37.673  41.945  1.00  0.00    -0.263 OA
HETATM   16  N6  UNL     1      13.138  35.459  41.477  1.00  0.00    -0.260 N
ATOM     17  H6  UNL     1      13.894  34.806  41.683  1.00  0.00     0.190 HD
BRANCH  16  18
HETATM   18  N7  UNL     1      12.164  34.929  40.692  1.00  0.00    -0.251 N
HETATM   19  C3  UNL     1      12.126  34.807  39.307  1.00  0.00     0.347 C
HETATM   20  N8  UNL     1      10.964  34.202  38.711  1.00  0.00    -0.038 NA
HETATM   21  O2  UNL     1      13.065  35.194  38.521  1.00  0.00    -0.249 OA
ATOM     22  H7  UNL     1      11.347  34.572  41.186  1.00  0.00     0.191 HD
ENDBRANCH  16  18
ENDBRANCH   4  14
TORSDOF 6
ENDMDL