MODEL 5
REMARK VINA RESULT: -6.351585543      2.370      3.337
REMARK  3 active torsions:
REMARK  status: ('A' for Active; 'I' for Inactive)
REMARK    1  A    between atoms: N1_1  and  N2_4
REMARK    2  A    between atoms: N2_4  and  C1_6
REMARK    3  A    between atoms: N6_16  and  C4_18
ROOT
HETATM    1  C1  UNL     1      14.478  37.147  42.224  1.00  0.00     0.170 A
HETATM    2  N3  UNL     1      14.883  36.446  41.133  1.00  0.00    -0.289 N
ATOM      3  H3  UNL     1      15.868  36.206  41.025  1.00  0.00     0.172 HD
HETATM    4  C2  UNL     1      13.999  36.068  40.199  1.00  0.00     0.340 A
HETATM    5  O1  UNL     1      14.444  35.423  39.217  1.00  0.00    -0.245 OA
HETATM    6  N4  UNL     1      12.706  36.389  40.350  1.00  0.00    -0.250 N
ATOM      7  H4  UNL     1      12.050  36.092  39.627  1.00  0.00     0.192 HD
HETATM    8  N5  UNL     1      12.235  37.064  41.374  1.00  0.00    -0.278 N
ATOM      9  H5  UNL     1      11.242  37.287  41.451  1.00  0.00     0.189 HD
HETATM   10  C3  UNL     1      13.132  37.454  42.334  1.00  0.00     0.168 A
HETATM   11  N6  UNL     1      12.717  38.108  43.339  1.00  0.00    -0.316 N
ATOM     12  H6  UNL     1      11.720  38.315  43.385  1.00  0.00     0.170 HD
ENDROOT
BRANCH   1  13
HETATM   13  N2  UNL     1      15.318  37.516  43.129  1.00  0.00    -0.289 N
ATOM     14  H2  UNL     1      15.073  37.494  44.118  1.00  0.00     0.188 HD
BRANCH  13  15
HETATM   15  N1  UNL     1      16.577  37.945  42.706  1.00  0.00    -0.344 N
ATOM     16  H12 UNL     1      16.671  38.507  41.860  1.00  0.00     0.176 HD
ATOM     17  H11 UNL     1      17.383  37.675  43.270  1.00  0.00     0.176 HD
ENDBRANCH  13  15
ENDBRANCH   1  13
BRANCH  11  18
HETATM   18  C4  UNL     1      13.520  38.569  44.393  1.00  0.00     0.354 C
HETATM   19  O2  UNL     1      13.499  38.060  45.559  1.00  0.00    -0.283 OA
ENDBRANCH  11  18
TORSDOF 3
ENDMDL