MODEL 1
REMARK VINA RESULT: -7.350238231      0.000      0.000
REMARK  0 active torsions:
REMARK  status: ('A' for Active; 'I' for Inactive)
REMARK       I    between atoms: C1_4  and  N3_6
ROOT
HETATM    1  N1  UNL     1      14.092  36.353  43.921  1.00  0.00    -0.373 N
ATOM      2  H11 UNL     1      14.715  36.748  44.625  1.00  0.00     0.158 HD
ATOM      3  H12 UNL     1      13.686  35.421  44.004  1.00  0.00     0.158 HD
HETATM    4  C1  UNL     1      13.808  37.062  42.888  1.00  0.00     0.200 C
HETATM    5  N2  UNL     1      12.940  36.513  41.909  1.00  0.00    -0.063 NA
HETATM    6  N3  UNL     1      14.374  38.362  42.772  1.00  0.00    -0.187 N
HETATM    7  C2  UNL     1      15.661  38.580  42.454  1.00  0.00     0.341 A
HETATM    8  O1  UNL     1      16.400  37.586  42.247  1.00  0.00    -0.246 OA
HETATM    9  N4  UNL     1      16.212  39.795  42.340  1.00  0.00    -0.260 N
ATOM     10  H4  UNL     1      17.196  39.903  42.094  1.00  0.00     0.175 HD
HETATM   11  C3  UNL     1      15.434  40.871  42.558  1.00  0.00     0.332 A
HETATM   12  O2  UNL     1      15.927  42.038  42.458  1.00  0.00    -0.246 OA
HETATM   13  N5  UNL     1      14.123  40.707  42.884  1.00  0.00    -0.260 N
ATOM     14  H5  UNL     1      13.527  41.519  43.050  1.00  0.00     0.175 HD
HETATM   15  C4  UNL     1      13.621  39.463  42.984  1.00  0.00     0.341 A
HETATM   16  O3  UNL     1      12.401  39.370  43.289  1.00  0.00    -0.246 OA
ENDROOT
TORSDOF 0
ENDMDL