MODEL 1
REMARK VINA RESULT: -6.888858389      0.000      0.000
REMARK  3 active torsions:
REMARK  status: ('A' for Active; 'I' for Inactive)
REMARK    1  A    between atoms: N1_1  and  N2_4
REMARK       I    between atoms: N2_4  and  C1_6
REMARK       I    between atoms: C1_6  and  N4_8
REMARK    2  A    between atoms: N4_8  and  N5_10
REMARK    3  A    between atoms: N5_10  and  C2_12
ROOT
HETATM    1  N5  UNL     1      14.612  37.130  43.724  1.00  0.00    -0.128 N
ATOM      2  H5  UNL     1      15.589  37.052  44.005  1.00  0.00     0.205 HD
ENDROOT
BRANCH   1   3
HETATM    3  N4  UNL     1      13.906  35.989  43.416  1.00  0.00    -0.258 N
HETATM    4  C1  UNL     1      14.087  35.470  42.227  1.00  0.00     0.222 C
HETATM    5  N2  UNL     1      14.967  36.040  41.282  1.00  0.00    -0.279 N
HETATM    6  N3  UNL     1      13.348  34.302  41.945  1.00  0.00    -0.061 NA
ATOM      7  H2  UNL     1      14.623  36.702  40.587  1.00  0.00     0.189 HD
ATOM      8  H4  UNL     1      13.267  35.563  44.088  1.00  0.00     0.190 HD
BRANCH   5   9
HETATM    9  N1  UNL     1      16.307  35.684  41.315  1.00  0.00    -0.343 N
ATOM     10  H12 UNL     1      16.756  35.494  42.210  1.00  0.00     0.176 HD
ATOM     11  H11 UNL     1      16.822  35.620  40.436  1.00  0.00     0.176 HD
ENDBRANCH   5   9
ENDBRANCH   1   3
BRANCH   1  12
HETATM   12  C2  UNL     1      14.060  38.307  43.664  1.00  0.00     0.715 A
HETATM   13  N6  UNL     1      14.605  39.469  43.269  1.00  0.00    -0.127 N
HETATM   14  N7  UNL     1      13.713  40.434  43.355  1.00  0.00    -0.237 N
ATOM     15  H6  UNL     1      15.566  39.587  42.950  1.00  0.00     0.206 HD
HETATM   16  C3  UNL     1      12.557  39.914  43.814  1.00  0.00     0.353 A
ATOM     17  H7  UNL     1      13.871  41.413  43.115  1.00  0.00     0.192 HD
HETATM   18  O1  UNL     1      11.487  40.560  44.019  1.00  0.00    -0.245 OA
HETATM   19  N8  UNL     1      12.789  38.593  44.001  1.00  0.00    -0.137 N
ATOM     20  H8  UNL     1      12.105  37.918  44.345  1.00  0.00     0.189 HD
ENDBRANCH   1  12
TORSDOF 3
ENDMDL