MODEL 4
REMARK VINA RESULT: -5.916793205      1.458      1.492
REMARK  2 active torsions:
REMARK  status: ('A' for Active; 'I' for Inactive)
REMARK       I    between atoms: N1_2  and  C2_4
REMARK       I    between atoms: C2_4  and  N2_6
REMARK    1  A    between atoms: N2_6  and  N3_8
REMARK       I    between atoms: N3_8  and  C3_10
REMARK    2  A    between atoms: C3_10  and  C4_12
ROOT
HETATM    1  C1  UNL     1      14.960  40.236  42.692  1.00  0.00     0.151 C
HETATM    2  N1  UNL     1      15.025  38.811  42.901  1.00  0.00    -0.346 N
ATOM      3  H1  UNL     1      15.820  38.411  43.399  1.00  0.00     0.163 HD
HETATM    4  C2  UNL     1      13.997  37.957  42.422  1.00  0.00     0.334 C
HETATM    5  O1  UNL     1      13.013  38.475  41.801  1.00  0.00    -0.246 OA
HETATM    6  N2  UNL     1      14.058  36.552  42.628  1.00  0.00    -0.249 N
ATOM      7  H2  UNL     1      14.856  36.161  43.128  1.00  0.00     0.192 HD
ENDROOT
BRANCH   6   8
HETATM    8  N3  UNL     1      13.061  35.688  42.169  1.00  0.00    -0.258 N
HETATM    9  C3  UNL     1      13.134  35.009  40.928  1.00  0.00     0.325 C
HETATM   10  O2  UNL     1      14.135  35.174  40.183  1.00  0.00    -0.261 OA
ATOM     11  H3  UNL     1      12.240  35.539  42.756  1.00  0.00     0.190 HD
BRANCH   9  12
HETATM   12  C4  UNL     1      12.082  34.116  40.476  1.00  0.00     0.324 C
HETATM   13  N4  UNL     1      11.579  34.107  39.152  1.00  0.00    -0.053 NA
HETATM   14  O3  UNL     1      11.592  33.310  41.300  1.00  0.00    -0.266 OA
ENDBRANCH   9  12
ENDBRANCH   6   8
TORSDOF 2
ENDMDL