MODEL 2
REMARK VINA RESULT: -6.622206448      1.113      1.192
REMARK  3 active torsions:
REMARK  status: ('A' for Active; 'I' for Inactive)
REMARK    1  A    between atoms: C3_5  and  C4_6
REMARK    2  A    between atoms: C4_6  and  N2_7
REMARK    3  A    between atoms: N2_7  and  N3_9
ROOT
HETATM    1  C1  UNL     1      13.472  35.646  38.410  1.00  0.00     0.047 C
HETATM    2  C2  UNL     1      13.244  35.525  39.726  1.00  0.00     0.080 A
HETATM    3  N1  UNL     1      13.892  36.292  40.619  1.00  0.00    -0.339 N
ATOM      4  H1  UNL     1      14.567  36.973  40.268  1.00  0.00     0.167 HD
HETATM    5  C3  UNL     1      13.706  36.215  41.933  1.00  0.00     0.125 A
HETATM    6  N4  UNL     1      12.821  35.322  42.395  1.00  0.00    -0.305 N
ATOM      7  H4  UNL     1      12.662  35.246  43.400  1.00  0.00     0.170 HD
HETATM    8  C5  UNL     1      12.135  34.521  41.549  1.00  0.00     0.299 A
HETATM    9  O1  UNL     1      11.311  33.687  41.953  1.00  0.00    -0.264 OA
HETATM   10  C6  UNL     1      12.334  34.606  40.169  1.00  0.00     0.265 A
HETATM   11  O2  UNL     1      11.681  33.846  39.402  1.00  0.00    -0.280 OA
ENDROOT
BRANCH   5  12
HETATM   12  C4  UNL     1      14.367  36.991  42.782  1.00  0.00     0.155 C
BRANCH  12  13
HETATM   13  N2  UNL     1      15.741  37.240  42.657  1.00  0.00    -0.315 N
ATOM     14  H2  UNL     1      16.403  36.464  42.677  1.00  0.00     0.185 HD
BRANCH  13  15
HETATM   15  N3  UNL     1      16.202  38.538  42.509  1.00  0.00    -0.345 N
ATOM     16  H32 UNL     1      15.705  39.295  42.977  1.00  0.00     0.176 HD
ATOM     17  H31 UNL     1      17.027  38.726  41.939  1.00  0.00     0.176 HD
ENDBRANCH  13  15
ENDBRANCH  12  13
ENDBRANCH   5  12
TORSDOF 3
ENDMDL