MODEL 3
REMARK VINA RESULT: -6.822549662      1.894      2.271
REMARK  1 active torsions:
REMARK  status: ('A' for Active; 'I' for Inactive)
REMARK       I    between atoms: C1_2  and  N2_4
REMARK    1  A    between atoms: N2_4  and  C2_6
ROOT
HETATM    1  C2  UNL     1      13.804  35.310  41.991  1.00  0.00     0.703 A
HETATM    2  N3  UNL     1      15.116  35.561  41.818  1.00  0.00    -0.129 N
ATOM      3  H3  UNL     1      15.729  34.784  41.569  1.00  0.00     0.205 HD
HETATM    4  N4  UNL     1      15.652  36.763  41.955  1.00  0.00    -0.247 N
ATOM      5  H4  UNL     1      16.652  36.910  41.815  1.00  0.00     0.191 HD
HETATM    6  C3  UNL     1      14.839  37.789  42.285  1.00  0.00     0.329 A
HETATM    7  O2  UNL     1      15.316  38.948  42.424  1.00  0.00    -0.261 OA
HETATM    8  C4  UNL     1      13.489  37.569  42.470  1.00  0.00     0.329 A
HETATM    9  O3  UNL     1      12.684  38.470  42.774  1.00  0.00    -0.261 OA
HETATM   10  N5  UNL     1      13.013  36.320  42.313  1.00  0.00    -0.150 N
ATOM     11  H5  UNL     1      12.016  36.147  42.445  1.00  0.00     0.188 HD
ENDROOT
BRANCH   1  12
HETATM   12  N2  UNL     1      13.402  34.088  41.827  1.00  0.00    -0.142 N
HETATM   13  C1  UNL     1      12.041  33.785  41.558  1.00  0.00     0.347 C
HETATM   14  N1  UNL     1      11.260  33.081  42.511  1.00  0.00    -0.039 NA
HETATM   15  O1  UNL     1      11.565  34.162  40.458  1.00  0.00    -0.250 OA
ATOM     16  H2  UNL     1      14.078  33.327  41.893  1.00  0.00     0.189 HD
ENDBRANCH   1  12
TORSDOF 1
ENDMDL