MODEL 1
REMARK VINA RESULT: -6.139915462      0.000      0.000
REMARK  3 active torsions:
REMARK  status: ('A' for Active; 'I' for Inactive)
REMARK    1  A    between atoms: N1_1  and  N2_4
REMARK       I    between atoms: N2_4  and  C1_6
REMARK    2  A    between atoms: C1_6  and  C2_8
REMARK       I    between atoms: C2_8  and  N3_10
REMARK    3  A    between atoms: N3_10  and  N4_12
REMARK       I    between atoms: N4_12  and  C3_14
ROOT
HETATM    1  C2  UNL     1      14.386  35.948  42.050  1.00  0.00     0.329 C
HETATM    2  O2  UNL     1      15.007  35.171  41.260  1.00  0.00    -0.261 OA
HETATM    3  N3  UNL     1      13.364  35.510  42.902  1.00  0.00    -0.258 N
ATOM      4  H3  UNL     1      12.913  36.195  43.509  1.00  0.00     0.190 HD
ENDROOT
BRANCH   1   5
HETATM    5  C1  UNL     1      14.786  37.360  42.042  1.00  0.00     0.329 C
HETATM    6  N2  UNL     1      16.074  37.773  42.495  1.00  0.00    -0.268 N
ATOM      7  H2  UNL     1      16.754  37.094  42.839  1.00  0.00     0.190 HD
HETATM    8  O1  UNL     1      13.947  38.216  41.615  1.00  0.00    -0.261 OA
BRANCH   6   9
HETATM    9  N1  UNL     1      16.373  39.134  42.453  1.00  0.00    -0.342 N
ATOM     10  H12 UNL     1      17.000  39.499  41.735  1.00  0.00     0.176 HD
ATOM     11  H11 UNL     1      15.946  39.737  43.156  1.00  0.00     0.176 HD
ENDBRANCH   6   9
ENDBRANCH   1   5
BRANCH   3  12
HETATM   12  N4  UNL     1      12.929  34.186  42.965  1.00  0.00    -0.251 N
HETATM   13  C3  UNL     1      11.848  33.710  42.174  1.00  0.00     0.347 C
HETATM   14  N5  UNL     1      11.416  32.368  42.246  1.00  0.00    -0.038 NA
HETATM   15  O3  UNL     1      11.279  34.548  41.392  1.00  0.00    -0.249 OA
ATOM     16  H4  UNL     1      13.401  33.540  43.598  1.00  0.00     0.191 HD
ENDBRANCH   3  12
TORSDOF 3
ENDMDL