MODEL 5
REMARK VINA RESULT: -6.561355614      3.625      6.097
REMARK  7 active torsions:
REMARK  status: ('A' for Active; 'I' for Inactive)
REMARK    1  A    between atoms: N1_2  and  C2_4
REMARK       I    between atoms: N2_5  and  C3_7
REMARK       I    between atoms: C3_7  and  N3_9
REMARK    2  A    between atoms: N3_9  and  C4_11
REMARK    3  A    between atoms: C4_11  and  C8_15
REMARK    4  A    between atoms: C8_15  and  N4_16
REMARK    5  A    between atoms: C8_15  and  C14_29
REMARK       I    between atoms: N4_16  and  C9_18
REMARK    6  A    between atoms: C9_18  and  C10_20
REMARK    7  A    between atoms: C12_22  and  O3_23
ROOT
HETATM    1  C8  UNL     1      14.480  17.028  15.553  1.00  0.00     0.043 C
ENDROOT
BRANCH   1   2
HETATM    2  C4  UNL     1      13.123  17.155  15.026  1.00  0.00     0.061 C
HETATM    3  C5  UNL     1      11.987  16.296  15.282  1.00  0.00    -0.059 C
HETATM    4  C6  UNL     1      12.164  14.824  15.445  1.00  0.00     0.045 C
HETATM    5  C7  UNL     1      10.998  16.835  16.333  1.00  0.00     0.045 C
BRANCH   2   6
HETATM    6  N3  UNL     1      12.671  18.520  14.858  1.00  0.00    -0.307 N
HETATM    7  C3  UNL     1      12.606  19.288  13.698  1.00  0.00     0.325 C
HETATM    8  N2  UNL     1      12.122  20.638  13.677  1.00  0.00    -0.305 N
HETATM    9  O1  UNL     1      12.970  18.842  12.586  1.00  0.00    -0.247 OA
HETATM   10  C2  UNL     1      12.725  21.586  13.079  1.00  0.00     0.183 C
ATOM     11  H2  UNL     1      11.252  20.849  14.165  1.00  0.00     0.171 HD
ATOM     12  H3  UNL     1      12.356  18.985  15.709  1.00  0.00     0.170 HD
BRANCH  10  13
HETATM   13  N1  UNL     1      13.938  21.463  12.358  1.00  0.00    -0.372 N
HETATM   14  C1  UNL     1      15.048  21.977  12.737  1.00  0.00     0.118 C
ATOM     15  H1  UNL     1      13.926  20.935  11.485  1.00  0.00     0.165 HD
ENDBRANCH  10  13
ENDBRANCH   2   6
ENDBRANCH   1   2
BRANCH   1  16
HETATM   16  N4  UNL     1      15.456  16.639  14.523  1.00  0.00    -0.326 N
HETATM   17  C9  UNL     1      16.263  17.461  13.759  1.00  0.00     0.253 C
HETATM   18  O2  UNL     1      16.183  18.706  13.940  1.00  0.00    -0.271 OA
ATOM     19  H4  UNL     1      15.549  15.638  14.352  1.00  0.00     0.168 HD
BRANCH  17  20
HETATM   20  C10 UNL     1      17.229  17.050  12.732  1.00  0.00     0.279 C
HETATM   21  C11 UNL     1      16.761  17.419  11.326  1.00  0.00     0.076 C
HETATM   22  C12 UNL     1      18.011  17.828  10.570  1.00  0.00     0.146 C
HETATM   23  C13 UNL     1      19.097  17.303  11.517  1.00  0.00     0.264 C
HETATM   24  N5  UNL     1      18.503  17.661  12.807  1.00  0.00    -0.060 N
ATOM     25  H52 UNL     1      18.489  18.661  13.011  1.00  0.00     0.278 HD
ATOM     26  H51 UNL     1      19.057  17.402  13.623  1.00  0.00     0.278 HD
BRANCH  22  27
HETATM   27  O3  UNL     1      18.097  17.275   9.318  1.00  0.00    -0.394 OA
ATOM     28  H3  UNL     1      17.524  17.687   8.683  1.00  0.00     0.210 HD
ENDBRANCH  22  27
ENDBRANCH  17  20
ENDBRANCH   1  16
BRANCH   1  29
HETATM   29  C14 UNL     1      14.818  16.638  16.930  1.00  0.00     0.038 C
HETATM   30  C15 UNL     1      15.007  15.081  17.000  1.00  0.00     0.011 C
HETATM   31  C16 UNL     1      14.911  14.710  18.464  1.00  0.00     0.001 C
HETATM   32  C17 UNL     1      15.703  15.679  19.321  1.00  0.00     0.000 C
HETATM   33  C18 UNL     1      16.816  16.188  18.419  1.00  0.00     0.001 C
HETATM   34  C19 UNL     1      16.247  17.071  17.346  1.00  0.00     0.011 C
ENDBRANCH   1  29
TORSDOF 7
ENDMDL