MODEL 5
REMARK VINA RESULT: -6.982880596      3.335      6.380
REMARK  8 active torsions:
REMARK  status: ('A' for Active; 'I' for Inactive)
REMARK    1  A    between atoms: S1_2  and  C2_3
REMARK    2  A    between atoms: C2_3  and  N2_7
REMARK       I    between atoms: C3_9  and  N3_10
REMARK       I    between atoms: C3_9  and  N4_18
REMARK    3  A    between atoms: N3_10  and  C4_12
REMARK    4  A    between atoms: N4_18  and  C10_20
REMARK    5  A    between atoms: C10_20  and  C11_21
REMARK    6  A    between atoms: C10_20  and  C12_23
REMARK       I    between atoms: C12_23  and  N5_25
REMARK    7  A    between atoms: N5_25  and  C13_27
REMARK    8  A    between atoms: C13_27  and  C15_29
ROOT
HETATM    1  N2  UNL     1      16.376  17.836  14.761  1.00  0.00    -0.171 N
ATOM      2  H2  UNL     1      15.672  18.385  14.267  1.00  0.00     0.186 HD
HETATM    3  C3  UNL     1      15.683  17.234  15.522  1.00  0.00     0.677 C
HETATM    4  N3  UNL     1      14.276  17.458  15.470  1.00  0.00    -0.222 N
ATOM      5  H3  UNL     1      13.959  18.035  16.249  1.00  0.00     0.178 HD
HETATM    6  N4  UNL     1      16.143  16.285  16.553  1.00  0.00    -0.207 N
ATOM      7  H4  UNL     1      16.449  15.357  16.262  1.00  0.00     0.179 HD
ENDROOT
BRANCH   1   8
HETATM    8  C2  UNL     1      17.476  18.250  14.145  1.00  0.00     0.152 C
HETATM    9  N1  UNL     1      18.310  18.850  15.028  1.00  0.00    -0.379 N
ATOM     10  H12 UNL     1      19.156  19.169  14.555  1.00  0.00     0.158 HD
ATOM     11  H11 UNL     1      17.950  18.937  15.979  1.00  0.00     0.158 HD
BRANCH   8  12
HETATM   12  S1  UNL     1      18.102  18.101  12.498  1.00  0.00    -0.098 SA
HETATM   13  C1  UNL     1      19.925  18.251  12.473  1.00  0.00     0.099 C
ENDBRANCH   8  12
ENDBRANCH   1   8
BRANCH   4  14
HETATM   14  C4  UNL     1      13.208  17.093  14.630  1.00  0.00     0.099 C
HETATM   15  C5  UNL     1      13.096  15.545  14.636  1.00  0.00     0.026 C
HETATM   16  C6  UNL     1      12.500  15.037  15.905  1.00  0.00     0.002 C
HETATM   17  C7  UNL     1      11.012  15.337  15.969  1.00  0.00     0.000 C
HETATM   18  C8  UNL     1      10.825  16.559  15.061  1.00  0.00     0.002 C
HETATM   19  C9  UNL     1      11.915  17.533  15.348  1.00  0.00     0.026 C
ENDBRANCH   4  14
BRANCH   6  20
HETATM   20  C10 UNL     1      16.174  16.599  17.879  1.00  0.00     0.252 C
BRANCH  20  21
HETATM   21  C11 UNL     1      15.758  15.494  18.809  1.00  0.00     0.266 C
HETATM   22  O1  UNL     1      15.683  14.361  18.330  1.00  0.00    -0.304 OA
ENDBRANCH  20  21
BRANCH  20  23
HETATM   23  C12 UNL     1      17.470  16.985  18.521  1.00  0.00     0.248 C
HETATM   24  O2  UNL     1      18.426  17.274  17.760  1.00  0.00    -0.271 OA
HETATM   25  N5  UNL     1      17.526  16.981  19.936  1.00  0.00    -0.346 N
ATOM     26  H5  UNL     1      16.638  16.818  20.410  1.00  0.00     0.163 HD
BRANCH  25  27
HETATM   27  C13 UNL     1      18.657  17.173  20.793  1.00  0.00     0.169 C
HETATM   28  C14 UNL     1      19.734  16.179  20.682  1.00  0.00     0.042 C
BRANCH  27  29
HETATM   29  C15 UNL     1      17.996  17.058  22.204  1.00  0.00     0.253 C
HETATM   30  N6  UNL     1      16.629  16.722  22.130  1.00  0.00    -0.060 NA
HETATM   31  O3  UNL     1      18.649  17.237  23.229  1.00  0.00    -0.275 OA
ENDBRANCH  27  29
ENDBRANCH  25  27
ENDBRANCH  20  23
ENDBRANCH   6  20
TORSDOF 8
ENDMDL