MODEL 5
REMARK VINA RESULT: -7.454456856      3.413      5.064
REMARK  7 active torsions:
REMARK  status: ('A' for Active; 'I' for Inactive)
REMARK    1  A    between atoms: C4_4  and  C5_5
REMARK       I    between atoms: C5_5  and  N1_7
REMARK    2  A    between atoms: N1_7  and  N2_9
REMARK       I    between atoms: N2_9  and  C6_11
REMARK       I    between atoms: C6_11  and  N3_13
REMARK    3  A    between atoms: N3_13  and  C7_15
REMARK    4  A    between atoms: C7_15  and  C8_16
REMARK       I    between atoms: C8_16  and  N4_18
REMARK    5  A    between atoms: N4_18  and  C9_20
REMARK    6  A    between atoms: C9_20  and  C10_21
REMARK       I    between atoms: C10_21  and  N5_23
REMARK    7  A    between atoms: N5_23  and  C11_25
ROOT
HETATM    1  C8  UNL     1      11.020  16.149  15.535  1.00  0.00     0.235 C
HETATM    2  O3  UNL     1       9.796  16.516  15.636  1.00  0.00    -0.272 OA
HETATM    3  N4  UNL     1      11.972  17.107  15.159  1.00  0.00    -0.351 N
ATOM      4  H4  UNL     1      12.949  16.823  15.084  1.00  0.00     0.163 HD
ENDROOT
BRANCH   1   5
HETATM    5  C7  UNL     1      11.330  14.761  15.821  1.00  0.00     0.227 C
BRANCH   5   6
HETATM    6  N3  UNL     1      12.693  14.487  16.158  1.00  0.00    -0.333 N
HETATM    7  C6  UNL     1      13.171  14.802  17.482  1.00  0.00     0.335 C
HETATM    8  N2  UNL     1      14.523  14.525  17.801  1.00  0.00    -0.249 N
HETATM    9  O2  UNL     1      12.397  15.312  18.327  1.00  0.00    -0.246 OA
ATOM     10  H2  UNL     1      15.141  14.110  17.104  1.00  0.00     0.192 HD
ATOM     11  H3  UNL     1      13.320  14.072  15.470  1.00  0.00     0.164 HD
BRANCH   8  12
HETATM   12  N1  UNL     1      14.999  14.820  19.063  1.00  0.00    -0.263 N
HETATM   13  C5  UNL     1      15.846  15.951  19.295  1.00  0.00     0.260 C
HETATM   14  O1  UNL     1      16.137  16.659  18.310  1.00  0.00    -0.267 OA
ATOM     15  H1  UNL     1      14.742  14.219  19.847  1.00  0.00     0.190 HD
BRANCH  13  16
HETATM   16  C4  UNL     1      16.346  16.263  20.618  1.00  0.00     0.077 C
HETATM   17  C2  UNL     1      17.555  16.747  20.812  1.00  0.00    -0.082 C
HETATM   18  C1  UNL     1      18.513  17.017  19.716  1.00  0.00     0.043 C
HETATM   19  C3  UNL     1      17.960  17.031  22.247  1.00  0.00     0.043 C
ENDBRANCH  13  16
ENDBRANCH   8  12
ENDBRANCH   5   6
ENDBRANCH   1   5
BRANCH   3  20
HETATM   20  C9  UNL     1      11.623  18.491  14.873  1.00  0.00     0.225 C
BRANCH  20  21
HETATM   21  C10 UNL     1      11.274  18.738  13.464  1.00  0.00     0.235 C
HETATM   22  O4  UNL     1      12.107  19.270  12.700  1.00  0.00    -0.272 OA
HETATM   23  N5  UNL     1      10.013  18.376  12.976  1.00  0.00    -0.355 N
ATOM     24  H5  UNL     1       9.346  17.942  13.613  1.00  0.00     0.162 HD
BRANCH  23  25
HETATM   25  C11 UNL     1       9.615  18.600  11.577  1.00  0.00     0.084 C
HETATM   26  C12 UNL     1       9.070  17.283  11.084  1.00  0.00     0.025 C
HETATM   27  C13 UNL     1       8.565  17.345   9.674  1.00  0.00     0.002 C
HETATM   28  C14 UNL     1       7.457  18.343   9.485  1.00  0.00     0.000 C
HETATM   29  C15 UNL     1       8.066  19.655   9.095  1.00  0.00     0.000 C
HETATM   30  C16 UNL     1       8.587  20.458  10.236  1.00  0.00     0.002 C
HETATM   31  C17 UNL     1       8.611  19.709  11.549  1.00  0.00     0.025 C
ENDBRANCH  23  25
ENDBRANCH  20  21
ENDBRANCH   3  20
TORSDOF 7
ENDMDL