MODEL 3
REMARK VINA RESULT: -6.974021812      5.008      7.252
REMARK  8 active torsions:
REMARK  status: ('A' for Active; 'I' for Inactive)
REMARK    1  A    between atoms: N3_4  and  C2_6
REMARK    2  A    between atoms: C2_6  and  C3_7
REMARK    3  A    between atoms: C2_6  and  C5_15
REMARK    4  A    between atoms: C3_7  and  C4_8
REMARK    5  A    between atoms: C4_8  and  O1_9
REMARK    6  A    between atoms: N4_11  and  O2_13
REMARK       I    between atoms: C5_15  and  N5_17
REMARK    7  A    between atoms: C8_20  and  N6_21
REMARK       I    between atoms: N6_21  and  C9_23
REMARK       I    between atoms: C9_23  and  N7_25
REMARK    8  A    between atoms: N7_25  and  C10_27
ROOT
HETATM    1  C5  UNL     1       9.104  17.073  12.249  1.00  0.00     0.243 C
HETATM    2  O3  UNL     1       8.895  15.824  12.412  1.00  0.00    -0.271 OA
HETATM    3  N5  UNL     1       9.800  17.776  13.238  1.00  0.00    -0.348 N
HETATM    4  C6  UNL     1      10.123  19.177  13.317  1.00  0.00     0.128 C
HETATM    5  C7  UNL     1      11.498  19.211  13.979  1.00  0.00     0.047 C
HETATM    6  C8  UNL     1      11.799  17.786  14.349  1.00  0.00     0.105 C
HETATM    7  C15 UNL     1      10.381  17.212  14.470  1.00  0.00     0.151 C
ENDROOT
BRANCH   1   8
HETATM    8  C2  UNL     1       8.601  17.716  11.032  1.00  0.00     0.183 C
BRANCH   8   9
HETATM    9  N3  UNL     1       7.111  17.759  11.267  1.00  0.00    -0.353 N
HETATM   10  C1  UNL     1       6.500  18.881  11.244  1.00  0.00     0.197 C
HETATM   11  N1  UNL     1       5.108  18.916  11.464  1.00  0.00    -0.067 NA
HETATM   12  N2  UNL     1       7.228  20.065  10.997  1.00  0.00    -0.067 NA
ATOM     13  H3  UNL     1       6.595  16.898  11.443  1.00  0.00     0.162 HD
ENDBRANCH   8   9
BRANCH   8  14
HETATM   14  C3  UNL     1       8.696  16.895   9.787  1.00  0.00     0.120 C
BRANCH  14  15
HETATM   15  C4  UNL     1       8.469  15.469   9.851  1.00  0.00     0.137 C
HETATM   16  N4  UNL     1       9.200  14.498   9.530  1.00  0.00    -0.251 N
ATOM     17  H4  UNL     1      10.130  14.680   9.152  1.00  0.00     0.196 HD
BRANCH  15  18
HETATM   18  O1  UNL     1       7.187  15.105  10.371  1.00  0.00    -0.348 OA
ATOM     19  H1  UNL     1       7.221  14.472  11.079  1.00  0.00     0.219 HD
ENDBRANCH  15  18
BRANCH  16  20
HETATM   20  O2  UNL     1       8.784  13.209   9.675  1.00  0.00    -0.288 OA
ATOM     21  H2  UNL     1       9.384  12.514   9.919  1.00  0.00     0.244 HD
ENDBRANCH  16  20
ENDBRANCH  14  15
ENDBRANCH   8  14
ENDBRANCH   1   8
BRANCH   6  22
HETATM   22  N6  UNL     1      12.527  17.661  15.593  1.00  0.00    -0.337 N
HETATM   23  C9  UNL     1      13.652  16.820  15.720  1.00  0.00     0.316 C
HETATM   24  O4  UNL     1      14.017  16.160  14.689  1.00  0.00    -0.247 OA
HETATM   25  N7  UNL     1      14.329  16.730  16.947  1.00  0.00    -0.339 N
ATOM     26  H7  UNL     1      14.007  17.273  17.749  1.00  0.00     0.164 HD
ATOM     27  H6  UNL     1      12.218  18.197  16.404  1.00  0.00     0.164 HD
BRANCH  25  28
HETATM   28  C10 UNL     1      15.497  15.855  17.076  1.00  0.00     0.086 C
HETATM   29  C11 UNL     1      16.721  16.646  17.439  1.00  0.00     0.025 C
HETATM   30  C12 UNL     1      16.825  16.627  18.949  1.00  0.00     0.002 C
HETATM   31  C13 UNL     1      15.586  15.915  19.424  1.00  0.00     0.002 C
HETATM   32  C14 UNL     1      15.294  14.970  18.281  1.00  0.00     0.025 C
ENDBRANCH  25  28
ENDBRANCH   6  22
TORSDOF 8
ENDMDL