MODEL 4
REMARK VINA RESULT: -7.062515293      1.944      2.306
REMARK  6 active torsions:
REMARK  status: ('A' for Active; 'I' for Inactive)
REMARK    1  A    between atoms: C2_2  and  C4_4
REMARK    2  A    between atoms: C4_4  and  N1_5
REMARK       I    between atoms: N1_5  and  C5_7
REMARK    3  A    between atoms: C5_7  and  C6_9
REMARK    4  A    between atoms: C6_9  and  N2_10
REMARK       I    between atoms: N2_10  and  C7_12
REMARK    5  A    between atoms: C7_12  and  C8_14
REMARK    6  A    between atoms: C9_15  and  C10_16
REMARK       I    between atoms: N3_21  and  C13_22
ROOT
HETATM    1  N2  UNL     1      13.725  17.021  15.912  1.00  0.00    -0.341 N
ATOM      2  H2  UNL     1      13.393  17.963  16.121  1.00  0.00     0.163 HD
HETATM    3  C7  UNL     1      14.069  16.766  14.573  1.00  0.00     0.242 C
HETATM    4  O2  UNL     1      14.477  15.607  14.316  1.00  0.00    -0.271 OA
ENDROOT
BRANCH   1   5
HETATM    5  C6  UNL     1      13.787  16.124  17.003  1.00  0.00     0.114 C
HETATM    6  C14 UNL     1      13.015  16.604  18.216  1.00  0.00     0.041 C
HETATM    7  C15 UNL     1      11.749  15.806  18.303  1.00  0.00     0.003 C
HETATM    8  C16 UNL     1      11.611  15.265  16.898  1.00  0.00     0.003 C
HETATM    9  C17 UNL     1      13.067  14.846  16.643  1.00  0.00     0.041 C
BRANCH   5  10
HETATM   10  C5  UNL     1      15.181  15.845  17.502  1.00  0.00     0.246 C
HETATM   11  N1  UNL     1      16.097  16.892  17.714  1.00  0.00    -0.359 N
ATOM     12  H1  UNL     1      15.754  17.835  17.527  1.00  0.00     0.162 HD
HETATM   13  O1  UNL     1      15.480  14.665  17.716  1.00  0.00    -0.271 OA
BRANCH  11  14
HETATM   14  C4  UNL     1      17.439  16.795  18.157  1.00  0.00     0.126 C
BRANCH  14  15
HETATM   15  C2  UNL     1      17.762  16.479  19.552  1.00  0.00    -0.005 C
HETATM   16  C1  UNL     1      18.891  17.469  19.979  1.00  0.00     0.011 C
HETATM   17  C3  UNL     1      16.747  16.550  20.620  1.00  0.00     0.011 C
ENDBRANCH  14  15
ENDBRANCH  11  14
ENDBRANCH   5  10
ENDBRANCH   1   5
BRANCH   3  18
HETATM   18  C8  UNL     1      13.997  17.710  13.469  1.00  0.00     0.193 C
HETATM   19  C9  UNL     1      12.709  18.430  13.285  1.00  0.00     0.120 C
HETATM   20  C11 UNL     1      13.098  19.915  13.275  1.00  0.00     0.038 C
HETATM   21  C12 UNL     1      14.463  19.976  13.893  1.00  0.00     0.127 C
HETATM   22  N3  UNL     1      15.040  18.716  13.490  1.00  0.00    -0.342 N
HETATM   23  C13 UNL     1      16.425  18.553  13.176  1.00  0.00     0.184 C
HETATM   24  N4  UNL     1      17.323  19.353  13.677  1.00  0.00    -0.374 N
HETATM   25  N5  UNL     1      16.756  17.494  12.305  1.00  0.00    -0.064 NA
ATOM     26  H42 UNL     1      17.084  20.120  14.307  1.00  0.00     0.158 HD
ATOM     27  H41 UNL     1      18.311  19.238  13.453  1.00  0.00     0.158 HD
BRANCH  19  28
HETATM   28  C10 UNL     1      11.702  18.235  14.299  1.00  0.00     0.179 C
HETATM   29  O3  UNL     1      10.859  17.316  14.221  1.00  0.00    -0.648 OA
HETATM   30  O4  UNL     1      11.645  19.073  15.395  1.00  0.00    -0.648 OA
ENDBRANCH  19  28
ENDBRANCH   3  18
TORSDOF 6
ENDMDL