MODEL 2
REMARK VINA RESULT: -7.932047168      2.216      4.114
REMARK  7 active torsions:
REMARK  status: ('A' for Active; 'I' for Inactive)
REMARK    1  A    between atoms: C2_2  and  N1_3
REMARK    2  A    between atoms: C2_2  and  C18_28
REMARK       I    between atoms: N1_3  and  C3_5
REMARK    3  A    between atoms: C3_5  and  C4_7
REMARK    4  A    between atoms: C4_7  and  N2_8
REMARK    5  A    between atoms: N2_8  and  C5_10
REMARK    6  A    between atoms: C5_10  and  C6_14
REMARK    7  A    between atoms: C9_17  and  C10_18
ROOT
HETATM    1  C4  UNL     1      13.076  16.833  15.810  1.00  0.00     0.120 C
HETATM    2  C13 UNL     1      12.229  18.089  15.701  1.00  0.00     0.024 C
HETATM    3  C14 UNL     1      11.036  17.757  16.564  1.00  0.00     0.008 C
HETATM    4  C15 UNL     1      10.794  16.320  16.123  1.00  0.00     0.008 C
HETATM    5  C16 UNL     1      11.914  16.196  15.118  1.00  0.00     0.024 C
HETATM    6  C17 UNL     1      11.729  17.509  14.378  1.00  0.00     0.015 C
ENDROOT
BRANCH   1   7
HETATM    7  C3  UNL     1      14.293  16.799  14.960  1.00  0.00     0.247 C
HETATM    8  N1  UNL     1      15.135  17.886  14.663  1.00  0.00    -0.345 N
ATOM      9  H1  UNL     1      14.901  18.796  15.060  1.00  0.00     0.163 HD
HETATM   10  O1  UNL     1      14.612  15.700  14.446  1.00  0.00    -0.271 OA
BRANCH   8  11
HETATM   11  C2  UNL     1      16.315  17.791  13.830  1.00  0.00     0.181 C
HETATM   12  C1  UNL     1      17.514  17.902  14.761  1.00  0.00     0.043 C
BRANCH  11  13
HETATM   13  C18 UNL     1      16.356  18.968  12.935  1.00  0.00     0.196 C
HETATM   14  O4  UNL     1      16.793  20.064  13.358  1.00  0.00    -0.646 OA
HETATM   15  O5  UNL     1      15.923  18.917  11.613  1.00  0.00    -0.646 OA
ENDBRANCH  11  13
ENDBRANCH   8  11
ENDBRANCH   1   7
BRANCH   1  16
HETATM   16  N2  UNL     1      13.282  16.433  17.174  1.00  0.00    -0.361 N
ATOM     17  H2  UNL     1      12.514  16.644  17.811  1.00  0.00     0.162 HD
BRANCH  16  18
HETATM   18  C5  UNL     1      14.382  15.797  17.755  1.00  0.00     0.075 C
HETATM   19  N3  UNL     1      14.433  14.494  17.508  1.00  0.00    -0.389 N
ATOM     20  H32 UNL     1      13.691  14.121  16.915  1.00  0.00     0.157 HD
ATOM     21  H31 UNL     1      15.236  14.030  17.932  1.00  0.00     0.157 HD
BRANCH  18  22
HETATM   22  C6  UNL     1      15.440  16.329  18.600  1.00  0.00     0.052 C
HETATM   23  C7  UNL     1      16.674  16.809  17.870  1.00  0.00     0.013 C
HETATM   24  C8  UNL     1      17.907  16.720  18.719  1.00  0.00     0.016 C
HETATM   25  C9  UNL     1      17.652  17.162  20.146  1.00  0.00     0.087 C
HETATM   26  C11 UNL     1      16.539  16.372  20.777  1.00  0.00     0.016 C
HETATM   27  C12 UNL     1      15.912  15.443  19.720  1.00  0.00     0.013 C
BRANCH  25  28
HETATM   28  C10 UNL     1      18.894  17.036  20.927  1.00  0.00     0.177 C
HETATM   29  O2  UNL     1      20.020  16.813  20.413  1.00  0.00    -0.648 OA
HETATM   30  O3  UNL     1      18.852  17.165  22.312  1.00  0.00    -0.648 OA
ENDBRANCH  25  28
ENDBRANCH  18  22
ENDBRANCH  16  18
ENDBRANCH   1  16
TORSDOF 7
ENDMDL