MODEL 3
REMARK VINA RESULT: -7.202184411      3.550      6.954
REMARK  7 active torsions:
REMARK  status: ('A' for Active; 'I' for Inactive)
REMARK    1  A    between atoms: C1_2  and  C2_4
REMARK    2  A    between atoms: C8_10  and  N2_11
REMARK       I    between atoms: N2_11  and  C9_13
REMARK    3  A    between atoms: C9_13  and  C10_15
REMARK    4  A    between atoms: C10_15  and  N3_16
REMARK    5  A    between atoms: C10_15  and  C11_20
REMARK    6  A    between atoms: C11_20  and  C12_21
REMARK    7  A    between atoms: C12_21  and  C13_22
ROOT
HETATM    1  N2  UNL     1      15.749  17.139  16.345  1.00  0.00    -0.350 N
ATOM      2  H2  UNL     1      16.183  17.790  16.999  1.00  0.00     0.163 HD
HETATM    3  C9  UNL     1      16.279  17.017  15.055  1.00  0.00     0.248 C
HETATM    4  O2  UNL     1      15.755  16.221  14.237  1.00  0.00    -0.271 OA
ENDROOT
BRANCH   1   5
HETATM    5  C8  UNL     1      14.595  16.364  16.781  1.00  0.00     0.036 C
HETATM    6  C7  UNL     1      15.013  14.893  16.837  1.00  0.00     0.036 C
HETATM    7  C6  UNL     1      14.305  14.844  18.185  1.00  0.00    -0.008 C
HETATM    8  C5  UNL     1      12.993  14.227  18.185  1.00  0.00     0.029 C
HETATM    9  C17 UNL     1      14.490  16.299  18.259  1.00  0.00     0.036 C
HETATM   10  C4  UNL     1      11.801  14.887  17.686  1.00  0.00     0.081 C
HETATM   11  C3  UNL     1      11.644  14.913  16.168  1.00  0.00     0.065 C
HETATM   12  N4  UNL     1      11.664  16.252  17.655  1.00  0.00    -0.401 N
HETATM   13  C2  UNL     1      12.059  16.379  16.366  1.00  0.00     0.109 C
HETATM   14  C18 UNL     1      13.440  16.661  15.969  1.00  0.00     0.071 C
ATOM     15  H4  UNL     1      11.369  16.932  18.355  1.00  0.00     0.154 HD
BRANCH  13  16
HETATM   16  C1  UNL     1      11.110  17.209  15.532  1.00  0.00     0.259 C
HETATM   17  N1  UNL     1       9.703  17.120  15.784  1.00  0.00    -0.060 NA
HETATM   18  O1  UNL     1      11.585  17.952  14.641  1.00  0.00    -0.274 OA
ENDBRANCH  13  16
ENDBRANCH   1   5
BRANCH   3  19
HETATM   19  C10 UNL     1      17.459  17.805  14.594  1.00  0.00     0.276 C
BRANCH  19  20
HETATM   20  N3  UNL     1      18.109  18.424  15.732  1.00  0.00    -0.066 N
ATOM     21  H33 UNL     1      17.491  19.072  16.222  1.00  0.00     0.275 HD
ATOM     22  H32 UNL     1      18.262  17.762  16.493  1.00  0.00     0.275 HD
ATOM     23  H31 UNL     1      18.975  18.872  15.432  1.00  0.00     0.275 HD
ENDBRANCH  19  20
BRANCH  19  24
HETATM   24  C11 UNL     1      16.977  18.811  13.603  1.00  0.00     0.063 C
BRANCH  24  25
HETATM   25  C12 UNL     1      17.798  18.957  12.372  1.00  0.00     0.051 C
HETATM   26  C14 UNL     1      18.905  19.989  12.622  1.00  0.00     0.020 C
HETATM   27  C15 UNL     1      19.969  19.024  12.206  1.00  0.00     0.002 C
HETATM   28  C16 UNL     1      18.925  17.930  12.241  1.00  0.00     0.020 C
BRANCH  25  29
HETATM   29  C13 UNL     1      17.081  19.194  11.099  1.00  0.00     0.181 C
HETATM   30  O3  UNL     1      16.748  18.286  10.308  1.00  0.00    -0.647 OA
HETATM   31  O4  UNL     1      16.755  20.497  10.756  1.00  0.00    -0.647 OA
ENDBRANCH  25  29
ENDBRANCH  24  25
ENDBRANCH  19  24
ENDBRANCH   3  19
TORSDOF 7
ENDMDL