MODEL 2
REMARK VINA RESULT: -7.475025653      2.732      8.675
REMARK  7 active torsions:
REMARK  status: ('A' for Active; 'I' for Inactive)
REMARK    1  A    between atoms: C2_2  and  N1_3
REMARK    2  A    between atoms: C2_2  and  C16_22
REMARK       I    between atoms: N1_3  and  C3_5
REMARK    3  A    between atoms: C3_5  and  C4_7
REMARK    4  A    between atoms: C4_7  and  N2_8
REMARK       I    between atoms: N2_8  and  C5_10
REMARK    5  A    between atoms: C5_10  and  C6_12
REMARK    6  A    between atoms: C16_22  and  N3_24
REMARK       I    between atoms: N3_24  and  C18_26
REMARK    7  A    between atoms: N5_28  and  O3_30
ROOT
HETATM    1  N1  UNL     1      15.645  16.503  15.607  1.00  0.00    -0.353 N
ATOM      2  H1  UNL     1      15.143  15.731  15.167  1.00  0.00     0.163 HD
HETATM    3  C3  UNL     1      16.560  17.272  14.851  1.00  0.00     0.235 C
HETATM    4  O1  UNL     1      17.193  18.232  15.376  1.00  0.00    -0.272 OA
ENDROOT
BRANCH   3   5
HETATM    5  C4  UNL     1      16.764  16.932  13.426  1.00  0.00     0.225 C
BRANCH   5   6
HETATM    6  N2  UNL     1      17.985  17.400  12.858  1.00  0.00    -0.352 N
HETATM    7  C5  UNL     1      18.168  17.500  11.478  1.00  0.00     0.223 C
HETATM    8  O2  UNL     1      17.151  17.152  10.762  1.00  0.00    -0.273 OA
ATOM      9  H2  UNL     1      18.748  17.670  13.479  1.00  0.00     0.162 HD
BRANCH   7  10
HETATM   10  C6  UNL     1      19.340  17.936  10.730  1.00  0.00     0.086 C
HETATM   11  C7  UNL     1      19.487  17.277   9.405  1.00  0.00    -0.001 C
HETATM   12  C8  UNL     1      20.144  15.951   9.513  1.00  0.00     0.010 C
HETATM   13  C12 UNL     1      20.373  18.212   8.568  1.00  0.00     0.010 C
HETATM   14  C9  UNL     1      21.499  16.061  10.145  1.00  0.00    -0.013 C
HETATM   15  C10 UNL     1      22.352  16.988   9.299  1.00  0.00     0.009 C
HETATM   16  C15 UNL     1      21.366  16.636  11.517  1.00  0.00     0.010 C
HETATM   17  C11 UNL     1      21.683  18.335   9.302  1.00  0.00    -0.013 C
HETATM   18  C13 UNL     1      21.555  18.894  10.693  1.00  0.00     0.010 C
HETATM   19  C14 UNL     1      20.641  17.937  11.493  1.00  0.00    -0.001 C
ENDBRANCH   7  10
ENDBRANCH   5   6
ENDBRANCH   3   5
BRANCH   1  20
HETATM   20  C2  UNL     1      15.421  16.804  16.988  1.00  0.00     0.102 C
HETATM   21  C1  UNL     1      14.032  16.317  17.391  1.00  0.00     0.034 C
BRANCH  20  22
HETATM   22  C16 UNL     1      16.396  16.224  17.953  1.00  0.00     0.102 C
HETATM   23  C17 UNL     1      15.612  15.976  19.256  1.00  0.00     0.034 C
BRANCH  22  24
HETATM   24  N3  UNL     1      17.566  16.978  18.225  1.00  0.00    -0.357 N
HETATM   25  C18 UNL     1      18.367  16.860  19.380  1.00  0.00     0.208 C
HETATM   26  N4  UNL     1      17.867  16.877  20.710  1.00  0.00    -0.062 NA
HETATM   27  N5  UNL     1      19.656  16.736  19.165  1.00  0.00    -0.241 N
ATOM     28  H5  UNL     1      19.992  16.732  18.203  1.00  0.00     0.197 HD
ATOM     29  H3  UNL     1      17.853  17.663  17.527  1.00  0.00     0.162 HD
BRANCH  27  30
HETATM   30  O3  UNL     1      20.559  16.612  20.169  1.00  0.00    -0.287 OA
ATOM     31  H3  UNL     1      21.413  17.029  20.147  1.00  0.00     0.244 HD
ENDBRANCH  27  30
ENDBRANCH  22  24
ENDBRANCH  20  22
ENDBRANCH   1  20
TORSDOF 7
ENDMDL