MODEL 5
REMARK VINA RESULT: -6.939906680      2.240      3.779
REMARK  7 active torsions:
REMARK  status: ('A' for Active; 'I' for Inactive)
REMARK       I    between atoms: C1_4  and  N3_6
REMARK    1  A    between atoms: C4_9  and  N4_10
REMARK    2  A    between atoms: N4_10  and  C5_12
REMARK    3  A    between atoms: C5_12  and  C6_13
REMARK       I    between atoms: C6_13  and  N5_15
REMARK    4  A    between atoms: N5_15  and  C7_17
REMARK    5  A    between atoms: C7_17  and  C8_18
REMARK    6  A    between atoms: C7_17  and  C16_26
REMARK    7  A    between atoms: C9_19  and  C10_20
ROOT
HETATM    1  C6  UNL     1      17.450  17.609  15.684  1.00  0.00     0.235 C
HETATM    2  O1  UNL     1      16.328  18.048  15.330  1.00  0.00    -0.272 OA
HETATM    3  N5  UNL     1      17.587  17.010  16.942  1.00  0.00    -0.344 N
ATOM      4  H5  UNL     1      18.503  16.649  17.209  1.00  0.00     0.163 HD
ENDROOT
BRANCH   1   5
HETATM    5  C5  UNL     1      18.575  17.739  14.756  1.00  0.00     0.217 C
BRANCH   5   6
HETATM    6  N4  UNL     1      18.284  17.523  13.379  1.00  0.00    -0.409 N
ATOM      7  H4  UNL     1      17.837  16.667  13.050  1.00  0.00     0.154 HD
BRANCH   6   8
HETATM    8  C4  UNL     1      18.658  18.583  12.478  1.00  0.00     0.080 C
HETATM    9  C3  UNL     1      18.498  19.948  13.135  1.00  0.00     0.044 C
HETATM   10  C2  UNL     1      17.306  20.649  12.486  1.00  0.00     0.127 C
HETATM   11  N3  UNL     1      16.167  19.779  12.330  1.00  0.00    -0.356 N
HETATM   12  C1  UNL     1      14.907  20.191  12.799  1.00  0.00     0.183 C
HETATM   13  C18 UNL     1      16.353  18.495  11.691  1.00  0.00     0.127 C
HETATM   14  N1  UNL     1      14.516  19.828  13.964  1.00  0.00    -0.374 N
HETATM   15  N2  UNL     1      14.062  20.997  12.010  1.00  0.00    -0.064 NA
ATOM     16  H12 UNL     1      13.602  20.126  14.304  1.00  0.00     0.158 HD
ATOM     17  H11 UNL     1      15.128  19.245  14.536  1.00  0.00     0.158 HD
HETATM   18  C17 UNL     1      17.801  18.455  11.234  1.00  0.00     0.044 C
ENDBRANCH   6   8
ENDBRANCH   5   6
ENDBRANCH   1   5
BRANCH   3  19
HETATM   19  C7  UNL     1      16.489  16.874  17.888  1.00  0.00     0.196 C
BRANCH  19  20
HETATM   20  C8  UNL     1      15.478  15.903  17.425  1.00  0.00     0.003 C
HETATM   21  C9  UNL     1      14.206  16.251  17.276  1.00  0.00    -0.024 C
BRANCH  21  22
HETATM   22  C10 UNL     1      13.146  15.322  16.816  1.00  0.00     0.008 C
HETATM   23  C11 UNL     1      11.792  15.613  17.430  1.00  0.00     0.008 C
HETATM   24  C12 UNL     1      11.396  17.027  17.165  1.00  0.00     0.001 C
HETATM   25  C13 UNL     1      11.743  17.580  15.853  1.00  0.00     0.000 C
HETATM   26  C14 UNL     1      12.617  16.814  14.959  1.00  0.00     0.001 C
HETATM   27  C15 UNL     1      12.923  15.402  15.329  1.00  0.00     0.008 C
ENDBRANCH  21  22
ENDBRANCH  19  20
BRANCH  19  28
HETATM   28  C16 UNL     1      16.947  16.514  19.229  1.00  0.00     0.257 C
HETATM   29  N6  UNL     1      16.077  16.019  20.232  1.00  0.00    -0.060 NA
HETATM   30  O2  UNL     1      18.181  16.653  19.502  1.00  0.00    -0.274 OA
ENDBRANCH  19  28
ENDBRANCH   3  19
TORSDOF 7
ENDMDL