MODEL 5
REMARK VINA RESULT: -4.884316593      1.557      4.874
REMARK  7 active torsions:
REMARK  status: ('A' for Active; 'I' for Inactive)
REMARK    1  A    between atoms: C2_2  and  C3_3
REMARK    2  A    between atoms: C5_5  and  O1_6
REMARK    3  A    between atoms: C6_8  and  O2_9
REMARK    4  A    between atoms: C8_12  and  C9_13
REMARK    5  A    between atoms: C9_13  and  O3_15
REMARK    6  A    between atoms: C11_17  and  C12_18
REMARK    7  A    between atoms: C13_21  and  O6_22
ROOT
HETATM    1  C3  UNL     1      16.314  17.647  13.514  1.00  0.00     0.019 C
HETATM    2  C4  UNL     1      15.701  18.972  13.615  1.00  0.00     0.051 C
HETATM    3  C5  UNL     1      14.209  19.066  13.511  1.00  0.00     0.148 C
HETATM    4  C6  UNL     1      13.466  17.941  14.163  1.00  0.00     0.154 C
HETATM    5  C7  UNL     1      14.388  16.772  14.449  1.00  0.00     0.054 C
HETATM    6  C8  UNL     1      15.338  17.262  15.562  1.00  0.00     0.038 C
HETATM    7  C11 UNL     1      16.682  17.096  14.913  1.00  0.00     0.108 C
HETATM    8  C13 UNL     1      15.221  16.591  13.208  1.00  0.00     0.138 C
ENDROOT
BRANCH   6   9
HETATM    9  C9  UNL     1      15.085  16.476  16.800  1.00  0.00     0.119 C
HETATM   10  C10 UNL     1      16.083  16.624  17.903  1.00  0.00     0.040 C
BRANCH   9  11
HETATM   11  O3  UNL     1      14.813  15.122  16.524  1.00  0.00    -0.396 OA
ATOM     12  H3  UNL     1      14.912  14.573  17.292  1.00  0.00     0.210 HD
ENDBRANCH   9  11
ENDBRANCH   6   9
BRANCH   7  13
HETATM   13  C12 UNL     1      17.824  17.760  15.475  1.00  0.00     0.178 C
HETATM   14  O4  UNL     1      18.025  18.991  15.353  1.00  0.00    -0.648 OA
HETATM   15  O5  UNL     1      18.794  17.069  16.199  1.00  0.00    -0.648 OA
ENDBRANCH   7  13
BRANCH   4  16
HETATM   16  O2  UNL     1      12.819  18.342  15.342  1.00  0.00    -0.393 OA
ATOM     17  H2  UNL     1      12.996  17.757  16.068  1.00  0.00     0.210 HD
ENDBRANCH   4  16
BRANCH   8  18
HETATM   18  O6  UNL     1      15.793  15.328  13.121  1.00  0.00    -0.394 OA
ATOM     19  H6  UNL     1      15.116  14.674  12.997  1.00  0.00     0.210 HD
ENDBRANCH   8  18
BRANCH   1  20
HETATM   20  C2  UNL     1      17.435  17.487  12.581  1.00  0.00    -0.024 C
HETATM   21  C1  UNL     1      17.477  17.868  11.320  1.00  0.00     0.008 C
ENDBRANCH   1  20
BRANCH   3  22
HETATM   22  O1  UNL     1      13.835  19.181  12.176  1.00  0.00    -0.393 OA
ATOM     23  H1  UNL     1      13.138  18.567  11.982  1.00  0.00     0.210 HD
ENDBRANCH   3  22
TORSDOF 7
ENDMDL