MODEL 2
REMARK VINA RESULT: -6.074284944      1.139      1.374
REMARK  7 active torsions:
REMARK  status: ('A' for Active; 'I' for Inactive)
REMARK    1  A    between atoms: C3_4  and  O2_5
REMARK    2  A    between atoms: C4_7  and  N1_8
REMARK    3  A    between atoms: N1_8  and  C5_10
REMARK    4  A    between atoms: C5_10  and  N2_12
REMARK    5  A    between atoms: N2_12  and  C6_14
REMARK    6  A    between atoms: C10_18  and  O3_19
REMARK    7  A    between atoms: C11_21  and  O4_22
ROOT
HETATM    1  C1  UNL     1      17.036  18.975  13.066  1.00  0.00     0.042 C
HETATM    2  C2  UNL     1      16.193  18.230  14.094  1.00  0.00     0.152 C
HETATM    3  O1  UNL     1      15.062  18.962  14.451  1.00  0.00    -0.352 OA
HETATM    4  C3  UNL     1      14.008  18.142  14.842  1.00  0.00     0.282 C
HETATM    5  C4  UNL     1      14.490  16.878  15.465  1.00  0.00     0.170 C
HETATM    6  C10 UNL     1      15.150  15.965  14.446  1.00  0.00     0.176 C
HETATM    7  C11 UNL     1      15.862  16.887  13.478  1.00  0.00     0.177 C
ENDROOT
BRANCH   5   8
HETATM    8  N1  UNL     1      13.503  16.174  16.199  1.00  0.00    -0.355 N
ATOM      9  H1  UNL     1      12.530  16.292  15.915  1.00  0.00     0.162 HD
BRANCH   8  10
HETATM   10  C5  UNL     1      13.764  15.319  17.296  1.00  0.00     0.168 C
HETATM   11  S1  UNL     1      12.522  14.521  17.991  1.00  0.00    -0.041 SA
BRANCH  10  12
HETATM   12  N2  UNL     1      15.072  15.146  17.830  1.00  0.00    -0.363 N
ATOM     13  H2  UNL     1      15.633  14.323  17.608  1.00  0.00     0.162 HD
BRANCH  12  14
HETATM   14  C6  UNL     1      15.570  16.184  18.699  1.00  0.00     0.083 C
HETATM   15  C7  UNL     1      17.049  16.465  18.592  1.00  0.00     0.025 C
HETATM   16  C8  UNL     1      17.024  16.705  20.090  1.00  0.00     0.004 C
HETATM   17  C9  UNL     1      15.836  15.732  20.128  1.00  0.00     0.025 C
ENDBRANCH  12  14
ENDBRANCH  10  12
ENDBRANCH   8  10
ENDBRANCH   5   8
BRANCH   4  18
HETATM   18  O2  UNL     1      13.183  17.883  13.733  1.00  0.00    -0.369 OA
ATOM     19  H2  UNL     1      12.492  17.282  13.988  1.00  0.00     0.212 HD
ENDBRANCH   4  18
BRANCH   6  20
HETATM   20  O3  UNL     1      14.202  15.248  13.719  1.00  0.00    -0.391 OA
ATOM     21  H3  UNL     1      13.347  15.292  14.131  1.00  0.00     0.210 HD
ENDBRANCH   6  20
BRANCH   7  22
HETATM   22  O4  UNL     1      17.071  16.337  13.048  1.00  0.00    -0.390 OA
ATOM     23  H4  UNL     1      16.863  15.754  12.328  1.00  0.00     0.210 HD
ENDBRANCH   7  22
TORSDOF 7
ENDMDL