MODEL 4
REMARK VINA RESULT: -6.185620992      2.004      3.618
REMARK  6 active torsions:
REMARK  status: ('A' for Active; 'I' for Inactive)
REMARK    1  A    between atoms: O1_1  and  N1_3
REMARK       I    between atoms: C1_5  and  N2_6
REMARK       I    between atoms: C1_5  and  N3_18
REMARK    2  A    between atoms: N2_6  and  C2_8
REMARK    3  A    between atoms: C2_8  and  C3_9
REMARK    4  A    between atoms: C5_12  and  O3_13
REMARK    5  A    between atoms: C6_15  and  O4_16
REMARK    6  A    between atoms: N3_18  and  C7_20
ROOT
HETATM    1  N1  UNL     1      18.488  18.197  16.096  1.00  0.00    -0.099 N
ATOM      2  H1  UNL     1      19.356  18.119  16.626  1.00  0.00     0.213 HD
HETATM    3  C1  UNL     1      17.507  17.484  16.474  1.00  0.00     0.694 C
HETATM    4  N2  UNL     1      16.276  17.547  15.781  1.00  0.00    -0.222 N
ATOM      5  H2  UNL     1      16.148  18.289  15.094  1.00  0.00     0.177 HD
HETATM    6  N3  UNL     1      17.642  16.621  17.594  1.00  0.00    -0.220 N
ATOM      7  H3  UNL     1      17.967  15.663  17.463  1.00  0.00     0.178 HD
ENDROOT
BRANCH   1   8
HETATM    8  O1  UNL     1      18.475  19.053  15.044  1.00  0.00    -0.276 OA
ATOM      9  H1  UNL     1      19.129  19.085  14.355  1.00  0.00     0.245 HD
ENDBRANCH   1   8
BRANCH   4  10
HETATM   10  C2  UNL     1      15.195  16.620  15.995  1.00  0.00     0.172 C
BRANCH  10  11
HETATM   11  C3  UNL     1      14.702  16.030  14.707  1.00  0.00     0.171 C
HETATM   12  O2  UNL     1      13.902  16.880  13.984  1.00  0.00    -0.379 OA
HETATM   13  C4  UNL     1      12.664  16.909  14.615  1.00  0.00     0.202 C
HETATM   14  C5  UNL     1      12.471  15.552  15.252  1.00  0.00     0.173 C
HETATM   15  C6  UNL     1      13.785  14.844  14.944  1.00  0.00     0.179 C
BRANCH  14  16
HETATM   16  O3  UNL     1      12.260  15.653  16.620  1.00  0.00    -0.391 OA
ATOM     17  H3  UNL     1      12.464  16.522  16.944  1.00  0.00     0.210 HD
ENDBRANCH  14  16
BRANCH  15  18
HETATM   18  O4  UNL     1      13.679  14.073  13.788  1.00  0.00    -0.390 OA
ATOM     19  H4  UNL     1      12.791  13.754  13.684  1.00  0.00     0.210 HD
ENDBRANCH  15  18
ENDBRANCH  10  11
ENDBRANCH   4  10
BRANCH   6  20
HETATM   20  C7  UNL     1      17.314  17.106  18.941  1.00  0.00     0.099 C
HETATM   21  C8  UNL     1      16.032  16.562  19.443  1.00  0.00     0.026 C
HETATM   22  C9  UNL     1      16.139  15.762  20.708  1.00  0.00     0.002 C
HETATM   23  C10 UNL     1      17.015  16.361  21.746  1.00  0.00     0.000 C
HETATM   24  C11 UNL     1      18.101  17.238  21.239  1.00  0.00     0.002 C
HETATM   25  C12 UNL     1      18.492  16.826  19.839  1.00  0.00     0.026 C
ENDBRANCH   6  20
TORSDOF 6
ENDMDL