MODEL 5
REMARK VINA RESULT: -6.475716961      3.300      6.003
REMARK  5 active torsions:
REMARK  status: ('A' for Active; 'I' for Inactive)
REMARK       I    between atoms: C1_4  and  N3_6
REMARK    1  A    between atoms: N3_6  and  C2_8
REMARK    2  A    between atoms: C2_8  and  C3_9
REMARK    3  A    between atoms: C2_8  and  C9_15
REMARK    4  A    between atoms: C11_18  and  N4_19
REMARK    5  A    between atoms: C12_23  and  O2_24
ROOT
HETATM    1  C2  UNL     1      13.826  17.727  14.573  1.00  0.00     0.143 C
ENDROOT
BRANCH   1   2
HETATM    2  N3  UNL     1      14.298  16.775  13.592  1.00  0.00    -0.355 N
HETATM    3  C1  UNL     1      15.586  16.572  13.115  1.00  0.00     0.182 C
HETATM    4  N1  UNL     1      16.238  15.518  13.457  1.00  0.00    -0.374 N
HETATM    5  N2  UNL     1      16.193  17.494  12.247  1.00  0.00    -0.064 NA
ATOM      6  H12 UNL     1      17.184  15.369  13.107  1.00  0.00     0.158 HD
ATOM      7  H11 UNL     1      15.798  14.848  14.088  1.00  0.00     0.158 HD
ATOM      8  H3  UNL     1      13.583  16.167  13.194  1.00  0.00     0.162 HD
ENDBRANCH   1   2
BRANCH   1   9
HETATM    9  C3  UNL     1      12.830  18.683  14.056  1.00  0.00     0.013 C
HETATM   10  C4  UNL     1      11.508  18.160  13.622  1.00  0.00     0.007 C
HETATM   11  C5  UNL     1      10.374  19.122  14.041  1.00  0.00     0.000 C
HETATM   12  C6  UNL     1      10.750  20.491  13.509  1.00  0.00     0.000 C
HETATM   13  C7  UNL     1      11.996  21.027  14.182  1.00  0.00     0.000 C
HETATM   14  C8  UNL     1      12.716  19.907  14.932  1.00  0.00     0.007 C
ENDBRANCH   1   9
BRANCH   1  15
HETATM   15  C9  UNL     1      13.456  16.938  15.788  1.00  0.00     0.285 C
HETATM   16  O1  UNL     1      14.554  16.626  16.545  1.00  0.00    -0.357 OA
HETATM   17  C10 UNL     1      14.274  15.968  17.714  1.00  0.00     0.209 C
HETATM   18  C11 UNL     1      13.130  15.022  17.645  1.00  0.00     0.261 C
HETATM   19  C12 UNL     1      12.448  14.922  16.331  1.00  0.00     0.292 C
HETATM   20  O3  UNL     1      12.933  15.708  15.329  1.00  0.00    -0.327 OA
BRANCH  18  21
HETATM   21  N4  UNL     1      12.155  15.427  18.669  1.00  0.00    -0.068 N
ATOM     22  H43 UNL     1      12.425  15.140  19.609  1.00  0.00     0.275 HD
ATOM     23  H42 UNL     1      12.146  16.434  18.832  1.00  0.00     0.275 HD
ATOM     24  H41 UNL     1      11.244  15.062  18.389  1.00  0.00     0.275 HD
ENDBRANCH  18  21
BRANCH  19  25
HETATM   25  O2  UNL     1      11.064  15.148  16.420  1.00  0.00    -0.369 OA
ATOM     26  H2  UNL     1      10.772  15.862  15.865  1.00  0.00     0.212 HD
ENDBRANCH  19  25
ENDBRANCH   1  15
TORSDOF 5
ENDMDL