MODEL 2
REMARK VINA RESULT: -6.302576032      2.782      4.337
REMARK  8 active torsions:
REMARK  status: ('A' for Active; 'I' for Inactive)
REMARK    1  A    between atoms: C3_3  and  O1_4
REMARK    2  A    between atoms: C4_6  and  O2_7
REMARK    3  A    between atoms: C6_10  and  O3_11
REMARK    4  A    between atoms: C7_13  and  O4_14
REMARK    5  A    between atoms: C7_13  and  C8_16
REMARK    6  A    between atoms: C9_17  and  C10_18
REMARK    7  A    between atoms: C11_19  and  C12_20
REMARK    8  A    between atoms: C15_23  and  O5_24
ROOT
HETATM    1  C1  UNL     1      11.736  17.515  14.492  1.00  0.00     0.015 C
HETATM    2  C2  UNL     1      12.921  17.436  14.293  1.00  0.00    -0.073 C
HETATM    3  C3  UNL     1      14.379  17.336  14.019  1.00  0.00     0.175 C
HETATM    4  C4  UNL     1      14.677  15.960  13.508  1.00  0.00     0.170 C
HETATM    5  C5  UNL     1      15.707  15.306  14.391  1.00  0.00     0.071 C
HETATM    6  C6  UNL     1      15.204  15.348  15.817  1.00  0.00     0.161 C
HETATM    7  C7  UNL     1      15.222  16.755  16.329  1.00  0.00     0.131 C
HETATM    8  C15 UNL     1      15.188  17.758  15.186  1.00  0.00     0.208 C
ENDROOT
BRANCH   3   9
HETATM    9  O1  UNL     1      14.621  18.229  12.945  1.00  0.00    -0.372 OA
ATOM     10  H1  UNL     1      14.951  17.687  12.237  1.00  0.00     0.212 HD
ENDBRANCH   3   9
BRANCH   4  11
HETATM   11  O2  UNL     1      15.251  16.008  12.210  1.00  0.00    -0.391 OA
ATOM     12  H2  UNL     1      14.685  15.593  11.569  1.00  0.00     0.210 HD
ENDBRANCH   4  11
BRANCH   8  13
HETATM   13  O5  UNL     1      16.450  18.183  14.798  1.00  0.00    -0.388 OA
ATOM     14  H5  UNL     1      16.947  18.509  15.539  1.00  0.00     0.210 HD
ENDBRANCH   8  13
BRANCH   7  15
HETATM   15  O4  UNL     1      14.124  17.078  17.133  1.00  0.00    -0.380 OA
ATOM     16  H4  UNL     1      14.184  17.936  17.537  1.00  0.00     0.211 HD
ENDBRANCH   7  15
BRANCH   7  17
HETATM   17  C8  UNL     1      16.477  16.998  17.052  1.00  0.00     0.016 C
HETATM   18  C9  UNL     1      16.644  16.681  18.311  1.00  0.00    -0.001 C
BRANCH  18  19
HETATM   19  C10 UNL     1      15.615  16.061  19.114  1.00  0.00    -0.000 C
HETATM   20  C11 UNL     1      15.702  15.957  20.411  1.00  0.00    -0.000 C
BRANCH  20  21
HETATM   21  C12 UNL     1      16.812  16.441  21.168  1.00  0.00    -0.004 C
HETATM   22  C13 UNL     1      16.703  16.633  22.473  1.00  0.00    -0.031 C
HETATM   23  C14 UNL     1      15.421  16.348  23.174  1.00  0.00     0.036 C
ENDBRANCH  20  21
ENDBRANCH  18  19
ENDBRANCH   7  17
BRANCH   6  24
HETATM   24  O3  UNL     1      13.904  14.790  15.797  1.00  0.00    -0.392 OA
ATOM     25  H3  UNL     1      13.866  14.232  15.030  1.00  0.00     0.210 HD
ENDBRANCH   6  24
TORSDOF 8
ENDMDL