MODEL 1
REMARK VINA RESULT: -6.081122089      0.000      0.000
REMARK  6 active torsions:
REMARK  status: ('A' for Active; 'I' for Inactive)
REMARK    1  A    between atoms: C1_2  and  C2_4
REMARK    2  A    between atoms: C3_5  and  O3_6
REMARK    3  A    between atoms: C4_8  and  O4_9
REMARK    4  A    between atoms: C5_11  and  C6_12
REMARK    5  A    between atoms: C6_12  and  O5_13
REMARK    6  A    between atoms: N1_16  and  C8_17
ROOT
HETATM    1  C2  UNL     1      13.881  17.891  14.837  1.00  0.00     0.354 C
HETATM    2  C3  UNL     1      14.642  16.750  15.487  1.00  0.00     0.191 C
HETATM    3  C4  UNL     1      13.796  15.883  16.335  1.00  0.00     0.157 C
HETATM    4  C5  UNL     1      12.794  15.309  15.314  1.00  0.00     0.069 C
HETATM    5  C7  UNL     1      12.005  16.463  14.729  1.00  0.00     0.283 C
HETATM    6  N1  UNL     1      12.771  17.470  14.042  1.00  0.00     0.111 N
ENDROOT
BRANCH   6   7
HETATM    7  C8  UNL     1      11.825  18.568  13.813  1.00  0.00     0.224 C
HETATM    8  C9  UNL     1      10.440  18.131  14.234  1.00  0.00     0.036 C
HETATM    9  C10 UNL     1       9.354  19.144  13.969  1.00  0.00     0.002 C
HETATM   10  C11 UNL     1       9.882  20.402  13.310  1.00  0.00     0.000 C
HETATM   11  C12 UNL     1      10.537  19.837  12.051  1.00  0.00     0.002 C
HETATM   12  C13 UNL     1      11.776  19.043  12.404  1.00  0.00     0.036 C
ENDBRANCH   6   7
BRANCH   1  13
HETATM   13  C1  UNL     1      15.005  18.507  14.038  1.00  0.00     0.210 C
HETATM   14  O1  UNL     1      15.318  19.682  14.253  1.00  0.00    -0.646 OA
HETATM   15  O2  UNL     1      15.680  17.781  13.081  1.00  0.00    -0.646 OA
ENDBRANCH   1  13
BRANCH   2  16
HETATM   16  O3  UNL     1      15.796  17.218  16.072  1.00  0.00    -0.390 OA
ATOM     17  H3  UNL     1      16.256  16.510  16.507  1.00  0.00     0.210 HD
ENDBRANCH   2  16
BRANCH   4  18
HETATM   18  C6  UNL     1      11.812  14.465  16.096  1.00  0.00     0.173 C
BRANCH  18  19
HETATM   19  O5  UNL     1      11.491  15.080  17.312  1.00  0.00    -0.400 OA
ATOM     20  H5  UNL     1      11.128  15.945  17.164  1.00  0.00     0.209 HD
ENDBRANCH  18  19
ENDBRANCH   4  18
BRANCH   3  21
HETATM   21  O4  UNL     1      14.502  14.823  16.848  1.00  0.00    -0.392 OA
ATOM     22  H4  UNL     1      14.898  14.297  16.164  1.00  0.00     0.210 HD
ENDBRANCH   3  21
TORSDOF 6
ENDMDL