MODEL 4
REMARK VINA RESULT: -6.272431013      2.637      5.548
REMARK  5 active torsions:
REMARK  status: ('A' for Active; 'I' for Inactive)
REMARK    1  A    between atoms: N1_1  and  C1_5
REMARK    2  A    between atoms: N2_7  and  C3_8
REMARK    3  A    between atoms: C8_13  and  C9_14
REMARK    4  A    between atoms: C10_17  and  O3_18
REMARK    5  A    between atoms: C10_17  and  C11_20
ROOT
HETATM    1  C1  UNL     1      15.529  18.116  14.604  1.00  0.00     0.204 C
HETATM    2  C2  UNL     1      14.370  17.863  13.628  1.00  0.00     0.151 C
HETATM    3  N2  UNL     1      13.305  17.359  14.413  1.00  0.00    -0.390 N
HETATM    4  C8  UNL     1      13.617  16.614  15.565  1.00  0.00     0.227 C
HETATM    5  C10 UNL     1      14.966  15.971  15.626  1.00  0.00     0.177 C
HETATM    6  C12 UNL     1      16.062  16.751  14.919  1.00  0.00     0.086 C
ENDROOT
BRANCH   3   7
HETATM    7  C3  UNL     1      12.137  18.159  14.488  1.00  0.00     0.080 C
HETATM    8  C4  UNL     1      11.278  17.996  13.259  1.00  0.00     0.025 C
HETATM    9  C5  UNL     1      11.144  19.392  12.697  1.00  0.00     0.002 C
HETATM   10  C6  UNL     1      11.163  20.240  13.951  1.00  0.00     0.002 C
HETATM   11  C7  UNL     1      12.381  19.629  14.662  1.00  0.00     0.025 C
ENDBRANCH   3   7
BRANCH   4  12
HETATM   12  C9  UNL     1      12.632  15.476  15.660  1.00  0.00     0.200 C
HETATM   13  O1  UNL     1      12.135  15.145  16.760  1.00  0.00    -0.646 OA
HETATM   14  O2  UNL     1      12.268  14.778  14.518  1.00  0.00    -0.646 OA
ENDBRANCH   4  12
BRANCH   1  15
HETATM   15  N1  UNL     1      16.524  18.989  14.025  1.00  0.00    -0.073 N
ATOM     16  H13 UNL     1      16.537  18.918  13.008  1.00  0.00     0.274 HD
ATOM     17  H12 UNL     1      16.256  19.970  14.111  1.00  0.00     0.274 HD
ATOM     18  H11 UNL     1      17.447  18.817  14.423  1.00  0.00     0.274 HD
ENDBRANCH   1  15
BRANCH   5  19
HETATM   19  O3  UNL     1      14.907  14.668  15.111  1.00  0.00    -0.376 OA
ATOM     20  H3  UNL     1      15.781  14.346  14.928  1.00  0.00     0.211 HD
ENDBRANCH   5  19
BRANCH   5  21
HETATM   21  C11 UNL     1      15.397  15.878  17.040  1.00  0.00     0.211 C
HETATM   22  O4  UNL     1      15.862  16.879  17.613  1.00  0.00    -0.646 OA
HETATM   23  O5  UNL     1      15.292  14.694  17.739  1.00  0.00    -0.646 OA
ENDBRANCH   5  21
TORSDOF 5
ENDMDL