MODEL 4
REMARK VINA RESULT: -6.088982360      1.405      2.194
REMARK  7 active torsions:
REMARK  status: ('A' for Active; 'I' for Inactive)
REMARK    1  A    between atoms: O1_1  and  C1_3
REMARK    2  A    between atoms: C1_3  and  C2_4
REMARK    3  A    between atoms: C4_6  and  N1_7
REMARK    4  A    between atoms: N1_7  and  C5_10
REMARK    5  A    between atoms: C12_17  and  O2_18
REMARK    6  A    between atoms: C13_20  and  O3_21
REMARK    7  A    between atoms: C14_23  and  O4_24
ROOT
HETATM    1  C2  UNL     1      17.047  16.975  19.816  1.00  0.00     0.043 C
HETATM    2  C3  UNL     1      16.214  16.029  18.961  1.00  0.00     0.045 C
HETATM    3  C4  UNL     1      16.153  16.647  17.593  1.00  0.00     0.218 C
HETATM    4  C12 UNL     1      17.498  16.835  16.989  1.00  0.00     0.180 C
HETATM    5  C13 UNL     1      18.632  17.151  17.878  1.00  0.00     0.178 C
HETATM    6  C14 UNL     1      18.451  16.904  19.337  1.00  0.00     0.155 C
ENDROOT
BRANCH   3   7
HETATM    7  N1  UNL     1      15.407  15.764  16.677  1.00  0.00    -0.064 N
ATOM      8  H12 UNL     1      15.964  15.528  15.856  1.00  0.00     0.278 HD
ATOM      9  H11 UNL     1      15.298  14.830  17.072  1.00  0.00     0.278 HD
BRANCH   7  10
HETATM   10  C5  UNL     1      14.142  16.317  16.302  1.00  0.00     0.191 C
HETATM   11  C6  UNL     1      14.199  17.692  15.699  1.00  0.00     0.038 C
HETATM   12  C7  UNL     1      13.424  17.620  14.401  1.00  0.00    -0.012 C
HETATM   13  C8  UNL     1      14.265  16.908  13.386  1.00  0.00     0.005 C
HETATM   14  C11 UNL     1      12.432  16.494  14.744  1.00  0.00     0.011 C
HETATM   15  C9  UNL     1      14.456  15.536  14.041  1.00  0.00     0.007 C
HETATM   16  C10 UNL     1      13.496  15.504  15.203  1.00  0.00     0.017 C
ENDBRANCH   7  10
ENDBRANCH   3   7
BRANCH   4  17
HETATM   17  O2  UNL     1      17.385  17.837  16.023  1.00  0.00    -0.391 OA
ATOM     18  H2  UNL     1      18.265  18.060  15.741  1.00  0.00     0.210 HD
ENDBRANCH   4  17
BRANCH   1  19
HETATM   19  C1  UNL     1      17.017  16.417  21.243  1.00  0.00     0.171 C
BRANCH  19  20
HETATM   20  O1  UNL     1      15.723  16.028  21.559  1.00  0.00    -0.400 OA
ATOM     21  H1  UNL     1      15.670  15.834  22.488  1.00  0.00     0.209 HD
ENDBRANCH  19  20
ENDBRANCH   1  19
BRANCH   5  22
HETATM   22  O3  UNL     1      19.050  18.481  17.707  1.00  0.00    -0.390 OA
ATOM     23  H3  UNL     1      19.309  18.644  16.808  1.00  0.00     0.210 HD
ENDBRANCH   5  22
BRANCH   6  24
HETATM   24  O4  UNL     1      19.187  17.867  20.045  1.00  0.00    -0.392 OA
ATOM     25  H4  UNL     1      19.289  17.550  20.935  1.00  0.00     0.210 HD
ENDBRANCH   6  24
TORSDOF 7
ENDMDL