MODEL 1
REMARK VINA RESULT: -8.768341249      0.000      0.000
REMARK  7 active torsions:
REMARK  status: ('A' for Active; 'I' for Inactive)
REMARK    1  A    between atoms: C5_8  and  C6_9
REMARK    2  A    between atoms: C9_13  and  O1_14
REMARK    3  A    between atoms: O1_14  and  C10_15
REMARK    4  A    between atoms: C10_15  and  C11_16
REMARK    5  A    between atoms: C14_19  and  C15_20
REMARK    6  A    between atoms: C18_26  and  C19_27
REMARK    7  A    between atoms: C21_31  and  N4_32
ROOT
HETATM    1  N1  UNL     1     -16.423   6.552  17.467  1.00  0.00    -0.191 NA
HETATM    2  C1  UNL     1     -17.282   5.805  17.161  1.00  0.00     0.102 C
HETATM    3  C2  UNL     1     -18.320   4.905  16.759  1.00  0.00     0.072 A
HETATM    4  C3  UNL     1     -18.498   4.268  15.550  1.00  0.00     0.112 A
HETATM    5  N2  UNL     1     -19.604   3.534  15.676  1.00  0.00    -0.363 N
ATOM      6  H2  UNL     1     -19.988   2.948  14.934  1.00  0.00     0.165 HD
HETATM    7  C4  UNL     1     -20.148   3.657  16.882  1.00  0.00     0.053 A
HETATM    8  C5  UNL     1     -21.264   3.108  17.484  1.00  0.00     0.011 A
HETATM    9  C9  UNL     1     -21.569   3.427  18.803  1.00  0.00     0.089 A
HETATM   10  C18 UNL     1     -20.837   4.281  19.541  1.00  0.00     0.012 A
HETATM   11  C23 UNL     1     -19.686   4.839  18.897  1.00  0.00     0.030 A
HETATM   12  C24 UNL     1     -19.363   4.521  17.604  1.00  0.00     0.014 A
ENDROOT
BRANCH   8  13
HETATM   13  C6  UNL     1     -22.112   2.202  16.664  1.00  0.00     0.060 A
HETATM   14  C7  UNL     1     -22.263   2.540  15.169  1.00  0.00     0.050 A
HETATM   15  C8  UNL     1     -23.368   2.974  16.083  1.00  0.00     0.179 A
HETATM   16  F1  UNL     1     -24.539   2.274  16.011  1.00  0.00    -0.249 F
ENDBRANCH   8  13
BRANCH  10  17
HETATM   17  C19 UNL     1     -21.193   4.805  20.831  1.00  0.00     0.009 A
HETATM   18  C20 UNL     1     -20.236   4.493  21.853  1.00  0.00     0.120 A
HETATM   19  N3  UNL     1     -20.391   4.901  23.110  1.00  0.00    -0.201 N
HETATM   20  C21 UNL     1     -21.460   5.627  23.469  1.00  0.00     0.675 A
ATOM     21  H3  UNL     1     -19.689   4.659  23.809  1.00  0.00     0.183 HD
HETATM   22  N5  UNL     1     -22.370   5.935  22.547  1.00  0.00    -0.201 N
HETATM   23  C22 UNL     1     -22.227   5.530  21.275  1.00  0.00     0.120 A
ATOM     24  H5  UNL     1     -23.187   6.486  22.811  1.00  0.00     0.183 HD
BRANCH  20  25
HETATM   25  N4  UNL     1     -21.597   6.029  24.715  1.00  0.00    -0.234 N
ATOM     26  H42 UNL     1     -21.269   5.452  25.490  1.00  0.00     0.174 HD
ATOM     27  H41 UNL     1     -22.040   6.925  24.918  1.00  0.00     0.174 HD
ENDBRANCH  20  25
ENDBRANCH  10  17
BRANCH   9  28
HETATM   28  O1  UNL     1     -22.701   2.763  19.361  1.00  0.00    -0.349 OA
BRANCH  28  29
HETATM   29  C10 UNL     1     -22.218   1.712  20.199  1.00  0.00     0.180 C
BRANCH  29  30
HETATM   30  C11 UNL     1     -22.774   0.353  20.109  1.00  0.00     0.010 C
HETATM   31  C12 UNL     1     -21.801  -0.391  19.163  1.00  0.00     0.007 C
HETATM   32  C13 UNL     1     -22.021  -1.813  18.997  1.00  0.00     0.014 C
HETATM   33  C14 UNL     1     -22.532  -2.589  20.177  1.00  0.00     0.093 C
HETATM   34  C16 UNL     1     -23.382  -1.776  21.090  1.00  0.00     0.014 C
HETATM   35  C17 UNL     1     -22.722  -0.405  21.395  1.00  0.00     0.007 C
BRANCH  33  36
HETATM   36  C15 UNL     1     -23.393  -3.696  19.566  1.00  0.00     0.391 C
HETATM   37  F2  UNL     1     -23.227  -3.721  18.186  1.00  0.00    -0.171 F
HETATM   38  F3  UNL     1     -22.971  -4.908  20.064  1.00  0.00    -0.171 F
HETATM   39  F4  UNL     1     -24.709  -3.514  19.922  1.00  0.00    -0.171 F
ENDBRANCH  33  36
ENDBRANCH  29  30
ENDBRANCH  28  29
ENDBRANCH   9  28
TORSDOF 7
ENDMDL