MODEL 2
REMARK VINA RESULT: -7.579407462      2.541      3.539
REMARK  8 active torsions:
REMARK  status: ('A' for Active; 'I' for Inactive)
REMARK    1  A    between atoms: C2_2  and  C3_3
REMARK    2  A    between atoms: C4_4  and  C5_5
REMARK    3  A    between atoms: C13_16  and  O1_17
REMARK    4  A    between atoms: O1_17  and  C14_18
REMARK    5  A    between atoms: C14_18  and  C15_19
REMARK    6  A    between atoms: C15_19  and  C16_20
REMARK    7  A    between atoms: C17_22  and  N1_23
REMARK    8  A    between atoms: C18_28  and  O2_29
ROOT
HETATM    1  C3  UNL     1     -20.246   5.942  22.290  1.00  0.00     0.016 C
HETATM    2  C4  UNL     1     -21.201   7.079  22.364  1.00  0.00     0.033 C
HETATM    3  C6  UNL     1     -21.344   7.633  21.162  1.00  0.00    -0.003 C
HETATM    4  C7  UNL     1     -20.495   6.908  20.186  1.00  0.00    -0.004 C
HETATM    5  C8  UNL     1     -19.950   7.815  19.110  1.00  0.00     0.021 C
HETATM    6  C9  UNL     1     -21.320   5.807  19.615  1.00  0.00     0.049 C
HETATM    7  C10 UNL     1     -21.445   4.647  20.569  1.00  0.00    -0.073 C
HETATM    8  C11 UNL     1     -22.168   3.686  20.018  1.00  0.00     0.006 C
HETATM    9  C12 UNL     1     -22.528   2.402  20.597  1.00  0.00     0.032 C
HETATM   10  C13 UNL     1     -22.273   1.847  21.773  1.00  0.00     0.046 C
HETATM   11  C19 UNL     1     -21.505   2.435  22.868  1.00  0.00     0.065 C
HETATM   12  C20 UNL     1     -21.698   3.964  22.925  1.00  0.00     0.016 C
HETATM   13  C21 UNL     1     -20.829   4.632  21.912  1.00  0.00     0.029 C
HETATM   14  C22 UNL     1     -19.390   6.385  21.088  1.00  0.00     0.108 C
HETATM   15 CL1  UNL     1     -18.628   4.990  20.293  1.00  0.00    -0.123 Cl
ENDROOT
BRANCH  10  16
HETATM   16  O1  UNL     1     -22.794   0.597  21.949  1.00  0.00    -0.355 OA
BRANCH  16  17
HETATM   17  C14 UNL     1     -23.481  -0.107  20.941  1.00  0.00     0.180 C
BRANCH  17  18
HETATM   18  C15 UNL     1     -23.355  -1.580  21.090  1.00  0.00     0.077 C
BRANCH  18  19
HETATM   19  C16 UNL     1     -22.651  -2.169  19.897  1.00  0.00     0.039 A
HETATM   20  S1  UNL     1     -21.565  -1.410  18.805  1.00  0.00    -0.055 SA
HETATM   21  C17 UNL     1     -21.269  -2.738  17.787  1.00  0.00     0.144 A
HETATM   22  N2  UNL     1     -22.010  -3.704  18.323  1.00  0.00    -0.317 N
HETATM   23  C18 UNL     1     -22.715  -3.440  19.387  1.00  0.00     0.155 A
ATOM     24  H2  UNL     1     -22.026  -4.636  17.909  1.00  0.00     0.170 HD
BRANCH  21  25
HETATM   25  N1  UNL     1     -20.505  -2.841  16.721  1.00  0.00    -0.380 N
ATOM     26  H12 UNL     1     -19.770  -2.192  16.438  1.00  0.00     0.158 HD
ATOM     27  H11 UNL     1     -20.484  -3.551  15.989  1.00  0.00     0.158 HD
ENDBRANCH  21  25
BRANCH  23  28
HETATM   28  O2  UNL     1     -23.542  -4.410  20.038  1.00  0.00    -0.345 OA
ATOM     29  H2  UNL     1     -24.447  -4.192  20.230  1.00  0.00     0.219 HD
ENDBRANCH  23  28
ENDBRANCH  18  19
ENDBRANCH  17  18
ENDBRANCH  16  17
ENDBRANCH  10  16
BRANCH   1  30
HETATM   30  C2  UNL     1     -19.318   5.919  23.469  1.00  0.00     0.012 C
HETATM   31  C1  UNL     1     -18.186   6.905  23.388  1.00  0.00     0.006 C
ENDBRANCH   1  30
BRANCH   2  32
HETATM   32  C5  UNL     1     -21.928   7.618  23.548  1.00  0.00     0.414 C
HETATM   33  F1  UNL     1     -21.084   8.303  24.400  1.00  0.00    -0.166 F
HETATM   34  F2  UNL     1     -22.640   6.647  24.176  1.00  0.00    -0.166 F
HETATM   35  F3  UNL     1     -22.868   8.580  23.148  1.00  0.00    -0.166 F
ENDBRANCH   2  32
TORSDOF 8
ENDMDL