MODEL 4
REMARK VINA RESULT: -5.748163002      2.216      2.829
REMARK  7 active torsions:
REMARK  status: ('A' for Active; 'I' for Inactive)
REMARK    1  A    between atoms: C2_2  and  C3_3
REMARK    2  A    between atoms: C3_3  and  N1_5
REMARK    3  A    between atoms: N1_5  and  C5_7
REMARK    4  A    between atoms: C5_7  and  C6_8
REMARK    5  A    between atoms: C5_7  and  C12_17
REMARK    6  A    between atoms: C13_18  and  O1_19
REMARK    7  A    between atoms: C17_25  and  O2_26
ROOT
HETATM    1  C5  UNL     1     -21.065   4.966  19.562  1.00  0.00     0.151 C
ENDROOT
BRANCH   1   2
HETATM    2  N1  UNL     1     -21.765   6.108  20.090  1.00  0.00    -0.405 N
ATOM      3  H1  UNL     1     -22.666   5.997  20.556  1.00  0.00     0.154 HD
BRANCH   2   4
HETATM    4  C3  UNL     1     -21.178   7.386  19.950  1.00  0.00     0.073 C
HETATM    5  C4  UNL     1     -21.520   8.176  21.207  1.00  0.00     0.031 C
BRANCH   4   6
HETATM    6  C2  UNL     1     -21.818   8.112  18.794  1.00  0.00     0.020 C
HETATM    7  C1  UNL     1     -20.841   8.283  17.639  1.00  0.00     0.007 C
ENDBRANCH   4   6
ENDBRANCH   2   4
ENDBRANCH   1   2
BRANCH   1   8
HETATM    8  C6  UNL     1     -19.597   5.106  19.504  1.00  0.00    -0.011 A
HETATM    9  C7  UNL     1     -18.878   5.315  20.664  1.00  0.00     0.014 A
HETATM   10  C8  UNL     1     -17.523   5.447  20.711  1.00  0.00     0.046 A
HETATM   11  C9  UNL     1     -16.845   5.362  19.506  1.00  0.00     0.156 A
HETATM   12  F1  UNL     1     -15.483   5.491  19.523  1.00  0.00    -0.203 F
HETATM   13  C10 UNL     1     -17.542   5.155  18.332  1.00  0.00     0.172 A
HETATM   14  F2  UNL     1     -16.891   5.070  17.148  1.00  0.00    -0.201 F
HETATM   15  C11 UNL     1     -18.928   5.024  18.319  1.00  0.00     0.061 A
HETATM   16 BR1  UNL     1     -19.794   4.733  16.622  1.00  0.00    -0.047 Br
ENDBRANCH   1   8
BRANCH   1  17
HETATM   17  C12 UNL     1     -21.586   3.789  20.263  1.00  0.00     0.040 A
HETATM   18  C13 UNL     1     -21.762   3.683  21.620  1.00  0.00     0.101 A
HETATM   19  C14 UNL     1     -22.265   2.522  22.239  1.00  0.00     0.104 A
HETATM   20 CL1  UNL     1     -22.475   2.425  23.973  1.00  0.00    -0.078 Cl
HETATM   21  C15 UNL     1     -22.592   1.456  21.474  1.00  0.00     0.132 A
HETATM   22  C16 UNL     1     -22.431   1.520  20.112  1.00  0.00     0.140 A
HETATM   23  O4  UNL     1     -23.106   0.195  21.821  1.00  0.00    -0.321 OA
HETATM   24  C17 UNL     1     -21.938   2.670  19.542  1.00  0.00     0.113 A
HETATM   25  O3  UNL     1     -22.842   0.306  19.601  1.00  0.00    -0.320 OA
HETATM   26  C18 UNL     1     -23.582  -0.364  20.603  1.00  0.00     0.352 C
BRANCH  18  27
HETATM   27  O1  UNL     1     -21.464   4.707  22.493  1.00  0.00    -0.358 OA
ATOM     28  H1  UNL     1     -21.002   4.566  23.311  1.00  0.00     0.217 HD
ENDBRANCH  18  27
BRANCH  24  29
HETATM   29  O2  UNL     1     -21.808   2.648  18.147  1.00  0.00    -0.357 OA
ATOM     30  H2  UNL     1     -21.617   1.837  17.691  1.00  0.00     0.217 HD
ENDBRANCH  24  29
ENDBRANCH   1  17
TORSDOF 7
ENDMDL