MODEL 1
REMARK VINA RESULT: -7.997349488      0.000      0.000
REMARK  8 active torsions:
REMARK  status: ('A' for Active; 'I' for Inactive)
REMARK    1  A    between atoms: N1_1  and  C1_5
REMARK    2  A    between atoms: C1_5  and  C2_6
REMARK    3  A    between atoms: C5_9  and  C6_10
REMARK    4  A    between atoms: C6_10  and  N2_11
REMARK    5  A    between atoms: N2_11  and  C7_13
REMARK    6  A    between atoms: C10_19  and  O1_20
REMARK    7  A    between atoms: O1_20  and  C11_21
REMARK    8  A    between atoms: C14_25  and  O2_26
ROOT
HETATM    1  C7  UNL     1     -22.257   3.658  21.301  1.00  0.00     0.077 A
HETATM    2  C8  UNL     1     -22.362   3.281  22.662  1.00  0.00     0.077 A
HETATM    3 CL1  UNL     1     -22.350   4.531  23.880  1.00  0.00    -0.080 Cl
HETATM    4  C9  UNL     1     -22.467   1.951  22.945  1.00  0.00     0.116 A
HETATM    5  N3  UNL     1     -22.472   1.018  21.971  1.00  0.00    -0.343 N
ATOM      6  H3  UNL     1     -22.553   0.035  22.235  1.00  0.00     0.167 HD
HETATM    7  C10 UNL     1     -22.374   1.326  20.671  1.00  0.00     0.172 A
HETATM    8  C17 UNL     1     -22.265   2.684  20.336  1.00  0.00     0.113 A
HETATM    9 CL4  UNL     1     -22.137   3.120  18.643  1.00  0.00    -0.077 Cl
ENDROOT
BRANCH   1  10
HETATM   10  N2  UNL     1     -22.164   4.907  21.127  1.00  0.00    -0.387 N
ATOM     11  H2  UNL     1     -23.024   5.432  21.282  1.00  0.00     0.159 HD
BRANCH  10  12
HETATM   12  C6  UNL     1     -21.053   5.677  20.753  1.00  0.00     0.124 C
BRANCH  12  13
HETATM   13  C5  UNL     1     -19.724   4.990  21.123  1.00  0.00     0.003 C
HETATM   14  C4  UNL     1     -18.738   5.125  19.982  1.00  0.00     0.007 C
HETATM   15  C3  UNL     1     -17.941   6.397  20.223  1.00  0.00     0.007 C
HETATM   16  C2  UNL     1     -16.938   6.122  21.321  1.00  0.00     0.011 C
HETATM   17  C19 UNL     1     -17.637   5.408  22.442  1.00  0.00     0.007 C
HETATM   18  C18 UNL     1     -19.115   5.605  22.338  1.00  0.00     0.007 C
BRANCH  16  19
HETATM   19  C1  UNL     1     -16.357   7.413  21.872  1.00  0.00     0.234 C
BRANCH  19  20
HETATM   20  N1  UNL     1     -16.008   7.195  23.262  1.00  0.00    -0.079 N
ATOM     21  H13 UNL     1     -16.504   7.822  23.895  1.00  0.00     0.274 HD
ATOM     22  H12 UNL     1     -16.374   6.315  23.626  1.00  0.00     0.274 HD
ATOM     23  H11 UNL     1     -14.994   7.266  23.350  1.00  0.00     0.274 HD
ENDBRANCH  19  20
ENDBRANCH  16  19
ENDBRANCH  12  13
ENDBRANCH  10  12
ENDBRANCH   1  10
BRANCH   7  24
HETATM   24  O1  UNL     1     -22.377   0.402  19.633  1.00  0.00    -0.290 OA
BRANCH  24  25
HETATM   25  C11 UNL     1     -22.655  -0.925  19.734  1.00  0.00     0.101 A
HETATM   26  C12 UNL     1     -23.720  -1.346  20.497  1.00  0.00     0.065 A
HETATM   27  C13 UNL     1     -24.043  -2.692  20.629  1.00  0.00     0.070 A
HETATM   28 CL2  UNL     1     -25.421  -3.143  21.624  1.00  0.00    -0.081 Cl
HETATM   29  C14 UNL     1     -23.272  -3.626  19.975  1.00  0.00     0.089 A
HETATM   30  C15 UNL     1     -22.214  -3.243  19.214  1.00  0.00     0.065 A
HETATM   31  C16 UNL     1     -21.905  -1.875  19.094  1.00  0.00     0.070 A
HETATM   32 CL3  UNL     1     -20.567  -1.451  18.067  1.00  0.00    -0.081 Cl
BRANCH  29  33
HETATM   33  O2  UNL     1     -23.615  -4.981  20.122  1.00  0.00    -0.359 OA
ATOM     34  H2  UNL     1     -23.137  -5.619  19.607  1.00  0.00     0.217 HD
ENDBRANCH  29  33
ENDBRANCH  24  25
ENDBRANCH   7  24
TORSDOF 8
ENDMDL