MODEL 4
REMARK VINA RESULT: -7.820443457      1.184      2.576
REMARK  8 active torsions:
REMARK  status: ('A' for Active; 'I' for Inactive)
REMARK    1  A    between atoms: C2_2  and  N1_4
REMARK    2  A    between atoms: N1_4  and  C4_6
REMARK    3  A    between atoms: C10_12  and  O1_13
REMARK    4  A    between atoms: N2_15  and  C11_16
REMARK    5  A    between atoms: C11_16  and  C12_17
REMARK    6  A    between atoms: C12_17  and  C13_18
REMARK    7  A    between atoms: C13_18  and  C14_21
REMARK    8  A    between atoms: C20_29  and  O2_30
ROOT
HETATM    1  C4  UNL     1     -22.124  -1.368  20.801  1.00  0.00     0.026 C
HETATM    2  C5  UNL     1     -22.669  -2.792  21.025  1.00  0.00     0.038 C
HETATM    3  C6  UNL     1     -23.051  -0.830  19.682  1.00  0.00     0.035 C
HETATM    4  C7  UNL     1     -22.673   0.563  19.309  1.00  0.00     0.046 C
HETATM    5  C8  UNL     1     -22.485   1.425  20.501  1.00  0.00     0.004 A
HETATM    6  C9  UNL     1     -22.351   0.924  21.769  1.00  0.00     0.006 A
HETATM    7  C10 UNL     1     -22.194   1.991  22.647  1.00  0.00     0.151 A
HETATM    8  N2  UNL     1     -22.228   3.130  21.940  1.00  0.00    -0.307 N
HETATM    9  C20 UNL     1     -22.406   2.808  20.638  1.00  0.00     0.151 A
HETATM   10  C21 UNL     1     -22.392  -0.566  22.010  1.00  0.00     0.073 C
ENDROOT
BRANCH   8  11
HETATM   11  C11 UNL     1     -22.099   4.470  22.503  1.00  0.00     0.138 C
BRANCH  11  12
HETATM   12  C12 UNL     1     -20.648   4.908  22.600  1.00  0.00     0.086 C
BRANCH  12  13
HETATM   13  C13 UNL     1     -20.454   5.971  21.558  1.00  0.00     0.207 C
HETATM   14  F1  UNL     1     -21.633   6.399  21.009  1.00  0.00    -0.220 F
HETATM   15 CL1  UNL     1     -19.779   7.392  22.435  1.00  0.00    -0.077 Cl
BRANCH  13  16
HETATM   16  C14 UNL     1     -19.514   5.646  20.494  1.00  0.00    -0.000 A
HETATM   17  C15 UNL     1     -18.165   5.706  20.774  1.00  0.00     0.035 A
HETATM   18  C16 UNL     1     -17.205   5.418  19.842  1.00  0.00     0.036 A
HETATM   19 CL2  UNL     1     -15.496   5.518  20.280  1.00  0.00    -0.084 Cl
HETATM   20  C17 UNL     1     -17.555   5.050  18.563  1.00  0.00     0.047 A
HETATM   21  C18 UNL     1     -18.911   4.986  18.272  1.00  0.00     0.036 A
HETATM   22 CL3  UNL     1     -19.333   4.515  16.636  1.00  0.00    -0.084 Cl
HETATM   23  C19 UNL     1     -19.881   5.276  19.208  1.00  0.00     0.035 A
ENDBRANCH  13  16
ENDBRANCH  12  13
ENDBRANCH  11  12
ENDBRANCH   8  11
BRANCH   7  24
HETATM   24  O1  UNL     1     -22.031   1.823  24.013  1.00  0.00    -0.345 OA
ATOM     25  H1  UNL     1     -21.737   1.007  24.401  1.00  0.00     0.219 HD
ENDBRANCH   7  24
BRANCH   9  26
HETATM   26  O2  UNL     1     -22.496   3.703  19.587  1.00  0.00    -0.345 OA
ATOM     27  H2  UNL     1     -23.278   3.841  19.066  1.00  0.00     0.219 HD
ENDBRANCH   9  26
BRANCH   1  28
HETATM   28  N1  UNL     1     -20.828  -1.394  20.274  1.00  0.00    -0.409 N
ATOM     29  H1  UNL     1     -20.200  -0.614  20.473  1.00  0.00     0.154 HD
BRANCH  28  30
HETATM   30  C2  UNL     1     -20.361  -2.449  19.484  1.00  0.00     0.069 C
HETATM   31  C1  UNL     1     -18.933  -2.893  19.654  1.00  0.00     0.031 C
HETATM   32  C3  UNL     1     -20.505  -2.049  17.999  1.00  0.00     0.031 C
ENDBRANCH  28  30
ENDBRANCH   1  28
TORSDOF 8
ENDMDL