MODEL 3
REMARK VINA RESULT: -8.388349783      2.701      3.688
REMARK  7 active torsions:
REMARK  status: ('A' for Active; 'I' for Inactive)
REMARK    1  A    between atoms: C2_2  and  O1_4
REMARK    2  A    between atoms: C2_2  and  C4_6
REMARK    3  A    between atoms: C4_6  and  C5_8
REMARK    4  A    between atoms: C5_8  and  N1_9
REMARK    5  A    between atoms: C8_12  and  N2_13
REMARK    6  A    between atoms: C9_14  and  C10_15
REMARK    7  A    between atoms: C20_30  and  O2_31
ROOT
HETATM    1  N2  UNL     1     -22.027   2.698  22.205  1.00  0.00    -0.319 N
HETATM    2  C9  UNL     1     -21.932   3.891  21.610  1.00  0.00     0.060 A
HETATM    3  C16 UNL     1     -22.094   4.846  22.637  1.00  0.00     0.026 A
HETATM    4  C17 UNL     1     -22.163   6.173  22.965  1.00  0.00     0.058 A
HETATM    5  C18 UNL     1     -22.390   6.283  24.345  1.00  0.00     0.104 A
HETATM    6 CL1  UNL     1     -22.557   7.754  25.282  1.00  0.00    -0.065 Cl
HETATM    7  N3  UNL     1     -22.460   5.057  24.855  1.00  0.00    -0.343 N
ATOM      8  H3  UNL     1     -22.617   4.818  25.834  1.00  0.00     0.167 HD
HETATM    9  C19 UNL     1     -22.284   4.184  23.834  1.00  0.00     0.097 A
HETATM   10  C20 UNL     1     -22.239   2.846  23.546  1.00  0.00     0.171 A
ENDROOT
BRANCH   1  11
HETATM   11  C8  UNL     1     -21.900   1.403  21.607  1.00  0.00     0.096 C
HETATM   12  C7  UNL     1     -21.922   0.277  22.619  1.00  0.00     0.056 C
HETATM   13  C6  UNL     1     -21.621  -1.052  21.979  1.00  0.00     0.274 C
HETATM   14  N1  UNL     1     -22.572  -1.322  20.887  1.00  0.00     0.091 N
HETATM   15  C22 UNL     1     -22.590  -0.228  19.961  1.00  0.00     0.274 C
HETATM   16  C21 UNL     1     -23.063   1.066  20.664  1.00  0.00     0.056 C
BRANCH  14  17
HETATM   17  C5  UNL     1     -22.234  -2.580  20.336  1.00  0.00     0.312 C
BRANCH  17  18
HETATM   18  C4  UNL     1     -21.971  -2.590  18.865  1.00  0.00     0.231 C
HETATM   19  F1  UNL     1     -22.939  -3.308  18.206  1.00  0.00    -0.244 F
BRANCH  18  20
HETATM   20  C2  UNL     1     -20.650  -3.298  18.615  1.00  0.00     0.083 C
HETATM   21  C1  UNL     1     -19.577  -2.484  19.318  1.00  0.00     0.048 C
HETATM   22  C3  UNL     1     -20.651  -4.713  19.096  1.00  0.00     0.048 C
BRANCH  20  23
HETATM   23  O1  UNL     1     -20.388  -3.265  17.235  1.00  0.00    -0.388 OA
ATOM     24  H1  UNL     1     -21.219  -3.197  16.778  1.00  0.00     0.210 HD
ENDBRANCH  20  23
ENDBRANCH  18  20
ENDBRANCH  17  18
ENDBRANCH  14  17
ENDBRANCH   1  11
BRANCH   2  25
HETATM   25  C10 UNL     1     -21.621   4.278  20.241  1.00  0.00    -0.005 A
HETATM   26  C11 UNL     1     -22.651   4.554  19.329  1.00  0.00     0.017 A
HETATM   27  C12 UNL     1     -22.409   4.832  18.004  1.00  0.00     0.046 A
HETATM   28  C13 UNL     1     -21.128   4.847  17.531  1.00  0.00     0.154 A
HETATM   29  F2  UNL     1     -20.875   5.122  16.217  1.00  0.00    -0.203 F
HETATM   30  C14 UNL     1     -20.077   4.588  18.368  1.00  0.00     0.155 A
HETATM   31  F3  UNL     1     -18.797   4.603  17.897  1.00  0.00    -0.203 F
HETATM   32  C15 UNL     1     -20.354   4.307  19.712  1.00  0.00     0.059 A
ENDBRANCH   2  25
BRANCH  10  33
HETATM   33  O2  UNL     1     -22.394   1.875  24.527  1.00  0.00    -0.344 OA
ATOM     34  H2  UNL     1     -21.845   1.683  25.278  1.00  0.00     0.219 HD
ENDBRANCH  10  33
TORSDOF 7
ENDMDL