MODEL 5
REMARK VINA RESULT: -7.843526834      3.308      4.939
REMARK  6 active torsions:
REMARK  status: ('A' for Active; 'I' for Inactive)
REMARK    1  A    between atoms: O1_2  and  C2_3
REMARK    2  A    between atoms: C3_4  and  C4_5
REMARK    3  A    between atoms: C11_18  and  C12_19
REMARK    4  A    between atoms: C12_19  and  N3_21
REMARK    5  A    between atoms: N3_21  and  C14_22
REMARK    6  A    between atoms: C18_30  and  C19_31
ROOT
HETATM    1  C2  UNL     1     -20.816   4.479  19.504  1.00  0.00     0.087 A
HETATM    2  C3  UNL     1     -20.856   4.398  20.850  1.00  0.00     0.011 A
HETATM    3  C10 UNL     1     -21.484   3.312  21.440  1.00  0.00     0.031 A
HETATM    4  C11 UNL     1     -22.100   2.268  20.700  1.00  0.00     0.023 A
HETATM    5  C20 UNL     1     -22.031   2.417  19.364  1.00  0.00     0.056 A
HETATM    6 CL1  UNL     1     -22.770   1.289  18.281  1.00  0.00    -0.083 Cl
HETATM    7  C21 UNL     1     -21.398   3.507  18.739  1.00  0.00    -0.005 A
HETATM    8  C22 UNL     1     -21.348   3.592  17.259  1.00  0.00     0.053 C
ENDROOT
BRANCH   4   9
HETATM    9  C12 UNL     1     -22.805   1.260  21.464  1.00  0.00     0.095 C
HETATM   10  C13 UNL     1     -22.412   1.476  23.003  1.00  0.00     0.086 C
BRANCH   9  11
HETATM   11  N3  UNL     1     -23.128   0.026  21.283  1.00  0.00    -0.391 NA
BRANCH  11  12
HETATM   12  C14 UNL     1     -23.423  -1.111  21.026  1.00  0.00     0.193 A
HETATM   13  N4  UNL     1     -24.572  -1.759  21.382  1.00  0.00    -0.327 N
HETATM   14  C15 UNL     1     -24.902  -2.999  21.122  1.00  0.00     0.183 A
ATOM     15  H4  UNL     1     -25.251  -1.212  21.912  1.00  0.00     0.169 HD
HETATM   16  N5  UNL     1     -24.085  -3.778  20.441  1.00  0.00    -0.355 N
HETATM   17  C16 UNL     1     -22.914  -3.275  20.025  1.00  0.00     0.022 A
ATOM     18  H5  UNL     1     -24.338  -4.745  20.236  1.00  0.00     0.166 HD
HETATM   19  C17 UNL     1     -22.068  -4.214  19.235  1.00  0.00     0.069 C
HETATM   20  C18 UNL     1     -22.550  -1.982  20.288  1.00  0.00     0.086 A
BRANCH  20  21
HETATM   21  C19 UNL     1     -21.272  -1.495  19.799  1.00  0.00     0.393 C
HETATM   22  F2  UNL     1     -21.090  -1.559  18.434  1.00  0.00    -0.209 F
HETATM   23  F3  UNL     1     -20.231  -2.160  20.484  1.00  0.00    -0.209 F
ENDBRANCH  20  21
ENDBRANCH  11  12
ENDBRANCH   9  11
ENDBRANCH   4   9
BRANCH   2  24
HETATM   24  C4  UNL     1     -20.363   5.440  21.801  1.00  0.00     0.001 A
HETATM   25  C5  UNL     1     -19.161   5.189  22.463  1.00  0.00     0.102 A
HETATM   26  N1  UNL     1     -18.767   6.052  23.451  1.00  0.00    -0.349 N
HETATM   27  C6  UNL     1     -19.515   7.110  23.767  1.00  0.00     0.138 A
ATOM     28  H1  UNL     1     -17.894   5.883  23.950  1.00  0.00     0.167 HD
HETATM   29  N2  UNL     1     -19.147   7.928  24.732  1.00  0.00    -0.383 N
HETATM   30  C7  UNL     1     -20.695   7.396  23.144  1.00  0.00     0.166 A
ATOM     31  H22 UNL     1     -18.265   7.715  25.197  1.00  0.00     0.157 HD
ATOM     32  H21 UNL     1     -19.719   8.737  24.973  1.00  0.00     0.157 HD
HETATM   33  F1  UNL     1     -21.475   8.454  23.435  1.00  0.00    -0.202 F
HETATM   34  C8  UNL     1     -21.124   6.529  22.132  1.00  0.00    -0.007 A
HETATM   35  C9  UNL     1     -22.413   6.792  21.454  1.00  0.00     0.052 C
ENDBRANCH   2  24
BRANCH   1  36
HETATM   36  O1  UNL     1     -20.181   5.538  18.889  1.00  0.00    -0.354 OA
HETATM   37  C1  UNL     1     -18.780   5.563  18.662  1.00  0.00     0.210 C
ENDBRANCH   1  36
TORSDOF 6
ENDMDL