MODEL 3
REMARK VINA RESULT: -8.013236984      3.197      6.302
REMARK  9 active torsions:
REMARK  status: ('A' for Active; 'I' for Inactive)
REMARK    1  A    between atoms: C2_2  and  C5_5
REMARK    2  A    between atoms: C6_7  and  N1_8
REMARK    3  A    between atoms: N1_8  and  C7_10
REMARK    4  A    between atoms: C7_10  and  C8_11
REMARK    5  A    between atoms: C7_10  and  C15_21
REMARK    6  A    between atoms: C8_11  and  N2_12
REMARK    7  A    between atoms: N2_12  and  C9_15
REMARK    8  A    between atoms: C18_24  and  C19_25
REMARK    9  A    between atoms: C22_34  and  O1_35
ROOT
HETATM    1  C7  UNL     1     -21.620   4.320  19.223  1.00  0.00     0.145 C
ENDROOT
BRANCH   1   2
HETATM    2  N1  UNL     1     -20.284   4.538  18.925  1.00  0.00    -0.360 N
ATOM      3  H1  UNL     1     -20.005   4.382  17.956  1.00  0.00     0.162 HD
BRANCH   2   4
HETATM    4  C6  UNL     1     -19.345   4.919  19.744  1.00  0.00     0.147 A
HETATM    5  S1  UNL     1     -19.602   5.433  21.361  1.00  0.00    -0.054 SA
HETATM    6  C5  UNL     1     -17.984   5.802  21.763  1.00  0.00     0.044 A
HETATM    7  C22 UNL     1     -17.324   5.496  20.601  1.00  0.00     0.156 A
HETATM    8  N3  UNL     1     -18.031   5.055  19.605  1.00  0.00    -0.317 N
ATOM      9  H3  UNL     1     -17.580   4.815  18.723  1.00  0.00     0.170 HD
BRANCH   6  10
HETATM   10  C2  UNL     1     -17.458   6.423  23.016  1.00  0.00    -0.013 C
HETATM   11  C1  UNL     1     -16.502   7.534  22.848  1.00  0.00     0.020 C
HETATM   12  C3  UNL     1     -16.749   5.283  23.793  1.00  0.00     0.020 C
HETATM   13  C4  UNL     1     -18.641   6.851  23.884  1.00  0.00     0.020 C
ENDBRANCH   6  10
BRANCH   7  14
HETATM   14  O1  UNL     1     -15.915   5.673  20.568  1.00  0.00    -0.345 OA
ATOM     15  H1  UNL     1     -15.410   5.118  19.986  1.00  0.00     0.219 HD
ENDBRANCH   7  14
ENDBRANCH   2   4
ENDBRANCH   1   2
BRANCH   1  16
HETATM   16  C8  UNL     1     -22.672   4.779  18.262  1.00  0.00     0.262 C
BRANCH  16  17
HETATM   17  N2  UNL     1     -22.111   5.531  17.162  1.00  0.00    -0.069 N
ATOM     18  H22 UNL     1     -22.335   6.526  17.191  1.00  0.00     0.277 HD
ATOM     19  H21 UNL     1     -21.097   5.634  17.210  1.00  0.00     0.277 HD
BRANCH  17  20
HETATM   20  C9  UNL     1     -22.590   4.840  15.913  1.00  0.00     0.186 C
HETATM   21  C10 UNL     1     -23.788   4.104  16.269  1.00  0.00     0.033 C
HETATM   22  C11 UNL     1     -23.916   2.710  15.726  1.00  0.00     0.002 C
HETATM   23  C12 UNL     1     -22.930   2.441  14.586  1.00  0.00     0.000 C
HETATM   24  C13 UNL     1     -21.562   2.613  15.252  1.00  0.00     0.002 C
HETATM   25  C14 UNL     1     -21.395   4.093  15.436  1.00  0.00     0.033 C
ENDBRANCH  17  20
ENDBRANCH  16  17
ENDBRANCH   1  16
BRANCH   1  26
HETATM   26  C15 UNL     1     -21.982   2.948  19.661  1.00  0.00     0.005 A
HETATM   27  C16 UNL     1     -22.037   1.912  18.708  1.00  0.00     0.013 A
HETATM   28  C17 UNL     1     -22.427   0.628  18.998  1.00  0.00     0.017 A
HETATM   29  C18 UNL     1     -22.790   0.293  20.259  1.00  0.00     0.050 A
HETATM   30  C20 UNL     1     -22.752   1.283  21.223  1.00  0.00     0.059 A
HETATM   31  C21 UNL     1     -22.360   2.572  20.926  1.00  0.00     0.125 A
HETATM   32  F4  UNL     1     -22.348   3.494  21.922  1.00  0.00    -0.205 F
BRANCH  29  33
HETATM   33  C19 UNL     1     -23.167  -1.087  20.659  1.00  0.00     0.417 C
HETATM   34  F1  UNL     1     -24.511  -1.019  21.033  1.00  0.00    -0.166 F
HETATM   35  F2  UNL     1     -22.443  -1.491  21.777  1.00  0.00    -0.166 F
HETATM   36  F3  UNL     1     -23.027  -1.970  19.626  1.00  0.00    -0.166 F
ENDBRANCH  29  33
ENDBRANCH   1  26
TORSDOF 9
ENDMDL