MODEL 2
REMARK VINA RESULT: -8.412856314      0.688      2.196
REMARK  9 active torsions:
REMARK  status: ('A' for Active; 'I' for Inactive)
REMARK    1  A    between atoms: C7_11  and  C8_12
REMARK    2  A    between atoms: C8_12  and  O1_13
REMARK    3  A    between atoms: C8_12  and  N1_15
REMARK    4  A    between atoms: N1_15  and  C9_17
REMARK    5  A    between atoms: C9_17  and  C10_18
REMARK    6  A    between atoms: C10_18  and  C11_19
REMARK    7  A    between atoms: C11_19  and  N2_20
REMARK    8  A    between atoms: C12_21  and  O2_22
REMARK    9  A    between atoms: C15_26  and  O3_27
ROOT
HETATM    1  N1  UNL     1     -18.238  -5.519  17.618  1.00  0.00    -0.370 N
ATOM      2  H1  UNL     1     -17.966  -4.730  17.032  1.00  0.00     0.161 HD
ENDROOT
BRANCH   1   3
HETATM    3  C8  UNL     1     -17.859  -6.765  17.121  1.00  0.00     0.148 C
BRANCH   3   4
HETATM    4  C7  UNL     1     -16.604  -7.212  16.599  1.00  0.00     0.045 A
HETATM    5  C2  UNL     1     -16.184  -7.074  15.324  1.00  0.00    -0.022 A
HETATM    6  C1  UNL     1     -17.014  -6.553  14.235  1.00  0.00     0.051 C
HETATM    7  C3  UNL     1     -14.892  -7.487  14.926  1.00  0.00     0.064 A
HETATM    8 CL1  UNL     1     -14.350  -7.304  13.276  1.00  0.00    -0.082 Cl
HETATM    9  C4  UNL     1     -14.036  -8.042  15.839  1.00  0.00     0.079 A
HETATM   10 CL2  UNL     1     -12.422  -8.562  15.359  1.00  0.00    -0.081 Cl
HETATM   11  C5  UNL     1     -14.440  -8.193  17.131  1.00  0.00     0.080 A
HETATM   12 CL3  UNL     1     -13.351  -8.906  18.311  1.00  0.00    -0.081 Cl
HETATM   13  C6  UNL     1     -15.698  -7.787  17.504  1.00  0.00     0.072 A
HETATM   14 CL4  UNL     1     -16.160  -8.011  19.191  1.00  0.00    -0.081 Cl
ENDBRANCH   3   4
BRANCH   3  15
HETATM   15  O1  UNL     1     -18.788  -7.680  17.135  1.00  0.00    -0.346 OA
ATOM     16  H1  UNL     1     -19.665  -7.341  17.273  1.00  0.00     0.219 HD
ENDBRANCH   3  15
ENDBRANCH   1   3
BRANCH   1  17
HETATM   17  C9  UNL     1     -18.937  -5.162  18.795  1.00  0.00     0.123 C
BRANCH  17  18
HETATM   18  C10 UNL     1     -19.686  -3.906  18.890  1.00  0.00     0.040 C
BRANCH  18  19
HETATM   19  C11 UNL     1     -21.105  -3.808  18.528  1.00  0.00     0.135 C
BRANCH  19  20
HETATM   20  N2  UNL     1     -21.630  -2.492  18.995  1.00  0.00    -0.308 N
HETATM   21  C12 UNL     1     -21.528  -1.355  18.291  1.00  0.00     0.151 A
HETATM   22  C13 UNL     1     -22.115  -0.324  19.003  1.00  0.00     0.007 A
HETATM   23  C14 UNL     1     -22.585  -0.862  20.176  1.00  0.00     0.007 A
HETATM   24  C19 UNL     1     -22.281   1.136  18.683  1.00  0.00     0.070 C
HETATM   25  C15 UNL     1     -22.262  -2.199  20.123  1.00  0.00     0.151 A
HETATM   26  C16 UNL     1     -23.275   0.015  21.166  1.00  0.00     0.070 C
HETATM   27  C17 UNL     1     -22.650   1.368  21.093  1.00  0.00    -0.026 C
HETATM   28  C18 UNL     1     -22.196   1.883  19.965  1.00  0.00    -0.026 C
BRANCH  21  29
HETATM   29  O2  UNL     1     -20.939  -1.175  17.037  1.00  0.00    -0.345 OA
ATOM     30  H2  UNL     1     -21.029  -0.431  16.454  1.00  0.00     0.219 HD
ENDBRANCH  21  29
BRANCH  25  31
HETATM   31  O3  UNL     1     -22.557  -3.132  21.122  1.00  0.00    -0.345 OA
ATOM     32  H3  UNL     1     -23.187  -2.985  21.819  1.00  0.00     0.219 HD
ENDBRANCH  25  31
ENDBRANCH  19  20
ENDBRANCH  18  19
ENDBRANCH  17  18
ENDBRANCH   1  17
TORSDOF 9
ENDMDL