MODEL 1
REMARK VINA RESULT: -7.269645324      0.000      0.000
REMARK  5 active torsions:
REMARK  status: ('A' for Active; 'I' for Inactive)
REMARK    1  A    between atoms: C1_2  and  O1_3
REMARK    2  A    between atoms: O1_3  and  C2_4
REMARK    3  A    between atoms: C5_8  and  C6_9
REMARK    4  A    between atoms: C7_10  and  C8_11
REMARK    5  A    between atoms: N6_29  and  C15_31
ROOT
HETATM    1  C6  UNL     1     -19.901   4.995  20.523  1.00  0.00     0.051 A
HETATM    2  C7  UNL     1     -18.562   5.319  20.452  1.00  0.00     0.090 A
HETATM    3  N4  UNL     1     -18.117   5.071  19.183  1.00  0.00    -0.296 N
ATOM      4  H4  UNL     1     -17.172   5.213  18.828  1.00  0.00     0.187 HD
HETATM    5  N5  UNL     1     -19.136   4.621  18.521  1.00  0.00    -0.284 N
ATOM      6  H5  UNL     1     -19.092   4.351  17.539  1.00  0.00     0.188 HD
HETATM    7  C14 UNL     1     -20.253   4.543  19.255  1.00  0.00     0.129 A
HETATM    8  N6  UNL     1     -21.432   4.139  18.905  1.00  0.00    -0.370 N
ATOM      9  H6  UNL     1     -22.208   4.129  19.568  1.00  0.00     0.161 HD
ENDROOT
BRANCH   2  10
HETATM   10  C8  UNL     1     -17.692   5.861  21.481  1.00  0.00     0.078 A
HETATM   11  N1  UNL     1     -17.347   5.137  22.565  1.00  0.00    -0.350 N
HETATM   12  C9  UNL     1     -16.561   5.602  23.532  1.00  0.00     0.182 A
ATOM     13  H1  UNL     1     -17.708   4.186  22.648  1.00  0.00     0.166 HD
HETATM   14  N2  UNL     1     -16.082   6.856  23.430  1.00  0.00    -0.338 N
HETATM   15  C10 UNL     1     -16.361   7.655  22.400  1.00  0.00     0.120 A
ATOM     16  H2  UNL     1     -15.479   7.210  24.173  1.00  0.00     0.168 HD
HETATM   17  N3  UNL     1     -15.990   8.913  22.113  1.00  0.00    -0.350 N
HETATM   18  C13 UNL     1     -17.192   7.143  21.391  1.00  0.00     0.060 A
HETATM   19  C11 UNL     1     -16.540   9.276  20.947  1.00  0.00     0.114 A
ATOM     20  H3  UNL     1     -15.387   9.498  22.691  1.00  0.00     0.166 HD
HETATM   21  C12 UNL     1     -17.285   8.189  20.490  1.00  0.00     0.065 A
HETATM   22 CL2  UNL     1     -18.214   8.106  19.012  1.00  0.00    -0.082 Cl
ENDBRANCH   2  10
BRANCH   1  23
HETATM   23  C5  UNL     1     -20.771   5.114  21.689  1.00  0.00     0.005 A
HETATM   24  C4  UNL     1     -21.289   6.352  22.067  1.00  0.00     0.048 A
HETATM   25  C3  UNL     1     -22.109   6.492  23.165  1.00  0.00     0.064 A
HETATM   26 CL1  UNL     1     -20.871   7.776  21.114  1.00  0.00    -0.083 Cl
HETATM   27  C2  UNL     1     -22.430   5.383  23.914  1.00  0.00     0.112 A
HETATM   28  C20 UNL     1     -21.932   4.151  23.564  1.00  0.00     0.150 A
HETATM   29  C19 UNL     1     -21.122   4.037  22.471  1.00  0.00     0.059 A
HETATM   30  F2  UNL     1     -22.286   3.090  24.344  1.00  0.00    -0.203 F
BRANCH  27  31
HETATM   31  O1  UNL     1     -23.267   5.520  25.036  1.00  0.00    -0.319 OA
BRANCH  31  32
HETATM   32  C1  UNL     1     -22.956   6.468  26.039  1.00  0.00     0.398 C
HETATM   33  F1  UNL     1     -23.976   6.537  26.948  1.00  0.00    -0.227 F
ENDBRANCH  31  32
ENDBRANCH  27  31
ENDBRANCH   1  23
BRANCH   8  34
HETATM   34  C15 UNL     1     -21.607   3.707  17.546  1.00  0.00     0.083 C
HETATM   35  C16 UNL     1     -22.016   2.303  17.317  1.00  0.00     0.025 C
HETATM   36  C17 UNL     1     -23.046   2.816  16.302  1.00  0.00     0.004 C
HETATM   37  C18 UNL     1     -22.976   4.154  17.034  1.00  0.00     0.025 C
ENDBRANCH   8  34
TORSDOF 5
ENDMDL