MODEL 5
REMARK VINA RESULT: -8.788852874      5.593      8.378
REMARK  6 active torsions:
REMARK  status: ('A' for Active; 'I' for Inactive)
REMARK    1  A    between atoms: C2_2  and  N1_3
REMARK    2  A    between atoms: N1_3  and  C3_5
REMARK    3  A    between atoms: C3_5  and  C4_9
REMARK    4  A    between atoms: C4_9  and  C5_10
REMARK    5  A    between atoms: C24_30  and  C25_31
REMARK    6  A    between atoms: C27_34  and  O2_35
ROOT
HETATM    1  C5  UNL     1      15.022  -5.011   1.569  1.00  0.00     0.131 C
HETATM    2  C6  UNL     1      15.502  -5.161   0.194  1.00  0.00     0.059 C
HETATM    3  N3  UNL     1      15.879  -5.280  -0.886  1.00  0.00    -0.197 NA
ENDROOT
BRANCH   1   4
HETATM    4  C4  UNL     1      14.196  -3.737   1.645  1.00  0.00     0.089 C
BRANCH   4   5
HETATM    5  C3  UNL     1      12.781  -4.020   1.962  1.00  0.00     0.073 C
HETATM    6  N2  UNL     1      12.236  -5.060   1.451  1.00  0.00    -0.389 N
ATOM      7  H22 UNL     1      11.259  -5.255   1.669  1.00  0.00     0.157 HD
ATOM      8  H21 UNL     1      12.730  -5.704   0.833  1.00  0.00     0.157 HD
BRANCH   5   9
HETATM    9  N1  UNL     1      12.096  -3.127   2.820  1.00  0.00    -0.354 N
ATOM     10  H1  UNL     1      11.983  -3.370   3.804  1.00  0.00     0.163 HD
BRANCH   9  11
HETATM   11  C2  UNL     1      11.543  -1.853   2.326  1.00  0.00     0.097 C
HETATM   12  C1  UNL     1      10.130  -1.818   2.940  1.00  0.00     0.062 C
HETATM   13  C7  UNL     1      11.400  -1.898   0.862  1.00  0.00     0.054 C
HETATM   14  C8  UNL     1      11.848  -0.731   0.068  1.00  0.00     0.016 C
HETATM   15  C9  UNL     1      12.749   0.242   0.761  1.00  0.00    -0.020 C
HETATM   16  C10 UNL     1      14.195  -0.268   0.658  1.00  0.00     0.018 C
HETATM   17  C11 UNL     1      12.704   1.534  -0.003  1.00  0.00     0.045 C
HETATM   18  C30 UNL     1      12.384   0.430   2.195  1.00  0.00     0.091 C
HETATM   19  C12 UNL     1      12.475   2.741   0.819  1.00  0.00    -0.076 C
HETATM   20  C13 UNL     1      11.791   2.759   1.953  1.00  0.00    -0.075 C
HETATM   21  C19 UNL     1      13.175   3.814   0.059  1.00  0.00     0.039 C
HETATM   22  C14 UNL     1      11.365   3.708   3.003  1.00  0.00     0.038 C
HETATM   23  C29 UNL     1      11.245   1.411   2.374  1.00  0.00     0.060 C
HETATM   24  C15 UNL     1      12.505   4.441   3.639  1.00  0.00     0.039 C
HETATM   25  C16 UNL     1      13.088   5.495   2.777  1.00  0.00    -0.074 C
HETATM   26  C17 UNL     1      13.100   5.775   1.479  1.00  0.00    -0.040 C
HETATM   27  C22 UNL     1      13.874   6.529   3.534  1.00  0.00     0.038 C
HETATM   28  C18 UNL     1      12.525   5.149   0.276  1.00  0.00     0.042 C
HETATM   29  C20 UNL     1      13.893   7.020   1.240  1.00  0.00     0.118 A
HETATM   30  C21 UNL     1      14.799   7.042   2.438  1.00  0.00     0.050 C
HETATM   31  C23 UNL     1      13.021   8.241   1.165  1.00  0.00     0.105 A
HETATM   32  O3  UNL     1      14.584   6.997   0.022  1.00  0.00    -0.264 OA
HETATM   33  C24 UNL     1      13.218   8.698  -0.234  1.00  0.00     0.047 A
HETATM   34  N4  UNL     1      14.104   7.960  -0.813  1.00  0.00    -0.269 N
ATOM     35  H4  UNL     1      14.408   8.082  -1.779  1.00  0.00     0.194 HD
HETATM   36  N5  UNL     1      12.248  -0.785   2.908  1.00  0.00    -0.392 N
ATOM     37  H5  UNL     1      12.657  -0.884   3.837  1.00  0.00     0.156 HD
BRANCH  33  38
HETATM   38  C25 UNL     1      12.500   9.819  -0.828  1.00  0.00     0.015 A
HETATM   39  C26 UNL     1      11.957  10.914  -0.194  1.00  0.00     0.158 A
HETATM   40  O1  UNL     1      11.389  11.701  -1.086  1.00  0.00    -0.299 OA
HETATM   41  C27 UNL     1      11.528  11.181  -2.289  1.00  0.00     0.183 A
HETATM   42  C28 UNL     1      12.219  10.000  -2.169  1.00  0.00     0.079 A
BRANCH  41  43
HETATM   43  O2  UNL     1      11.072  11.704  -3.474  1.00  0.00    -0.341 OA
ATOM     44  H2  UNL     1      10.337  11.396  -3.991  1.00  0.00     0.220 HD
ENDBRANCH  41  43
ENDBRANCH  33  38
ENDBRANCH   9  11
ENDBRANCH   5   9
ENDBRANCH   4   5
ENDBRANCH   1   4
TORSDOF 6
ENDMDL