MODEL 3
REMARK VINA RESULT: -9.029507075      1.178      1.377
REMARK  10 active torsions:
REMARK  status: ('A' for Active; 'I' for Inactive)
REMARK    1  A    between atoms: C2_2  and  C3_3
REMARK    2  A    between atoms: C3_3  and  O1_4
REMARK    3  A    between atoms: O1_4  and  C4_5
REMARK    4  A    between atoms: C6_7  and  O2_8
REMARK    5  A    between atoms: C9_14  and  C10_15
REMARK    6  A    between atoms: C10_15  and  C12_17
REMARK    7  A    between atoms: C13_18  and  C14_19
REMARK    8  A    between atoms: C14_19  and  O5_20
REMARK    9  A    between atoms: C27_34  and  O6_35
REMARK   10  A    between atoms: C28_37  and  O7_38
ROOT
HETATM    1  C10 UNL     1      17.584  -8.509  -5.040  1.00  0.00     0.064 C
HETATM    2  C11 UNL     1      18.118  -7.904  -3.704  1.00  0.00     0.021 C
ENDROOT
BRANCH   1   3
HETATM    3  C9  UNL     1      16.533  -7.457  -5.427  1.00  0.00     0.098 A
HETATM    4  O4  UNL     1      16.562  -6.286  -4.891  1.00  0.00    -0.276 OA
HETATM    5  C8  UNL     1      15.717  -5.310  -5.158  1.00  0.00     0.302 A
HETATM    6  C7  UNL     1      14.694  -5.477  -6.062  1.00  0.00     0.086 A
HETATM    7  O3  UNL     1      15.854  -4.207  -4.573  1.00  0.00    -0.259 OA
HETATM    8  C6  UNL     1      13.755  -4.515  -6.310  1.00  0.00     0.085 A
HETATM    9  C29 UNL     1      14.622  -6.744  -6.667  1.00  0.00     0.021 A
HETATM   10  C5  UNL     1      12.707  -4.863  -7.195  1.00  0.00     0.074 A
HETATM   11  C4  UNL     1      12.615  -6.087  -7.786  1.00  0.00     0.072 A
HETATM   12  C30 UNL     1      13.595  -7.046  -7.520  1.00  0.00     0.052 A
HETATM   13  C28 UNL     1      15.561  -7.740  -6.344  1.00  0.00     0.107 A
BRANCH   8  14
HETATM   14  O2  UNL     1      13.791  -3.283  -5.760  1.00  0.00    -0.360 OA
ATOM     15  H2  UNL     1      14.480  -2.675  -6.002  1.00  0.00     0.217 HD
ENDBRANCH   8  14
BRANCH  11  16
HETATM   16  O1  UNL     1      11.593  -6.449  -8.633  1.00  0.00    -0.351 OA
BRANCH  16  17
HETATM   17  C3  UNL     1      10.242  -6.527  -8.325  1.00  0.00     0.175 C
BRANCH  17  18
HETATM   18  C2  UNL     1       9.330  -6.087  -9.414  1.00  0.00     0.022 C
HETATM   19  C1  UNL     1      10.170  -5.498 -10.534  1.00  0.00     0.007 C
ENDBRANCH  17  18
ENDBRANCH  16  17
ENDBRANCH  11  16
BRANCH  13  20
HETATM   20  O7  UNL     1      15.492  -8.977  -6.943  1.00  0.00    -0.357 OA
ATOM     21  H7  UNL     1      15.099  -9.083  -7.802  1.00  0.00     0.217 HD
ENDBRANCH  13  20
ENDBRANCH   1   3
BRANCH   1  22
HETATM   22  C12 UNL     1      18.761  -8.309  -5.938  1.00  0.00    -0.017 C
HETATM   23  C13 UNL     1      19.457  -7.412  -6.464  1.00  0.00     0.011 C
BRANCH  23  24
HETATM   24  C14 UNL     1      19.657  -5.986  -6.607  1.00  0.00     0.110 C
HETATM   25  C15 UNL     1      18.551  -5.073  -6.936  1.00  0.00     0.027 C
HETATM   26  C16 UNL     1      17.809  -5.318  -8.215  1.00  0.00     0.014 C
HETATM   27  C17 UNL     1      19.043  -3.629  -6.844  1.00  0.00    -0.011 C
HETATM   28  C18 UNL     1      18.058  -2.653  -7.460  1.00  0.00     0.010 C
HETATM   29  C19 UNL     1      20.425  -3.425  -7.424  1.00  0.00     0.013 C
HETATM   30  C20 UNL     1      20.883  -4.539  -8.303  1.00  0.00     0.031 C
HETATM   31  C21 UNL     1      22.164  -4.252  -8.996  1.00  0.00    -0.041 C
HETATM   32  C27 UNL     1      20.848  -5.812  -7.560  1.00  0.00     0.097 C
HETATM   33  C22 UNL     1      22.184  -5.023 -10.324  1.00  0.00     0.015 C
HETATM   34  C23 UNL     1      22.240  -2.793  -9.371  1.00  0.00     0.015 C
HETATM   35  C24 UNL     1      23.402  -4.579  -8.214  1.00  0.00     0.009 C
HETATM   36  C25 UNL     1      23.353  -5.947  -7.594  1.00  0.00     0.004 C
HETATM   37  C26 UNL     1      22.082  -6.063  -6.782  1.00  0.00     0.042 C
BRANCH  24  38
HETATM   38  O5  UNL     1      20.126  -5.535  -5.336  1.00  0.00    -0.382 OA
ATOM     39  H5  UNL     1      19.792  -4.651  -5.240  1.00  0.00     0.211 HD
ENDBRANCH  24  38
BRANCH  32  40
HETATM   40  O6  UNL     1      20.717  -6.842  -8.529  1.00  0.00    -0.386 OA
ATOM     41  H6  UNL     1      21.531  -7.331  -8.493  1.00  0.00     0.210 HD
ENDBRANCH  32  40
ENDBRANCH  23  24
ENDBRANCH   1  22
TORSDOF 10
ENDMDL