MODEL 3
REMARK VINA RESULT: -10.155165264      6.741     11.441
REMARK  10 active torsions:
REMARK  status: ('A' for Active; 'I' for Inactive)
REMARK    1  A    between atoms: C6_6  and  C7_7
REMARK    2  A    between atoms: C7_7  and  C24_35
REMARK    3  A    between atoms: C8_8  and  C9_9
REMARK    4  A    between atoms: C9_9  and  O1_10
REMARK    5  A    between atoms: O1_10  and  C10_11
REMARK    6  A    between atoms: C11_12  and  C12_13
REMARK    7  A    between atoms: C18_20  and  O2_21
REMARK    8  A    between atoms: C20_24  and  O3_25
REMARK    9  A    between atoms: C21_28  and  O5_29
REMARK   10  A    between atoms: C23_32  and  O6_33
ROOT
HETATM    1  C10 UNL     1      13.765   5.405   0.169  1.00  0.00     0.116 A
HETATM    2  C11 UNL     1      14.335   6.011   1.256  1.00  0.00     0.040 A
HETATM    3  C18 UNL     1      15.714   6.262   1.255  1.00  0.00     0.095 A
HETATM    4  C19 UNL     1      16.531   5.916   0.187  1.00  0.00     0.074 A
HETATM    5  C20 UNL     1      17.870   6.024  -0.099  1.00  0.00     0.200 A
HETATM    6  O4  UNL     1      18.067   5.517  -1.277  1.00  0.00    -0.263 OA
HETATM    7  C21 UNL     1      16.957   5.077  -1.801  1.00  0.00     0.200 A
HETATM    8  C22 UNL     1      15.924   5.303  -0.908  1.00  0.00     0.076 A
HETATM    9  C23 UNL     1      14.571   5.055  -0.916  1.00  0.00     0.116 A
ENDROOT
BRANCH   1  10
HETATM   10  O1  UNL     1      12.424   5.105   0.073  1.00  0.00    -0.344 OA
BRANCH  10  11
HETATM   11  C9  UNL     1      11.697   4.380   1.083  1.00  0.00     0.203 C
BRANCH  11  12
HETATM   12  C8  UNL     1      11.935   2.956   1.149  1.00  0.00     0.003 C
HETATM   13  C7  UNL     1      11.810   1.998   1.984  1.00  0.00    -0.073 C
BRANCH  13  14
HETATM   14  C6  UNL     1      12.220   0.562   1.575  1.00  0.00     0.015 C
HETATM   15  C5  UNL     1      10.984  -0.320   1.647  1.00  0.00     0.013 C
HETATM   16  C4  UNL     1      11.349  -1.581   2.368  1.00  0.00     0.028 C
HETATM   17  C3  UNL     1      12.144  -2.428   1.442  1.00  0.00    -0.024 C
HETATM   18  C2  UNL     1      13.015  -2.080   0.523  1.00  0.00    -0.087 C
HETATM   19  C1  UNL     1      13.572  -3.305  -0.175  1.00  0.00     0.043 C
HETATM   20  C30 UNL     1      13.556  -0.848   0.045  1.00  0.00     0.034 C
HETATM   21  C29 UNL     1      12.753   0.428   0.216  1.00  0.00     0.013 C
ENDBRANCH  13  14
BRANCH  13  22
HETATM   22  C24 UNL     1      11.329   1.997   3.388  1.00  0.00     0.014 C
HETATM   23  C25 UNL     1      12.378   1.193   4.220  1.00  0.00     0.009 C
HETATM   24  C26 UNL     1      12.172   1.691   5.615  1.00  0.00     0.001 C
HETATM   25  C27 UNL     1      12.070   3.204   5.341  1.00  0.00     0.001 C
HETATM   26  C28 UNL     1      11.112   3.211   4.137  1.00  0.00     0.009 C
ENDBRANCH  13  22
ENDBRANCH  11  12
ENDBRANCH  10  11
ENDBRANCH   1  10
BRANCH   2  27
HETATM   27  C12 UNL     1      13.570   6.554   2.397  1.00  0.00    -0.043 C
HETATM   28  C13 UNL     1      13.525   5.978   3.574  1.00  0.00     0.011 C
HETATM   29  C14 UNL     1      12.698   6.654   4.636  1.00  0.00     0.300 C
HETATM   30  N1  UNL     1      13.154   8.008   4.717  1.00  0.00     0.087 N
HETATM   31  C15 UNL     1      12.468   8.716   5.809  1.00  0.00     0.310 C
HETATM   32  C16 UNL     1      12.912   8.729   3.485  1.00  0.00     0.277 C
HETATM   33  C17 UNL     1      12.874   7.861   2.252  1.00  0.00     0.069 C
ENDBRANCH   2  27
BRANCH   9  34
HETATM   34  O6  UNL     1      14.038   4.458  -2.025  1.00  0.00    -0.357 OA
ATOM     35  H6  UNL     1      14.073   4.884  -2.873  1.00  0.00     0.217 HD
ENDBRANCH   9  34
BRANCH   3  36
HETATM   36  O2  UNL     1      16.339   6.871   2.316  1.00  0.00    -0.359 OA
ATOM     37  H2  UNL     1      16.812   7.689   2.213  1.00  0.00     0.217 HD
ENDBRANCH   3  36
BRANCH   7  38
HETATM   38  O5  UNL     1      16.910   4.492  -3.053  1.00  0.00    -0.340 OA
ATOM     39  H5  UNL     1      16.614   4.962  -3.824  1.00  0.00     0.220 HD
ENDBRANCH   7  38
BRANCH   5  40
HETATM   40  O3  UNL     1      18.859   6.562   0.689  1.00  0.00    -0.340 OA
ATOM     41  H3  UNL     1      19.584   6.109   1.105  1.00  0.00     0.220 HD
ENDBRANCH   5  40
TORSDOF 10
ENDMDL