MODEL 3
REMARK VINA RESULT: -8.479770966      2.878      6.851
REMARK  10 active torsions:
REMARK  status: ('A' for Active; 'I' for Inactive)
REMARK    1  A    between atoms: C2_2  and  C4_4
REMARK    2  A    between atoms: C4_4  and  C5_5
REMARK    3  A    between atoms: C5_5  and  C6_6
REMARK    4  A    between atoms: C6_6  and  C7_7
REMARK    5  A    between atoms: C7_7  and  C9_9
REMARK    6  A    between atoms: C18_18  and  O1_19
REMARK    7  A    between atoms: C21_23  and  O2_24
REMARK    8  A    between atoms: C21_23  and  C22_26
REMARK    9  A    between atoms: C24_28  and  O3_29
REMARK   10  A    between atoms: C25_32  and  O5_33
ROOT
HETATM    1  C9  UNL     1      18.051  -7.594  -6.276  1.00  0.00     0.034 C
HETATM    2  C10 UNL     1      18.093  -8.510  -5.069  1.00  0.00     0.007 C
HETATM    3  C11 UNL     1      17.118  -8.042  -4.081  1.00  0.00     0.006 C
HETATM    4  C12 UNL     1      17.653  -7.524  -2.783  1.00  0.00     0.010 C
HETATM    5  C13 UNL     1      19.043  -8.106  -2.583  1.00  0.00     0.050 C
HETATM    6  C14 UNL     1      19.584  -7.886  -1.231  1.00  0.00     0.062 C
HETATM    7  C15 UNL     1      20.430  -6.655  -1.058  1.00  0.00     0.032 C
HETATM    8  C16 UNL     1      21.550  -6.708  -2.029  1.00  0.00     0.005 C
HETATM    9  C17 UNL     1      21.301  -7.587  -3.224  1.00  0.00     0.039 C
HETATM   10  C18 UNL     1      19.871  -7.457  -3.718  1.00  0.00     0.074 C
HETATM   11  C19 UNL     1      19.548  -8.217  -4.930  1.00  0.00     0.028 C
HETATM   12  C20 UNL     1      20.432  -9.496  -4.943  1.00  0.00     0.022 C
HETATM   13  C21 UNL     1      19.560  -7.671  -6.294  1.00  0.00     0.104 C
HETATM   14  S1  UNL     1      18.204  -7.873  -0.014  1.00  0.00    -0.147 SA
HETATM   15  C26 UNL     1      18.288  -9.582   0.633  1.00  0.00     0.086 C
HETATM   16  C27 UNL     1      19.757  -9.771   0.932  1.00  0.00     0.086 C
HETATM   17  S2  UNL     1      20.540  -9.300  -0.613  1.00  0.00    -0.147 SA
ENDROOT
BRANCH  13  18
HETATM   18  O2  UNL     1      19.846  -8.647  -7.293  1.00  0.00    -0.383 OA
ATOM     19  H2  UNL     1      20.792  -8.719  -7.281  1.00  0.00     0.211 HD
ENDBRANCH  13  18
BRANCH  13  20
HETATM   20  C22 UNL     1      20.226  -6.404  -6.631  1.00  0.00     0.040 A
HETATM   21  C23 UNL     1      19.652  -5.182  -6.907  1.00  0.00     0.079 A
HETATM   22  C24 UNL     1      20.655  -4.300  -7.147  1.00  0.00     0.186 A
HETATM   23  O4  UNL     1      21.761  -4.942  -7.027  1.00  0.00    -0.264 OA
HETATM   24  C25 UNL     1      21.582  -6.198  -6.722  1.00  0.00     0.195 A
BRANCH  22  25
HETATM   25  O3  UNL     1      20.493  -2.944  -7.467  1.00  0.00    -0.341 OA
ATOM     26  H3  UNL     1      20.756  -2.532  -8.282  1.00  0.00     0.220 HD
ENDBRANCH  22  25
BRANCH  24  27
HETATM   27  O5  UNL     1      22.647  -7.070  -6.548  1.00  0.00    -0.340 OA
ATOM     28  H5  UNL     1      23.471  -7.147  -7.016  1.00  0.00     0.220 HD
ENDBRANCH  24  27
ENDBRANCH  13  20
BRANCH   1  29
HETATM   29  C7  UNL     1      17.252  -8.010  -7.425  1.00  0.00    -0.011 C
HETATM   30  C8  UNL     1      17.260  -7.112  -8.630  1.00  0.00     0.010 C
BRANCH  29  31
HETATM   31  C6  UNL     1      15.821  -8.375  -7.136  1.00  0.00     0.005 C
BRANCH  31  32
HETATM   32  C5  UNL     1      15.056  -7.183  -6.584  1.00  0.00     0.001 C
BRANCH  32  33
HETATM   33  C4  UNL     1      13.795  -6.932  -7.385  1.00  0.00     0.004 C
BRANCH  33  34
HETATM   34  C2  UNL     1      13.444  -5.485  -7.463  1.00  0.00    -0.023 C
HETATM   35  C1  UNL     1      14.113  -4.703  -6.364  1.00  0.00     0.009 C
HETATM   36  C3  UNL     1      11.978  -5.210  -7.410  1.00  0.00     0.009 C
ENDBRANCH  33  34
ENDBRANCH  32  33
ENDBRANCH  31  32
ENDBRANCH  29  31
ENDBRANCH   1  29
BRANCH  10  37
HETATM   37  O1  UNL     1      19.512  -6.129  -3.716  1.00  0.00    -0.388 OA
ATOM     38  H1  UNL     1      18.666  -6.096  -4.147  1.00  0.00     0.210 HD
ENDBRANCH  10  37
TORSDOF 10
ENDMDL