MODEL 4
REMARK VINA RESULT: -8.380632313     11.559     14.449
REMARK  9 active torsions:
REMARK  status: ('A' for Active; 'I' for Inactive)
REMARK    1  A    between atoms: C2_2  and  C3_3
REMARK    2  A    between atoms: C2_2  and  C26_35
REMARK    3  A    between atoms: C3_3  and  C4_4
REMARK    4  A    between atoms: C4_4  and  C5_5
REMARK    5  A    between atoms: C10_10  and  O1_11
REMARK    6  A    between atoms: C19_21  and  O2_22
REMARK    7  A    between atoms: C20_24  and  C21_25
REMARK    8  A    between atoms: C21_25  and  C22_26
REMARK    9  A    between atoms: C25_32  and  O3_33
ROOT
HETATM    1  C5  UNL     1      20.128  -7.815  -3.887  1.00  0.00     0.089 C
HETATM    2  C6  UNL     1      21.337  -6.929  -4.266  1.00  0.00    -0.001 C
HETATM    3  C7  UNL     1      22.019  -6.389  -3.060  1.00  0.00     0.011 C
HETATM    4  C8  UNL     1      20.869  -5.839  -5.140  1.00  0.00     0.008 C
HETATM    5  C9  UNL     1      21.731  -5.416  -6.292  1.00  0.00     0.033 C
HETATM    6  C10 UNL     1      21.347  -3.991  -6.632  1.00  0.00     0.126 C
HETATM    7  C11 UNL     1      20.194  -3.822  -7.556  1.00  0.00    -0.021 C
HETATM    8  C12 UNL     1      20.677  -2.770  -8.588  1.00  0.00     0.017 C
HETATM    9  C13 UNL     1      19.873  -5.015  -8.419  1.00  0.00     0.017 C
HETATM   10  C14 UNL     1      18.990  -3.184  -6.914  1.00  0.00     0.015 C
HETATM   11  C15 UNL     1      17.856  -4.107  -6.632  1.00  0.00     0.028 C
HETATM   12  C16 UNL     1      16.548  -3.438  -6.557  1.00  0.00    -0.017 C
HETATM   13  C17 UNL     1      15.508  -3.772  -5.818  1.00  0.00    -0.032 C
HETATM   14  C18 UNL     1      14.330  -2.814  -6.027  1.00  0.00     0.050 C
HETATM   15  C19 UNL     1      15.359  -4.849  -4.892  1.00  0.00     0.074 C
HETATM   16  C20 UNL     1      15.503  -6.306  -4.975  1.00  0.00    -0.042 C
HETATM   17  C23 UNL     1      16.485  -6.866  -3.982  1.00  0.00     0.040 C
HETATM   18  C24 UNL     1      17.710  -7.499  -4.521  1.00  0.00     0.037 C
HETATM   19  C25 UNL     1      18.898  -7.012  -3.717  1.00  0.00     0.133 C
ENDROOT
BRANCH   1  20
HETATM   20  C4  UNL     1      20.523  -8.766  -2.938  1.00  0.00    -0.147 C
BRANCH  20  21
HETATM   21  C3  UNL     1      20.881  -9.630  -2.075  1.00  0.00     0.060 C
BRANCH  21  22
HETATM   22  C2  UNL     1      21.261  -9.245  -0.705  1.00  0.00    -0.031 C
HETATM   23  C1  UNL     1      22.494  -8.765  -0.472  1.00  0.00     0.022 C
BRANCH  22  24
HETATM   24  C26 UNL     1      20.266  -9.382   0.368  1.00  0.00     0.165 C
HETATM   25  C27 UNL     1      20.800  -9.026   1.747  1.00  0.00     0.051 C
HETATM   26  C28 UNL     1      20.659  -7.543   1.763  1.00  0.00     0.084 C
HETATM   27  C29 UNL     1      19.832  -7.048   2.957  1.00  0.00     0.020 C
HETATM   28  C30 UNL     1      19.878  -7.151   0.557  1.00  0.00     0.263 C
HETATM   29  O4  UNL     1      19.791  -6.014   0.089  1.00  0.00    -0.265 OA
HETATM   30  O5  UNL     1      19.296  -8.338   0.108  1.00  0.00    -0.311 OA
ENDBRANCH  22  24
ENDBRANCH  21  22
ENDBRANCH  20  21
ENDBRANCH   1  20
BRANCH  19  31
HETATM   31  O3  UNL     1      18.492  -7.004  -2.390  1.00  0.00    -0.394 OA
ATOM     32  H3  UNL     1      18.567  -7.870  -2.007  1.00  0.00     0.210 HD
ENDBRANCH  19  31
BRANCH   6  33
HETATM   33  O1  UNL     1      22.542  -3.399  -7.102  1.00  0.00    -0.395 OA
ATOM     34  H1  UNL     1      22.609  -2.580  -6.627  1.00  0.00     0.210 HD
ENDBRANCH   6  33
BRANCH  16  35
HETATM   35  C21 UNL     1      15.502  -6.968  -6.294  1.00  0.00     0.081 C
BRANCH  35  36
HETATM   36  C22 UNL     1      14.356  -6.627  -7.180  1.00  0.00     0.057 C
HETATM   37  N1  UNL     1      13.240  -7.224  -7.106  1.00  0.00    -0.411 N
ATOM     38  H12 UNL     1      13.141  -7.961  -6.408  1.00  0.00     0.155 HD
ATOM     39  H11 UNL     1      12.454  -6.990  -7.713  1.00  0.00     0.155 HD
ENDBRANCH  35  36
ENDBRANCH  16  35
BRANCH  15  40
HETATM   40  O2  UNL     1      15.015  -4.468  -3.689  1.00  0.00    -0.360 OA
ATOM     41  H2  UNL     1      15.097  -5.149  -3.033  1.00  0.00     0.217 HD
ENDBRANCH  15  40
TORSDOF 9
ENDMDL