MODEL 4
REMARK VINA RESULT: -8.099104269      1.278      1.766
REMARK  9 active torsions:
REMARK  status: ('A' for Active; 'I' for Inactive)
REMARK    1  A    between atoms: C3_3  and  C4_4
REMARK    2  A    between atoms: C3_3  and  C9_14
REMARK    3  A    between atoms: C5_5  and  O1_6
REMARK    4  A    between atoms: C6_9  and  O3_10
REMARK    5  A    between atoms: C23_28  and  O4_29
REMARK    6  A    between atoms: O4_29  and  C24_30
REMARK    7  A    between atoms: C26_33  and  C27_34
REMARK    8  A    between atoms: C27_34  and  O6_35
REMARK    9  A    between atoms: C29_38  and  O7_39
ROOT
HETATM    1  C9  UNL     1      17.118  -6.954  -5.547  1.00  0.00    -0.037 C
HETATM    2  C10 UNL     1      17.866  -6.542  -4.334  1.00  0.00     0.038 C
HETATM    3  C11 UNL     1      17.600  -7.497  -3.146  1.00  0.00     0.009 C
HETATM    4  C12 UNL     1      18.596  -7.234  -2.034  1.00  0.00    -0.018 C
HETATM    5  C13 UNL     1      17.852  -6.946  -0.725  1.00  0.00     0.010 C
HETATM    6  C14 UNL     1      19.469  -8.470  -1.767  1.00  0.00     0.004 C
HETATM    7  C15 UNL     1      20.744  -8.461  -2.533  1.00  0.00     0.001 C
HETATM    8  C16 UNL     1      21.106  -9.855  -3.046  1.00  0.00     0.004 C
HETATM    9  C17 UNL     1      21.990  -9.719  -4.270  1.00  0.00     0.033 C
HETATM   10  C18 UNL     1      21.825 -10.811  -5.245  1.00  0.00    -0.087 C
HETATM   11  C19 UNL     1      21.677 -12.200  -4.690  1.00  0.00     0.043 C
HETATM   12  C20 UNL     1      21.790 -10.702  -6.555  1.00  0.00    -0.024 C
HETATM   13  C21 UNL     1      21.910  -9.436  -7.331  1.00  0.00     0.030 C
HETATM   14  C22 UNL     1      20.771  -9.279  -8.308  1.00  0.00     0.041 C
HETATM   15  C23 UNL     1      20.237  -7.873  -8.174  1.00  0.00     0.163 C
HETATM   16  C26 UNL     1      18.791  -7.803  -8.562  1.00  0.00    -0.029 C
HETATM   17  C28 UNL     1      17.743  -7.894  -7.795  1.00  0.00     0.016 C
HETATM   18  C29 UNL     1      17.604  -8.091  -6.340  1.00  0.00     0.171 C
ENDROOT
BRANCH   1  19
HETATM   19  C3  UNL     1      16.489  -5.821  -6.248  1.00  0.00    -0.019 C
HETATM   20  C2  UNL     1      17.271  -4.762  -6.573  1.00  0.00    -0.018 C
HETATM   21  C1  UNL     1      18.736  -4.742  -6.425  1.00  0.00     0.037 C
BRANCH  19  22
HETATM   22  C4  UNL     1      15.059  -5.613  -6.493  1.00  0.00     0.043 A
HETATM   23  C5  UNL     1      14.193  -6.553  -7.009  1.00  0.00     0.197 A
HETATM   24  O2  UNL     1      12.964  -6.033  -7.094  1.00  0.00    -0.264 OA
HETATM   25  C6  UNL     1      12.954  -4.831  -6.674  1.00  0.00     0.192 A
HETATM   26  C7  UNL     1      14.271  -4.500  -6.273  1.00  0.00     0.012 A
HETATM   27  C8  UNL     1      14.605  -3.179  -5.724  1.00  0.00     0.054 C
BRANCH  23  28
HETATM   28  O1  UNL     1      14.342  -7.864  -7.437  1.00  0.00    -0.340 OA
ATOM     29  H1  UNL     1      14.198  -8.710  -7.030  1.00  0.00     0.220 HD
ENDBRANCH  23  28
BRANCH  25  30
HETATM   30  O3  UNL     1      11.863  -4.008  -6.623  1.00  0.00    -0.340 OA
ATOM     31  H3  UNL     1      11.863  -3.099  -6.346  1.00  0.00     0.220 HD
ENDBRANCH  25  30
ENDBRANCH  19  22
ENDBRANCH   1  19
BRANCH  18  32
HETATM   32  O7  UNL     1      18.828  -8.522  -5.761  1.00  0.00    -0.387 OA
ATOM     33  H7  UNL     1      19.504  -8.429  -6.422  1.00  0.00     0.210 HD
ENDBRANCH  18  32
BRANCH  16  34
HETATM   34  C27 UNL     1      18.592  -7.606 -10.060  1.00  0.00     0.200 C
BRANCH  34  35
HETATM   35  O6  UNL     1      18.410  -6.232 -10.213  1.00  0.00    -0.397 OA
ATOM     36  H6  UNL     1      18.827  -5.850  -9.449  1.00  0.00     0.209 HD
ENDBRANCH  34  35
ENDBRANCH  16  34
BRANCH  15  37
HETATM   37  O4  UNL     1      21.000  -7.083  -9.095  1.00  0.00    -0.312 OA
BRANCH  37  38
HETATM   38  C24 UNL     1      21.456  -5.853  -8.681  1.00  0.00     0.255 C
HETATM   39  C25 UNL     1      22.543  -5.728  -7.640  1.00  0.00     0.126 C
HETATM   40  O5  UNL     1      21.031  -4.751  -9.109  1.00  0.00    -0.266 OA
ENDBRANCH  37  38
ENDBRANCH  15  37
TORSDOF 9
ENDMDL