MODEL 2
REMARK VINA RESULT: -10.561779225      0.974      1.279
REMARK  8 active torsions:
REMARK  status: ('A' for Active; 'I' for Inactive)
REMARK    1  A    between atoms: C5_5  and  O1_6
REMARK    2  A    between atoms: C11_13  and  O2_14
REMARK    3  A    between atoms: O2_14  and  O3_15
REMARK    4  A    between atoms: C12_18  and  O5_19
REMARK    5  A    between atoms: O5_19  and  C13_20
REMARK    6  A    between atoms: C16_23  and  N1_24
REMARK    7  A    between atoms: N1_24  and  C17_26
REMARK    8  A    between atoms: C23_32  and  O6_33
ROOT
HETATM    1  C1  UNL     1      19.967 -10.205  -0.371  1.00  0.00     0.016 C
HETATM    2  C2  UNL     1      19.392  -8.882   0.097  1.00  0.00    -0.033 C
HETATM    3  C3  UNL     1      19.598  -8.811   1.588  1.00  0.00     0.012 C
HETATM    4  C4  UNL     1      19.367  -7.465   2.187  1.00  0.00     0.032 C
HETATM    5  C5  UNL     1      20.076  -6.343   1.458  1.00  0.00     0.119 C
HETATM    6  C6  UNL     1      19.853  -6.431  -0.040  1.00  0.00     0.046 C
HETATM    7  C7  UNL     1      20.149  -7.782  -0.584  1.00  0.00    -0.011 C
HETATM    8  C8  UNL     1      21.641  -8.028  -0.517  1.00  0.00     0.021 C
HETATM    9  C9  UNL     1      19.789  -7.828  -2.034  1.00  0.00    -0.064 C
HETATM   10  C10 UNL     1      20.432  -7.971  -3.178  1.00  0.00     0.048 C
HETATM   11  C11 UNL     1      19.518  -7.942  -4.346  1.00  0.00     0.226 C
HETATM   12  O4  UNL     1      19.879  -7.040  -5.300  1.00  0.00    -0.318 OA
HETATM   13  C12 UNL     1      19.043  -5.938  -5.273  1.00  0.00     0.271 C
HETATM   14  C25 UNL     1      18.044  -6.119  -4.187  1.00  0.00     0.077 C
HETATM   15  C26 UNL     1      18.202  -7.563  -3.774  1.00  0.00     0.031 C
HETATM   16  C27 UNL     1      17.061  -8.389  -4.346  1.00  0.00     0.022 C
HETATM   17  C28 UNL     1      18.314  -7.669  -2.303  1.00  0.00     0.029 C
HETATM   18  C29 UNL     1      17.562  -8.783  -1.645  1.00  0.00     0.011 C
HETATM   19  C30 UNL     1      17.929  -8.833  -0.172  1.00  0.00     0.011 C
ENDROOT
BRANCH  13  20
HETATM   20  O5  UNL     1      18.357  -5.753  -6.472  1.00  0.00    -0.320 OA
BRANCH  20  21
HETATM   21  C13 UNL     1      17.008  -5.924  -6.662  1.00  0.00     0.074 A
HETATM   22  C14 UNL     1      16.567  -6.959  -7.509  1.00  0.00     0.039 A
HETATM   23  C15 UNL     1      15.225  -7.123  -7.692  1.00  0.00     0.035 A
HETATM   24  C16 UNL     1      14.271  -6.332  -7.095  1.00  0.00     0.062 A
HETATM   25  C23 UNL     1      14.704  -5.323  -6.269  1.00  0.00     0.094 A
HETATM   26  C24 UNL     1      16.052  -5.135  -6.065  1.00  0.00     0.075 A
BRANCH  24  27
HETATM   27  N1  UNL     1      12.897  -6.535  -7.275  1.00  0.00    -0.383 N
ATOM     28  H1  UNL     1      12.517  -7.478  -7.194  1.00  0.00     0.160 HD
BRANCH  27  29
HETATM   29  C17 UNL     1      12.011  -5.440  -7.573  1.00  0.00     0.081 C
HETATM   30  C18 UNL     1      10.603  -5.842  -7.294  1.00  0.00     0.025 C
HETATM   31  C19 UNL     1      10.233  -6.959  -8.284  1.00  0.00     0.002 C
HETATM   32  C20 UNL     1      10.313  -6.363  -9.664  1.00  0.00     0.000 C
HETATM   33  C21 UNL     1      11.725  -5.904  -9.986  1.00  0.00     0.002 C
HETATM   34  C22 UNL     1      12.242  -4.932  -8.978  1.00  0.00     0.025 C
ENDBRANCH  27  29
ENDBRANCH  24  27
BRANCH  25  35
HETATM   35  O6  UNL     1      13.773  -4.513  -5.654  1.00  0.00    -0.358 OA
ATOM     36  H6  UNL     1      13.752  -3.587  -5.868  1.00  0.00     0.217 HD
ENDBRANCH  25  35
ENDBRANCH  20  21
ENDBRANCH  13  20
BRANCH  11  37
HETATM   37  O2  UNL     1      19.367  -9.240  -4.884  1.00  0.00    -0.198 OA
BRANCH  37  38
HETATM   38  O3  UNL     1      20.553  -9.652  -5.265  1.00  0.00    -0.247 OA
ATOM     39  H3  UNL     1      20.509 -10.595  -5.369  1.00  0.00     0.253 HD
ENDBRANCH  37  38
ENDBRANCH  11  37
BRANCH   5  40
HETATM   40  O1  UNL     1      21.407  -6.309   1.800  1.00  0.00    -0.396 OA
ATOM     41  H1  UNL     1      21.939  -6.688   1.111  1.00  0.00     0.210 HD
ENDBRANCH   5  40
TORSDOF 8
ENDMDL