MODEL 3
REMARK VINA RESULT: -10.024008695      2.150      7.791
REMARK  10 active torsions:
REMARK  status: ('A' for Active; 'I' for Inactive)
REMARK    1  A    between atoms: C2_2  and  C3_3
REMARK    2  A    between atoms: C2_2  and  C27_37
REMARK    3  A    between atoms: C3_3  and  C4_4
REMARK    4  A    between atoms: C4_4  and  C5_5
REMARK    5  A    between atoms: C11_11  and  O1_12
REMARK    6  A    between atoms: O1_12  and  C12_13
REMARK    7  A    between atoms: C16_18  and  C17_19
REMARK    8  A    between atoms: C18_21  and  O4_22
REMARK    9  A    between atoms: C20_25  and  O5_26
REMARK   10  A    between atoms: C26_34  and  O7_35
ROOT
HETATM    1  C5  UNL     1      15.722  -5.849  -6.487  1.00  0.00     0.014 C
HETATM    2  C6  UNL     1      15.724  -7.031  -5.569  1.00  0.00     0.009 C
HETATM    3  C7  UNL     1      16.452  -6.537  -4.315  1.00  0.00     0.011 C
HETATM    4  C8  UNL     1      17.324  -7.563  -3.731  1.00  0.00    -0.029 C
HETATM    5  C9  UNL     1      16.483  -8.455  -2.882  1.00  0.00     0.016 C
HETATM    6  C10 UNL     1      18.417  -6.822  -2.936  1.00  0.00     0.056 C
HETATM    7  C11 UNL     1      19.139  -7.986  -2.373  1.00  0.00     0.139 C
HETATM    8  C14 UNL     1      19.127  -8.942  -3.580  1.00  0.00     0.042 C
HETATM    9  C15 UNL     1      18.300  -8.273  -4.648  1.00  0.00     0.041 C
HETATM   10  C16 UNL     1      19.056  -7.161  -5.301  1.00  0.00     0.149 C
HETATM   11  O6  UNL     1      18.497  -6.512  -6.365  1.00  0.00    -0.334 OA
HETATM   12  C21 UNL     1      17.956  -6.445  -7.554  1.00  0.00     0.050 C
HETATM   13  C22 UNL     1      18.439  -6.636  -8.795  1.00  0.00    -0.058 C
HETATM   14  C23 UNL     1      17.528  -6.478  -9.985  1.00  0.00     0.045 C
HETATM   15  C24 UNL     1      19.816  -6.963  -9.125  1.00  0.00     0.045 C
HETATM   16  C25 UNL     1      16.487  -6.080  -7.687  1.00  0.00     0.073 C
HETATM   17  C26 UNL     1      19.240  -6.238  -4.072  1.00  0.00     0.167 C
ENDROOT
BRANCH  10  18
HETATM   18  C17 UNL     1      20.470  -7.531  -5.673  1.00  0.00     0.127 A
HETATM   19  O3  UNL     1      21.048  -8.669  -5.563  1.00  0.00    -0.286 OA
HETATM   20  C18 UNL     1      22.276  -8.637  -5.983  1.00  0.00     0.186 A
HETATM   21  C19 UNL     1      22.556  -7.365  -6.417  1.00  0.00     0.103 A
HETATM   22  C20 UNL     1      21.361  -6.649  -6.209  1.00  0.00     0.103 A
BRANCH  20  23
HETATM   23  O4  UNL     1      23.214  -9.661  -6.023  1.00  0.00    -0.341 OA
ATOM     24  H4  UNL     1      23.536 -10.148  -6.773  1.00  0.00     0.220 HD
ENDBRANCH  20  23
BRANCH  22  25
HETATM   25  O5  UNL     1      21.208  -5.283  -6.534  1.00  0.00    -0.358 OA
ATOM     26  H5  UNL     1      21.777  -4.702  -7.024  1.00  0.00     0.217 HD
ENDBRANCH  22  25
ENDBRANCH  10  18
BRANCH  17  27
HETATM   27  O7  UNL     1      20.568  -6.124  -3.664  1.00  0.00    -0.392 OA
ATOM     28  H7  UNL     1      21.088  -5.790  -4.385  1.00  0.00     0.210 HD
ENDBRANCH  17  27
BRANCH   7  29
HETATM   29  O1  UNL     1      18.500  -8.566  -1.243  1.00  0.00    -0.316 OA
BRANCH  29  30
HETATM   30  C12 UNL     1      19.150  -8.761  -0.042  1.00  0.00     0.255 C
HETATM   31  C13 UNL     1      20.321  -9.651   0.046  1.00  0.00     0.126 C
HETATM   32  O2  UNL     1      18.704  -8.149   0.971  1.00  0.00    -0.266 OA
ENDBRANCH  29  30
ENDBRANCH   7  29
BRANCH   1  33
HETATM   33  C4  UNL     1      14.227  -5.550  -6.871  1.00  0.00    -0.021 C
BRANCH  33  34
HETATM   34  C3  UNL     1      13.701  -6.318  -7.652  1.00  0.00     0.007 C
BRANCH  34  35
HETATM   35  C2  UNL     1      11.974  -6.259  -8.002  1.00  0.00    -0.046 C
HETATM   36  C1  UNL     1      11.832  -7.203  -7.217  1.00  0.00     0.023 C
BRANCH  35  37
HETATM   37  C27 UNL     1      12.138  -5.179  -8.900  1.00  0.00     0.012 C
HETATM   38  C28 UNL     1      11.242  -5.224  -9.963  1.00  0.00    -0.087 C
HETATM   39  C29 UNL     1      11.316  -4.143 -10.956  1.00  0.00     0.043 C
HETATM   40  C30 UNL     1      10.321  -6.352 -10.030  1.00  0.00     0.043 C
ENDBRANCH  35  37
ENDBRANCH  34  35
ENDBRANCH  33  34
ENDBRANCH   1  33
TORSDOF 10
ENDMDL