MODEL 4
REMARK VINA RESULT: -9.262151188      3.453      5.115
REMARK  7 active torsions:
REMARK  status: ('A' for Active; 'I' for Inactive)
REMARK    1  A    between atoms: C11_11  and  C12_12
REMARK    2  A    between atoms: C12_12  and  O1_14
REMARK    3  A    between atoms: C12_12  and  C14_16
REMARK    4  A    between atoms: C14_16  and  C15_17
REMARK    5  A    between atoms: C16_18  and  C17_19
REMARK    6  A    between atoms: C19_24  and  O3_25
REMARK    7  A    between atoms: C28_35  and  O4_36
ROOT
HETATM    1  C1  UNL     1      12.335  -4.852  -6.947  1.00  0.00     0.012 C
HETATM    2  C2  UNL     1      13.858  -5.080  -6.937  1.00  0.00     0.010 C
HETATM    3  C3  UNL     1      14.389  -4.514  -5.679  1.00  0.00     0.007 C
HETATM    4  C4  UNL     1      15.569  -5.169  -5.070  1.00  0.00     0.006 C
HETATM    5  C5  UNL     1      16.683  -5.535  -5.990  1.00  0.00    -0.006 C
HETATM    6  C6  UNL     1      16.923  -4.461  -6.959  1.00  0.00     0.005 C
HETATM    7  C7  UNL     1      18.401  -4.077  -6.989  1.00  0.00     0.001 C
HETATM    8  C8  UNL     1      18.975  -4.653  -8.252  1.00  0.00     0.005 C
HETATM    9  C9  UNL     1      19.496  -6.025  -8.152  1.00  0.00    -0.002 C
HETATM   10  C10 UNL     1      20.421  -6.109  -6.971  1.00  0.00     0.042 C
HETATM   11  C11 UNL     1      19.888  -6.980  -5.882  1.00  0.00    -0.049 C
HETATM   12  C20 UNL     1      18.736  -7.607  -5.922  1.00  0.00    -0.015 C
HETATM   13  C21 UNL     1      17.769  -7.537  -7.090  1.00  0.00     0.025 C
HETATM   14  C22 UNL     1      18.541  -7.175  -8.262  1.00  0.00    -0.036 C
HETATM   15  C23 UNL     1      17.806  -7.049  -9.568  1.00  0.00     0.016 C
HETATM   16  C24 UNL     1      19.487  -8.385  -8.514  1.00  0.00     0.016 C
HETATM   17  C25 UNL     1      16.533  -6.930  -6.595  1.00  0.00    -0.030 C
HETATM   18  C26 UNL     1      16.237  -7.793  -5.340  1.00  0.00     0.016 C
HETATM   19  C27 UNL     1      15.329  -7.052  -7.450  1.00  0.00     0.042 C
HETATM   20  C28 UNL     1      14.037  -6.597  -6.940  1.00  0.00     0.122 C
ENDROOT
BRANCH  11  21
HETATM   21  C12 UNL     1      20.759  -7.136  -4.656  1.00  0.00     0.080 C
HETATM   22  C13 UNL     1      19.915  -7.417  -3.458  1.00  0.00     0.051 C
BRANCH  21  23
HETATM   23  O1  UNL     1      21.489  -5.978  -4.407  1.00  0.00    -0.385 OA
ATOM     24  H1  UNL     1      22.236  -5.911  -4.991  1.00  0.00     0.211 HD
ENDBRANCH  21  23
BRANCH  21  25
HETATM   25  C14 UNL     1      21.781  -8.246  -4.906  1.00  0.00     0.069 C
BRANCH  25  26
HETATM   26  C15 UNL     1      21.417  -9.497  -4.272  1.00  0.00    -0.022 C
HETATM   27  C16 UNL     1      21.478 -10.734  -4.493  1.00  0.00     0.020 C
BRANCH  27  28
HETATM   28  C17 UNL     1      21.990 -11.532  -5.573  1.00  0.00     0.066 A
HETATM   29  S1  UNL     1      21.579 -11.278  -7.274  1.00  0.00    -0.048 SA
HETATM   30  C18 UNL     1      22.462 -12.574  -7.928  1.00  0.00     0.187 A
HETATM   31  S2  UNL     1      22.605 -13.040  -9.514  1.00  0.00    -0.044 SA
HETATM   32  O2  UNL     1      22.981 -13.089  -6.888  1.00  0.00    -0.268 OA
HETATM   33  C19 UNL     1      22.783 -12.623  -5.728  1.00  0.00     0.202 A
BRANCH  33  34
HETATM   34  O3  UNL     1      23.407 -13.279  -4.625  1.00  0.00    -0.340 OA
ATOM     35  H3  UNL     1      24.246 -13.717  -4.701  1.00  0.00     0.220 HD
ENDBRANCH  33  34
ENDBRANCH  27  28
ENDBRANCH  25  26
ENDBRANCH  21  25
ENDBRANCH  11  21
BRANCH  20  36
HETATM   36  O4  UNL     1      13.065  -7.040  -7.883  1.00  0.00    -0.395 OA
ATOM     37  H4  UNL     1      12.354  -7.349  -7.335  1.00  0.00     0.210 HD
ENDBRANCH  20  36
TORSDOF 7
ENDMDL