MODEL 5
REMARK VINA RESULT: -7.635028074      2.287      5.631
REMARK  5 active torsions:
REMARK  status: ('A' for Active; 'I' for Inactive)
REMARK    1  A    between atoms: C3_7  and  N4_8
REMARK    2  A    between atoms: N4_8  and  O1_9
REMARK       I    between atoms: N4_8  and  C4_11
REMARK       I    between atoms: C4_11  and  N6_13
REMARK    3  A    between atoms: N6_13  and  O2_15
REMARK    4  A    between atoms: C5_17  and  C6_18
REMARK       I    between atoms: C6_18  and  N7_20
REMARK    5  A    between atoms: N7_20  and  N8_22
ROOT
HETATM    1  C1  UNL     1      63.381  52.202  25.986  1.00  0.00     0.178 C
HETATM    2  N1  UNL     1      62.734  52.246  24.684  1.00  0.00    -0.288 N
HETATM    3  N2  UNL     1      63.410  52.550  23.578  1.00  0.00    -0.284 N
ATOM      4  H2  UNL     1      64.401  52.793  23.562  1.00  0.00     0.188 HD
HETATM    5  C2  UNL     1      62.651  52.501  22.513  1.00  0.00     0.157 A
HETATM    6  N3  UNL     1      63.103  52.773  21.193  1.00  0.00    -0.079 NA
HETATM    7  C3  UNL     1      61.369  52.135  22.960  1.00  0.00     0.121 A
HETATM    8  C5  UNL     1      61.463  51.984  24.328  1.00  0.00     0.147 A
ENDROOT
BRANCH   8   9
HETATM    9  C6  UNL     1      60.400  51.649  25.301  1.00  0.00     0.290 C
HETATM   10  O3  UNL     1      60.704  51.143  26.393  1.00  0.00    -0.264 OA
HETATM   11  N7  UNL     1      59.060  51.897  24.988  1.00  0.00    -0.249 N
ATOM     12  H7  UNL     1      58.896  52.302  24.067  1.00  0.00     0.191 HD
BRANCH  11  13
HETATM   13  N8  UNL     1      57.919  51.674  25.746  1.00  0.00    -0.148 N
HETATM   14  C7  UNL     1      57.003  50.714  25.401  1.00  0.00     0.364 A
HETATM   15  O4  UNL     1      57.037  49.932  24.418  1.00  0.00    -0.243 OA
HETATM   16  N9  UNL     1      56.016  50.726  26.304  1.00  0.00    -0.246 N
HETATM   17  N10 UNL     1      56.244  51.641  27.215  1.00  0.00    -0.246 N
ATOM     18  H9  UNL     1      55.202  50.110  26.288  1.00  0.00     0.192 HD
HETATM   19  C8  UNL     1      57.434  52.220  26.849  1.00  0.00     0.364 A
ATOM     20  H10 UNL     1      55.664  51.873  28.021  1.00  0.00     0.192 HD
HETATM   21  O5  UNL     1      57.892  53.139  27.556  1.00  0.00    -0.243 OA
ENDBRANCH  11  13
ENDBRANCH   8   9
BRANCH   7  22
HETATM   22  N4  UNL     1      60.302  52.005  22.087  1.00  0.00    -0.093 NA
HETATM   23  C4  UNL     1      59.648  53.253  21.797  1.00  0.00     0.217 C
HETATM   24  N5  UNL     1      59.144  53.444  20.490  1.00  0.00    -0.065 NA
HETATM   25  N6  UNL     1      59.498  54.189  22.653  1.00  0.00    -0.244 N
ATOM     26  H6  UNL     1      59.855  54.063  23.600  1.00  0.00     0.196 HD
BRANCH  22  27
HETATM   27  O1  UNL     1      59.372  51.107  22.317  1.00  0.00    -0.301 OA
ATOM     28  H1  UNL     1      58.610  51.057  21.751  1.00  0.00     0.238 HD
ENDBRANCH  22  27
BRANCH  25  29
HETATM   29  O2  UNL     1      58.873  55.346  22.328  1.00  0.00    -0.288 OA
ATOM     30  H2  UNL     1      58.050  55.592  22.733  1.00  0.00     0.244 HD
ENDBRANCH  25  29
ENDBRANCH   7  22
TORSDOF 5
ENDMDL