MODEL 1
REMARK VINA RESULT: -7.231730096      0.000      0.000
REMARK  9 active torsions:
REMARK  status: ('A' for Active; 'I' for Inactive)
REMARK    1  A    between atoms: C5_11  and  C6_12
REMARK       I    between atoms: C6_12  and  N5_14
REMARK    2  A    between atoms: N5_14  and  C7_16
REMARK    3  A    between atoms: C7_16  and  C8_17
REMARK    4  A    between atoms: C7_16  and  C9_20
REMARK    5  A    between atoms: C8_17  and  O2_18
REMARK    6  A    between atoms: C9_20  and  O3_21
REMARK    7  A    between atoms: C9_20  and  O4_23
REMARK    8  A    between atoms: C11_28  and  N7_29
REMARK    9  A    between atoms: N7_29  and  N8_31
ROOT
HETATM    1  C1  UNL     1      58.293  60.683  22.513  1.00  0.00     0.158 C
HETATM    2  N1  UNL     1      58.529  59.295  22.123  1.00  0.00    -0.331 N
HETATM    3  C2  UNL     1      59.522  59.077  21.208  1.00  0.00     0.185 A
HETATM    4  N2  UNL     1      59.832  57.853  20.774  1.00  0.00    -0.336 N
ATOM      5  H2  UNL     1      60.579  57.731  20.091  1.00  0.00     0.168 HD
HETATM    6  C3  UNL     1      59.165  56.783  21.231  1.00  0.00     0.138 A
HETATM    7  N3  UNL     1      59.474  55.526  20.794  1.00  0.00    -0.327 N
ATOM      8  H3  UNL     1      60.217  55.375  20.112  1.00  0.00     0.168 HD
HETATM    9  C4  UNL     1      58.767  54.487  21.291  1.00  0.00     0.150 A
HETATM   10  N4  UNL     1      59.017  53.146  20.895  1.00  0.00    -0.080 NA
HETATM   11  C5  UNL     1      57.763  54.691  22.213  1.00  0.00     0.143 A
HETATM   12  N6  UNL     1      57.476  55.948  22.631  1.00  0.00    -0.343 N
ATOM     13  H6  UNL     1      56.733  56.103  23.312  1.00  0.00     0.166 HD
HETATM   14  C10 UNL     1      58.173  56.993  22.144  1.00  0.00     0.123 A
HETATM   15  C11 UNL     1      57.825  58.278  22.619  1.00  0.00     0.153 A
ENDROOT
BRANCH  11  16
HETATM   16  C6  UNL     1      57.018  53.549  22.731  1.00  0.00     0.272 C
HETATM   17  O1  UNL     1      55.820  53.367  22.378  1.00  0.00    -0.266 OA
HETATM   18  N5  UNL     1      57.619  52.635  23.630  1.00  0.00    -0.344 N
ATOM     19  H5  UNL     1      58.588  52.792  23.908  1.00  0.00     0.163 HD
BRANCH  18  20
HETATM   20  C7  UNL     1      56.932  51.502  24.164  1.00  0.00     0.163 C
BRANCH  20  21
HETATM   21  C8  UNL     1      56.096  51.877  25.395  1.00  0.00     0.194 C
BRANCH  21  22
HETATM   22  O2  UNL     1      55.071  50.984  25.615  1.00  0.00    -0.399 OA
ATOM     23  H2  UNL     1      54.239  51.309  25.289  1.00  0.00     0.209 HD
ENDBRANCH  21  22
ENDBRANCH  20  21
BRANCH  20  24
HETATM   24  C9  UNL     1      57.879  50.388  24.596  1.00  0.00     0.278 C
BRANCH  24  25
HETATM   25  O3  UNL     1      57.718  50.103  25.938  1.00  0.00    -0.369 OA
ATOM     26  H3  UNL     1      57.739  49.165  26.087  1.00  0.00     0.212 HD
ENDBRANCH  24  25
BRANCH  24  27
HETATM   27  O4  UNL     1      57.759  49.267  23.801  1.00  0.00    -0.369 OA
ATOM     28  H4  UNL     1      58.595  48.838  23.660  1.00  0.00     0.212 HD
ENDBRANCH  24  27
ENDBRANCH  20  24
ENDBRANCH  18  20
ENDBRANCH  11  16
BRANCH  15  29
HETATM   29  N7  UNL     1      56.887  58.363  23.467  1.00  0.00    -0.290 N
ATOM     30  H7  UNL     1      55.940  58.295  23.094  1.00  0.00     0.188 HD
BRANCH  29  31
HETATM   31  N8  UNL     1      56.987  58.531  24.801  1.00  0.00    -0.344 N
ATOM     32  H82 UNL     1      57.913  58.804  25.130  1.00  0.00     0.176 HD
ATOM     33  H81 UNL     1      56.257  58.419  25.504  1.00  0.00     0.176 HD
ENDBRANCH  29  31
ENDBRANCH  15  29
TORSDOF 9
ENDMDL