MODEL 4
REMARK VINA RESULT: -6.952577441      1.861      5.885
REMARK  8 active torsions:
REMARK  status: ('A' for Active; 'I' for Inactive)
REMARK    1  A    between atoms: N1_2  and  C2_4
REMARK    2  A    between atoms: C3_12  and  N6_13
REMARK    3  A    between atoms: N6_13  and  C4_15
REMARK    4  A    between atoms: N10_22  and  C5_23
REMARK    5  A    between atoms: C5_23  and  C6_24
REMARK    6  A    between atoms: C6_24  and  O1_25
REMARK    7  A    between atoms: C6_24  and  C7_27
REMARK    8  A    between atoms: C7_27  and  O2_28
ROOT
HETATM    1  C2  UNL     1      55.353  52.223  24.399  1.00  0.00     0.142 A
HETATM    2  N2  UNL     1      55.026  53.486  24.095  1.00  0.00    -0.260 N
ATOM      3  H2  UNL     1      54.166  53.956  24.376  1.00  0.00     0.191 HD
HETATM    4  N3  UNL     1      56.004  54.033  23.365  1.00  0.00    -0.161 N
HETATM    5  N4  UNL     1      56.088  55.249  22.833  1.00  0.00    -0.205 N
ATOM      6  H4  UNL     1      55.327  55.911  22.987  1.00  0.00     0.211 HD
HETATM    7  N5  UNL     1      57.112  55.616  22.122  1.00  0.00    -0.115 N
ATOM      8  H5  UNL     1      57.160  56.553  21.720  1.00  0.00     0.207 HD
HETATM    9  C3  UNL     1      58.115  54.727  21.925  1.00  0.00     0.716 A
HETATM   10  N10 UNL     1      58.108  53.481  22.432  1.00  0.00    -0.159 N
HETATM   11  C8  UNL     1      57.005  53.153  23.167  1.00  0.00     0.189 A
HETATM   12  C9  UNL     1      56.604  52.007  23.813  1.00  0.00     0.137 A
HETATM   13  C10 UNL     1      57.298  50.742  23.878  1.00  0.00     0.107 C
HETATM   14  N11 UNL     1      57.844  49.696  23.935  1.00  0.00    -0.191 NA
ENDROOT
BRANCH   1  15
HETATM   15  N1  UNL     1      54.655  51.422  25.076  1.00  0.00    -0.378 N
HETATM   16  C1  UNL     1      53.266  51.281  25.228  1.00  0.00     0.147 C
ATOM     17  H1  UNL     1      55.201  50.749  25.616  1.00  0.00     0.160 HD
ENDBRANCH   1  15
BRANCH  10  18
HETATM   18  C5  UNL     1      59.183  52.528  22.281  1.00  0.00     0.183 C
BRANCH  18  19
HETATM   19  C6  UNL     1      60.365  52.669  23.143  1.00  0.00     0.160 C
BRANCH  19  20
HETATM   20  O1  UNL     1      60.512  51.441  23.872  1.00  0.00    -0.392 OA
ATOM     21  H1  UNL     1      61.421  51.379  24.142  1.00  0.00     0.210 HD
ENDBRANCH  19  20
BRANCH  19  22
HETATM   22  C7  UNL     1      61.712  52.887  22.489  1.00  0.00     0.197 C
BRANCH  22  23
HETATM   23  O2  UNL     1      61.640  53.410  21.220  1.00  0.00    -0.398 OA
ATOM     24  H2  UNL     1      62.455  53.360  20.735  1.00  0.00     0.209 HD
ENDBRANCH  22  23
ENDBRANCH  19  22
ENDBRANCH  18  19
ENDBRANCH  10  18
BRANCH   9  25
HETATM   25  N6  UNL     1      59.119  55.075  21.162  1.00  0.00    -0.018 N
ATOM     26  H6  UNL     1      59.666  54.357  20.686  1.00  0.00     0.203 HD
BRANCH  25  27
HETATM   27  C4  UNL     1      59.448  56.429  20.993  1.00  0.00     0.728 A
HETATM   28  N7  UNL     1      59.788  57.444  21.829  1.00  0.00    -0.115 N
HETATM   29  N8  UNL     1      59.884  58.225  20.774  1.00  0.00    -0.214 N
ATOM     30  H7  UNL     1      59.913  57.552  22.836  1.00  0.00     0.207 HD
HETATM   31  N9  UNL     1      59.555  57.252  19.942  1.00  0.00    -0.115 N
ATOM     32  H8  UNL     1      60.123  59.208  20.647  1.00  0.00     0.209 HD
ATOM     33  H9  UNL     1      59.434  57.166  18.932  1.00  0.00     0.207 HD
ENDBRANCH  25  27
ENDBRANCH   9  25
TORSDOF 8
ENDMDL