MODEL 1
REMARK VINA RESULT: -8.485094146      0.000      0.000
REMARK  6 active torsions:
REMARK  status: ('A' for Active; 'I' for Inactive)
REMARK    1  A    between atoms: N1_1  and  C1_4
REMARK    2  A    between atoms: N5_11  and  C2_12
REMARK    3  A    between atoms: C2_12  and  C3_13
REMARK       I    between atoms: C3_13  and  N6_15
REMARK    4  A    between atoms: N6_15  and  N7_17
REMARK       I    between atoms: N7_17  and  C4_19
REMARK    5  A    between atoms: C4_19  and  C5_21
REMARK    6  A    between atoms: N10_27  and  C7_29
ROOT
HETATM    1  N7  UNL     1      57.791  59.707  22.960  1.00  0.00    -0.260 N
ATOM      2  H7  UNL     1      58.765  59.586  22.680  1.00  0.00     0.190 HD
HETATM    3  C4  UNL     1      56.881  58.596  22.830  1.00  0.00     0.312 C
HETATM    4  O2  UNL     1      55.684  58.700  23.160  1.00  0.00    -0.262 OA
ENDROOT
BRANCH   3   5
HETATM    5  C5  UNL     1      57.400  57.345  22.300  1.00  0.00     0.236 A
HETATM    6  N8  UNL     1      58.327  57.158  21.348  1.00  0.00    -0.272 N
HETATM    7  N9  UNL     1      58.500  55.860  21.174  1.00  0.00    -0.262 N
ATOM      8  H8  UNL     1      58.817  57.895  20.843  1.00  0.00     0.189 HD
HETATM    9  C6  UNL     1      57.668  55.224  22.030  1.00  0.00     0.260 A
ATOM     10  H9  UNL     1      59.143  55.420  20.517  1.00  0.00     0.190 HD
HETATM   11  N10 UNL     1      57.505  53.966  22.198  1.00  0.00    -0.152 N
HETATM   12  O3  UNL     1      57.034  56.162  22.678  1.00  0.00    -0.254 OA
ATOM     13  H10 UNL     1      58.063  53.331  21.627  1.00  0.00     0.188 HD
BRANCH  11  14
HETATM   14  C7  UNL     1      56.601  53.404  23.127  1.00  0.00     0.701 A
HETATM   15  N11 UNL     1      56.669  52.238  23.775  1.00  0.00    -0.185 N
HETATM   16  C8  UNL     1      55.566  52.103  24.576  1.00  0.00     0.215 A
ATOM     17  H11 UNL     1      57.423  51.556  23.687  1.00  0.00     0.185 HD
HETATM   18  N12 UNL     1      54.836  53.213  24.395  1.00  0.00    -0.281 N
HETATM   19  N13 UNL     1      55.460  53.999  23.521  1.00  0.00    -0.131 N
ATOM     20  H12 UNL     1      53.949  53.421  24.853  1.00  0.00     0.188 HD
ATOM     21  H13 UNL     1      55.126  54.907  23.200  1.00  0.00     0.205 HD
ENDBRANCH  11  14
ENDBRANCH   3   5
BRANCH   1  22
HETATM   22  N6  UNL     1      57.378  60.941  23.459  1.00  0.00    -0.266 N
HETATM   23  C3  UNL     1      56.998  61.943  22.528  1.00  0.00     0.256 C
HETATM   24  O1  UNL     1      57.018  61.761  21.301  1.00  0.00    -0.270 OA
ATOM     25  H6  UNL     1      57.350  61.119  24.463  1.00  0.00     0.190 HD
BRANCH  23  26
HETATM   26  C2  UNL     1      56.559  63.257  23.067  1.00  0.00     0.274 C
BRANCH  26  27
HETATM   27  N5  UNL     1      57.100  64.336  22.268  1.00  0.00    -0.098 N
HETATM   28  C1  UNL     1      56.608  65.607  22.242  1.00  0.00     0.710 A
HETATM   29  N2  UNL     1      57.327  66.363  21.402  1.00  0.00    -0.115 N
HETATM   30  N3  UNL     1      58.253  65.559  20.915  1.00  0.00    -0.213 N
ATOM     31  H2  UNL     1      57.188  67.351  21.184  1.00  0.00     0.207 HD
HETATM   32  N4  UNL     1      58.115  64.352  21.432  1.00  0.00    -0.211 N
ATOM     33  H3  UNL     1      58.968  65.829  20.240  1.00  0.00     0.210 HD
ATOM     34  H4  UNL     1      58.709  63.551  21.216  1.00  0.00     0.210 HD
BRANCH  28  35
HETATM   35  N1  UNL     1      55.604  66.037  22.920  1.00  0.00    -0.232 N
ATOM     36  H12 UNL     1      55.517  66.968  23.330  1.00  0.00     0.174 HD
ATOM     37  H11 UNL     1      54.771  65.485  23.122  1.00  0.00     0.174 HD
ENDBRANCH  28  35
ENDBRANCH  26  27
ENDBRANCH  23  26
ENDBRANCH   1  22
TORSDOF 6
ENDMDL