MODEL 2
REMARK VINA RESULT: -7.311349267      8.236     10.262
REMARK  8 active torsions:
REMARK  status: ('A' for Active; 'I' for Inactive)
REMARK    1  A    between atoms: N1_1  and  C1_4
REMARK    2  A    between atoms: C2_7  and  S1_8
REMARK    3  A    between atoms: S1_8  and  C3_9
REMARK    4  A    between atoms: C3_9  and  C4_10
REMARK       I    between atoms: N5_18  and  C6_19
REMARK    5  A    between atoms: C6_19  and  C7_21
REMARK    6  A    between atoms: C7_21  and  N6_22
REMARK    7  A    between atoms: C7_21  and  N7_26
REMARK    8  A    between atoms: N7_26  and  N8_27
ROOT
HETATM    1  C1  UNL     1      60.228  52.652  23.650  1.00  0.00     0.132 A
HETATM    2  N2  UNL     1      61.235  52.217  24.422  1.00  0.00    -0.321 N
ATOM      3  H2  UNL     1      62.191  52.447  24.154  1.00  0.00     0.169 HD
HETATM    4  C2  UNL     1      61.033  51.490  25.535  1.00  0.00     0.147 A
HETATM    5  N3  UNL     1      59.783  51.189  25.885  1.00  0.00    -0.320 N
ATOM      6  H3  UNL     1      59.621  50.637  26.727  1.00  0.00     0.169 HD
HETATM    7  C5  UNL     1      58.735  51.591  25.160  1.00  0.00     0.153 A
HETATM    8  N4  UNL     1      57.483  51.280  25.526  1.00  0.00    -0.270 N
ATOM      9  H4  UNL     1      57.353  50.727  26.373  1.00  0.00     0.189 HD
HETATM   10  N5  UNL     1      56.394  51.655  24.840  1.00  0.00    -0.167 N
HETATM   11  C6  UNL     1      55.094  51.313  25.285  1.00  0.00     0.295 C
HETATM   12  O3  UNL     1      55.049  50.675  26.396  1.00  0.00    -0.267 OA
HETATM   13  C8  UNL     1      56.627  52.377  23.738  1.00  0.00     0.349 A
HETATM   14  O4  UNL     1      55.697  52.798  23.001  1.00  0.00    -0.245 OA
HETATM   15  N9  UNL     1      57.877  52.725  23.314  1.00  0.00    -0.301 N
ATOM     16  H9  UNL     1      58.002  53.279  22.466  1.00  0.00     0.171 HD
HETATM   17  C9  UNL     1      58.932  52.332  24.026  1.00  0.00     0.126 A
ENDROOT
BRANCH  11  18
HETATM   18  C7  UNL     1      53.826  51.606  24.627  1.00  0.00     0.388 C
BRANCH  18  19
HETATM   19  N6  UNL     1      53.649  50.562  23.585  1.00  0.00    -0.051 N
ATOM     20  H63 UNL     1      54.479  49.987  23.443  1.00  0.00     0.276 HD
ATOM     21  H62 UNL     1      53.023  49.809  23.869  1.00  0.00     0.276 HD
ATOM     22  H61 UNL     1      53.343  51.050  22.743  1.00  0.00     0.276 HD
ENDBRANCH  18  19
BRANCH  18  23
HETATM   23  N7  UNL     1      52.744  51.376  25.613  1.00  0.00    -0.105 NA
BRANCH  23  24
HETATM   24  N8  UNL     1      51.690  52.204  25.209  1.00  0.00    -0.346 N
ATOM     25  H82 UNL     1      51.737  52.953  24.518  1.00  0.00     0.172 HD
ATOM     26  H81 UNL     1      50.882  51.898  25.750  1.00  0.00     0.172 HD
ENDBRANCH  23  24
ENDBRANCH  18  23
ENDBRANCH  11  18
BRANCH   4  27
HETATM   27  S1  UNL     1      62.408  50.923  26.542  1.00  0.00    -0.083 SA
BRANCH  27  28
HETATM   28  C3  UNL     1      63.939  51.122  25.595  1.00  0.00     0.195 C
BRANCH  28  29
HETATM   29  C4  UNL     1      64.304  52.525  25.403  1.00  0.00     0.182 C
HETATM   30  O1  UNL     1      63.835  53.378  26.203  1.00  0.00    -0.647 OA
HETATM   31  O2  UNL     1      65.137  52.922  24.382  1.00  0.00    -0.647 OA
ENDBRANCH  28  29
ENDBRANCH  27  28
ENDBRANCH   4  27
BRANCH   1  32
HETATM   32  N1  UNL     1      60.378  53.345  22.584  1.00  0.00    -0.383 N
ATOM     33  H12 UNL     1      61.147  53.092  21.963  1.00  0.00     0.157 HD
ATOM     34  H11 UNL     1      59.783  54.130  22.316  1.00  0.00     0.157 HD
ENDBRANCH   1  32
TORSDOF 8
ENDMDL