MODEL 4
REMARK VINA RESULT: -7.013736181      5.673      7.781
REMARK  7 active torsions:
REMARK  status: ('A' for Active; 'I' for Inactive)
REMARK    1  A    between atoms: N1_2  and  S1_4
REMARK    2  A    between atoms: S1_4  and  O3_7
REMARK    3  A    between atoms: O3_7  and  C2_8
REMARK    4  A    between atoms: C2_8  and  C3_10
REMARK    5  A    between atoms: C3_10  and  N2_11
REMARK    6  A    between atoms: C3_10  and  C4_15
REMARK    7  A    between atoms: C5_21  and  N6_22
REMARK       I    between atoms: N8_27  and  C6_28
ROOT
HETATM    1  C4  UNL     1      57.314  52.912  24.269  1.00  0.00     0.116 A
HETATM    2  N3  UNL     1      58.028  54.091  24.265  1.00  0.00    -0.283 N
ATOM      3  H3  UNL     1      58.974  54.196  23.897  1.00  0.00     0.188 HD
HETATM    4  N4  UNL     1      57.328  55.050  24.798  1.00  0.00    -0.219 N
ATOM      5  H4  UNL     1      57.621  56.019  24.916  1.00  0.00     0.209 HD
HETATM    6  N5  UNL     1      56.167  54.531  25.155  1.00  0.00    -0.050 N
HETATM    7  C5  UNL     1      55.012  54.903  25.725  1.00  0.00     0.715 A
HETATM    8  N7  UNL     1      54.255  53.818  25.764  1.00  0.00    -0.120 N
ATOM      9  H7  UNL     1      53.310  53.777  26.144  1.00  0.00     0.206 HD
HETATM   10  N8  UNL     1      54.921  52.775  25.228  1.00  0.00    -0.192 N
HETATM   11  C6  UNL     1      54.323  51.496  25.133  1.00  0.00     0.209 C
HETATM   12  N9  UNL     1      53.779  51.140  24.025  1.00  0.00    -0.372 N
ATOM     13  H91 UNL     1      53.348  50.218  23.957  1.00  0.00     0.158 HD
ATOM     14  H92 UNL     1      53.785  51.731  23.194  1.00  0.00     0.158 HD
HETATM   15  N10 UNL     1      54.315  50.674  26.290  1.00  0.00    -0.062 NA
HETATM   16  C7  UNL     1      56.125  53.196  24.838  1.00  0.00     0.198 A
ENDROOT
BRANCH   1  17
HETATM   17  C3  UNL     1      57.840  51.633  23.769  1.00  0.00     0.338 C
BRANCH  17  18
HETATM   18  C2  UNL     1      59.111  51.915  22.979  1.00  0.00     0.311 C
HETATM   19  O4  UNL     1      60.222  51.698  23.505  1.00  0.00    -0.261 OA
BRANCH  18  20
HETATM   20  O3  UNL     1      59.063  52.402  21.701  1.00  0.00    -0.178 OA
BRANCH  20  21
HETATM   21  S1  UNL     1      59.635  53.933  21.245  1.00  0.00     0.364 S
HETATM   22  O1  UNL     1      60.113  53.975  19.832  1.00  0.00    -0.175 OA
HETATM   23  O2  UNL     1      58.456  54.888  21.339  1.00  0.00    -0.175 OA
BRANCH  21  24
HETATM   24  N1  UNL     1      60.867  54.509  22.267  1.00  0.00    -0.301 N
HETATM   25  C1  UNL     1      60.670  55.838  22.752  1.00  0.00     0.161 C
ATOM     26  H1  UNL     1      61.683  53.949  22.514  1.00  0.00     0.173 HD
ENDBRANCH  21  24
ENDBRANCH  20  21
ENDBRANCH  18  20
ENDBRANCH  17  18
BRANCH  17  27
HETATM   27  N2  UNL     1      58.226  50.669  24.746  1.00  0.00    -0.060 N
ATOM     28  H23 UNL     1      57.536  49.933  24.899  1.00  0.00     0.275 HD
ATOM     29  H22 UNL     1      58.984  50.054  24.446  1.00  0.00     0.275 HD
ATOM     30  H21 UNL     1      58.441  51.216  25.580  1.00  0.00     0.275 HD
ENDBRANCH  17  27
ENDBRANCH   1  17
BRANCH   7  31
HETATM   31  N6  UNL     1      54.716  56.074  26.141  1.00  0.00    -0.231 N
ATOM     32  H62 UNL     1      54.859  56.456  27.076  1.00  0.00     0.174 HD
ATOM     33  H61 UNL     1      54.284  56.818  25.593  1.00  0.00     0.174 HD
ENDBRANCH   7  31
TORSDOF 7
ENDMDL