MODEL 5
REMARK VINA RESULT: -7.741778040      2.286      6.773
REMARK  6 active torsions:
REMARK  status: ('A' for Active; 'I' for Inactive)
REMARK       I    between atoms: C2_2  and  N1_4
REMARK    1  A    between atoms: N1_4  and  C3_6
REMARK    2  A    between atoms: C4_13  and  O2_14
REMARK    3  A    between atoms: C5_16  and  C6_17
REMARK    4  A    between atoms: C6_17  and  N5_18
REMARK    5  A    between atoms: N5_18  and  N6_20
REMARK    6  A    between atoms: C8_29  and  C9_30
ROOT
HETATM    1  C3  UNL     1      58.673  57.081  22.652  1.00  0.00     0.139 A
HETATM    2  N2  UNL     1      59.473  57.659  21.738  1.00  0.00    -0.270 N
ATOM      3  H2  UNL     1      59.772  58.630  21.829  1.00  0.00     0.190 HD
HETATM    4  N3  UNL     1      59.855  56.911  20.713  1.00  0.00    -0.239 N
ATOM      5  H3  UNL     1      60.461  57.326  20.006  1.00  0.00     0.208 HD
HETATM    6  N4  UNL     1      59.483  55.644  20.567  1.00  0.00    -0.265 N
ATOM      7  H4  UNL     1      59.814  55.126  19.753  1.00  0.00     0.190 HD
HETATM    8  C4  UNL     1      58.684  55.018  21.455  1.00  0.00     0.171 A
HETATM    9  C5  UNL     1      58.262  55.767  22.540  1.00  0.00     0.078 A
ENDROOT
BRANCH   9  10
HETATM   10  C6  UNL     1      57.397  55.137  23.529  1.00  0.00     0.128 C
BRANCH  10  11
HETATM   11  N5  UNL     1      57.729  54.026  24.088  1.00  0.00    -0.291 N
ATOM     12  H5  UNL     1      58.701  53.837  24.334  1.00  0.00     0.188 HD
BRANCH  11  13
HETATM   13  N6  UNL     1      56.730  53.084  24.353  1.00  0.00    -0.187 N
HETATM   14  N7  UNL     1      55.428  53.457  24.103  1.00  0.00    -0.221 N
HETATM   15  N8  UNL     1      54.485  52.519  24.430  1.00  0.00    -0.258 N
ATOM     16  H7  UNL     1      55.185  54.364  23.705  1.00  0.00     0.210 HD
HETATM   17  C7  UNL     1      54.778  51.431  25.283  1.00  0.00     0.206 C
ATOM     18  H8  UNL     1      53.544  52.609  24.047  1.00  0.00     0.191 HD
HETATM   19  N9  UNL     1      53.748  50.704  25.918  1.00  0.00    -0.062 NA
HETATM   20  N10 UNL     1      56.007  51.094  25.486  1.00  0.00    -0.332 N
HETATM   21  C8  UNL     1      57.108  51.804  24.862  1.00  0.00     0.318 C
ATOM     22  H10 UNL     1      56.210  50.307  26.102  1.00  0.00     0.164 HD
BRANCH  21  23
HETATM   23  C9  UNL     1      57.670  50.906  23.826  1.00  0.00     0.277 C
HETATM   24  N11 UNL     1      57.564  49.509  23.835  1.00  0.00    -0.058 NA
HETATM   25  O3  UNL     1      58.284  51.449  22.871  1.00  0.00    -0.272 OA
ENDBRANCH  21  23
ENDBRANCH  11  13
ENDBRANCH  10  11
ENDBRANCH   9  10
BRANCH   1  26
HETATM   26  N1  UNL     1      58.287  57.773  23.651  1.00  0.00    -0.311 N
HETATM   27  C2  UNL     1      57.437  58.884  23.598  1.00  0.00     0.219 C
HETATM   28  C1  UNL     1      55.952  58.792  23.515  1.00  0.00     0.117 C
HETATM   29  O1  UNL     1      57.934  60.044  23.620  1.00  0.00    -0.274 OA
ATOM     30  H1  UNL     1      58.628  57.492  24.571  1.00  0.00     0.170 HD
ENDBRANCH   1  26
BRANCH   8  31
HETATM   31  O2  UNL     1      58.315  53.693  21.270  1.00  0.00    -0.344 OA
ATOM     32  H2  UNL     1      57.485  53.367  21.600  1.00  0.00     0.219 HD
ENDBRANCH   8  31
TORSDOF 6
ENDMDL