MODEL 5
REMARK VINA RESULT: -6.610273068      4.178      6.321
REMARK  8 active torsions:
REMARK  status: ('A' for Active; 'I' for Inactive)
REMARK    1  A    between atoms: C3_7  and  N3_8
REMARK    2  A    between atoms: N3_8  and  N4_10
REMARK    3  A    between atoms: C4_13  and  N5_14
REMARK    4  A    between atoms: N5_14  and  N6_16
REMARK    5  A    between atoms: N6_16  and  S1_18
REMARK    6  A    between atoms: S1_18  and  N7_19
REMARK    7  A    between atoms: S1_18  and  O3_23
REMARK    8  A    between atoms: O3_23  and  N8_24
ROOT
HETATM    1  C1  UNL     1      55.603  59.367  24.743  1.00  0.00     0.164 C
HETATM    2  N1  UNL     1      56.157  58.299  23.938  1.00  0.00    -0.269 N
HETATM    3  C2  UNL     1      55.429  57.178  23.830  1.00  0.00     0.330 C
HETATM    4  O1  UNL     1      54.472  57.102  24.642  1.00  0.00    -0.246 OA
HETATM    5  N2  UNL     1      55.560  56.142  23.001  1.00  0.00    -0.291 N
ATOM      6  H2  UNL     1      54.870  55.397  23.100  1.00  0.00     0.172 HD
HETATM    7  C3  UNL     1      56.503  55.960  22.043  1.00  0.00     0.153 C
HETATM    8  C4  UNL     1      57.710  56.633  21.837  1.00  0.00     0.120 C
HETATM    9  C5  UNL     1      57.952  57.893  22.319  1.00  0.00     0.144 C
HETATM   10  C6  UNL     1      58.958  58.629  21.622  1.00  0.00     0.107 C
HETATM   11  N9  UNL     1      59.767  59.253  21.068  1.00  0.00    -0.191 NA
HETATM   12  C7  UNL     1      57.334  58.561  23.398  1.00  0.00     0.274 C
HETATM   13  O4  UNL     1      57.985  59.504  23.886  1.00  0.00    -0.266 OA
ENDROOT
BRANCH   8  14
HETATM   14  N5  UNL     1      58.731  56.020  21.128  1.00  0.00    -0.286 N
ATOM     15  H5  UNL     1      58.673  56.164  20.120  1.00  0.00     0.188 HD
BRANCH  14  16
HETATM   16  N6  UNL     1      59.795  55.262  21.509  1.00  0.00    -0.220 N
ATOM     17  H6  UNL     1      60.704  55.707  21.645  1.00  0.00     0.200 HD
BRANCH  16  18
HETATM   18  S1  UNL     1      59.655  53.739  21.741  1.00  0.00     0.268 S
HETATM   19  O2  UNL     1      58.854  53.231  20.586  1.00  0.00    -0.195 OA
BRANCH  18  20
HETATM   20  N7  UNL     1      58.837  53.321  23.189  1.00  0.00    -0.321 N
ATOM     21  H72 UNL     1      57.827  53.423  23.289  1.00  0.00     0.169 HD
ATOM     22  H71 UNL     1      59.446  52.968  23.927  1.00  0.00     0.169 HD
ENDBRANCH  18  20
BRANCH  18  23
HETATM   23  O3  UNL     1      61.225  53.098  21.718  1.00  0.00    -0.157 OA
BRANCH  23  24
HETATM   24  N8  UNL     1      61.344  52.349  22.838  1.00  0.00    -0.294 N
ATOM     25  H82 UNL     1      60.982  51.404  22.971  1.00  0.00     0.185 HD
ATOM     26  H81 UNL     1      61.863  52.917  23.508  1.00  0.00     0.185 HD
ENDBRANCH  23  24
ENDBRANCH  18  23
ENDBRANCH  16  18
ENDBRANCH  14  16
ENDBRANCH   8  14
BRANCH   7  27
HETATM   27  N3  UNL     1      56.247  55.046  21.212  1.00  0.00    -0.290 N
ATOM     28  H3  UNL     1      56.924  54.290  21.109  1.00  0.00     0.188 HD
BRANCH  27  29
HETATM   29  N4  UNL     1      55.101  55.004  20.427  1.00  0.00    -0.344 N
ATOM     30  H42 UNL     1      54.947  55.789  19.793  1.00  0.00     0.176 HD
ATOM     31  H41 UNL     1      54.419  54.247  20.450  1.00  0.00     0.176 HD
ENDBRANCH  27  29
ENDBRANCH   7  27
TORSDOF 8
ENDMDL