MODEL 2
REMARK VINA RESULT: -7.156071218      6.353      8.869
REMARK  9 active torsions:
REMARK  status: ('A' for Active; 'I' for Inactive)
REMARK    1  A    between atoms: C2_3  and  N2_4
REMARK    2  A    between atoms: C2_3  and  N3_8
REMARK    3  A    between atoms: C3_9  and  N4_10
REMARK    4  A    between atoms: N5_13  and  N6_14
REMARK    5  A    between atoms: C6_20  and  N7_21
REMARK    6  A    between atoms: N7_21  and  C7_23
REMARK    7  A    between atoms: C7_23  and  C8_24
REMARK    8  A    between atoms: C8_24  and  O2_25
REMARK    9  A    between atoms: C8_24  and  C9_27
ROOT
HETATM    1  N1  UNL     1      56.910  57.355  22.916  1.00  0.00    -0.193 NA
HETATM    2  C1  UNL     1      56.441  56.351  22.609  1.00  0.00     0.115 C
HETATM    3  C2  UNL     1      55.866  55.068  22.207  1.00  0.00     0.413 C
ENDROOT
BRANCH   3   4
HETATM    4  N2  UNL     1      55.720  55.014  20.761  1.00  0.00    -0.044 N
ATOM      5  H23 UNL     1      54.747  55.116  20.471  1.00  0.00     0.278 HD
ATOM      6  H22 UNL     1      56.099  55.847  20.308  1.00  0.00     0.278 HD
ATOM      7  H21 UNL     1      56.139  54.158  20.397  1.00  0.00     0.278 HD
ENDBRANCH   3   4
BRANCH   3   8
HETATM    8  N3  UNL     1      56.713  53.980  22.657  1.00  0.00    -0.123 N
HETATM    9  C3  UNL     1      56.265  52.943  23.384  1.00  0.00     0.706 A
HETATM   10  N5  UNL     1      57.008  51.923  23.817  1.00  0.00    -0.053 N
HETATM   11  C4  UNL     1      58.325  51.911  23.511  1.00  0.00     0.299 A
HETATM   12  O1  UNL     1      59.046  50.960  23.908  1.00  0.00    -0.264 OA
HETATM   13  C5  UNL     1      58.852  52.946  22.765  1.00  0.00     0.123 A
HETATM   14  C6  UNL     1      60.187  52.991  22.419  1.00  0.00     0.121 A
HETATM   15  C11 UNL     1      58.032  53.981  22.340  1.00  0.00     0.147 A
HETATM   16  N8  UNL     1      60.657  54.023  21.690  1.00  0.00    -0.338 N
HETATM   17  C10 UNL     1      59.874  55.030  21.274  1.00  0.00     0.183 A
ATOM     18  H8  UNL     1      61.647  54.039  21.445  1.00  0.00     0.168 HD
HETATM   19  N9  UNL     1      58.573  54.977  21.616  1.00  0.00    -0.337 N
ATOM     20  H9  UNL     1      57.963  55.734  21.308  1.00  0.00     0.168 HD
BRANCH   9  21
HETATM   21  N4  UNL     1      55.009  52.936  23.688  1.00  0.00    -0.232 N
ATOM     22  H42 UNL     1      54.349  52.671  22.956  1.00  0.00     0.174 HD
ATOM     23  H41 UNL     1      54.760  53.195  24.643  1.00  0.00     0.174 HD
ENDBRANCH   9  21
BRANCH  10  24
HETATM   24  N6  UNL     1      56.499  50.863  24.573  1.00  0.00    -0.321 N
ATOM     25  H62 UNL     1      55.717  51.053  25.200  1.00  0.00     0.178 HD
ATOM     26  H61 UNL     1      56.868  49.913  24.531  1.00  0.00     0.178 HD
ENDBRANCH  10  24
BRANCH  14  27
HETATM   27  N7  UNL     1      60.984  52.025  22.807  1.00  0.00    -0.372 N
ATOM     28  H7  UNL     1      60.716  51.048  22.688  1.00  0.00     0.161 HD
BRANCH  27  29
HETATM   29  C7  UNL     1      62.243  52.372  23.402  1.00  0.00     0.164 C
BRANCH  29  30
HETATM   30  C8  UNL     1      62.134  52.228  24.907  1.00  0.00     0.236 C
BRANCH  30  31
HETATM   31  O2  UNL     1      61.382  51.140  25.275  1.00  0.00    -0.383 OA
ATOM     32  H2  UNL     1      60.719  51.359  25.920  1.00  0.00     0.210 HD
ENDBRANCH  30  31
BRANCH  30  33
HETATM   33  C9  UNL     1      63.499  52.104  25.475  1.00  0.00     0.204 C
HETATM   34  O3  UNL     1      64.038  50.969  25.579  1.00  0.00    -0.646 OA
HETATM   35  O4  UNL     1      64.234  53.194  25.910  1.00  0.00    -0.646 OA
ENDBRANCH  30  33
ENDBRANCH  29  30
ENDBRANCH  27  29
ENDBRANCH  14  27
ENDBRANCH   3   8
TORSDOF 9
ENDMDL