MODEL 1
REMARK VINA RESULT: -6.901320423      0.000      0.000
REMARK  10 active torsions:
REMARK  status: ('A' for Active; 'I' for Inactive)
REMARK    1  A    between atoms: C2_2  and  C4_4
REMARK    2  A    between atoms: C4_4  and  N1_5
REMARK    3  A    between atoms: N1_5  and  C5_7
REMARK    4  A    between atoms: C6_10  and  N3_11
REMARK    5  A    between atoms: C7_17  and  C8_18
REMARK    6  A    between atoms: C8_18  and  O1_19
REMARK    7  A    between atoms: C8_18  and  O2_21
REMARK    8  A    between atoms: C9_25  and  N7_26
REMARK    9  A    between atoms: N7_26  and  O3_28
REMARK   10  A    between atoms: O3_28  and  C10_29
ROOT
HETATM    1  C5  UNL     1      58.115  52.799  23.236  1.00  0.00     0.731 A
HETATM    2  N2  UNL     1      58.576  51.539  23.209  1.00  0.00    -0.017 N
ATOM      3  H2  UNL     1      59.469  51.250  22.813  1.00  0.00     0.203 HD
HETATM    4  C6  UNL     1      57.681  50.715  23.784  1.00  0.00     0.728 A
HETATM    5  N4  UNL     1      56.652  51.492  24.170  1.00  0.00     0.018 N
HETATM    6  N5  UNL     1      55.511  51.169  24.788  1.00  0.00    -0.246 N
ATOM      7  H5  UNL     1      55.332  50.195  25.033  1.00  0.00     0.191 HD
HETATM    8  C7  UNL     1      54.595  52.105  25.092  1.00  0.00     0.169 A
HETATM    9  N6  UNL     1      54.868  53.370  24.755  1.00  0.00    -0.170 N
ATOM     10  H6  UNL     1      54.190  54.099  24.974  1.00  0.00     0.186 HD
HETATM   11  C9  UNL     1      56.017  53.707  24.132  1.00  0.00     0.742 A
HETATM   12  N9  UNL     1      56.913  52.748  23.841  1.00  0.00     0.129 N
ENDROOT
BRANCH   1  13
HETATM   13  N1  UNL     1      58.659  53.860  22.797  1.00  0.00    -0.223 N
ATOM     14  H1  UNL     1      58.239  54.363  22.016  1.00  0.00     0.177 HD
BRANCH  13  15
HETATM   15  C4  UNL     1      59.871  54.351  23.406  1.00  0.00     0.142 C
BRANCH  15  16
HETATM   16  C2  UNL     1      60.946  54.331  22.333  1.00  0.00    -0.004 C
HETATM   17  C1  UNL     1      60.227  54.392  21.001  1.00  0.00     0.011 C
HETATM   18  C3  UNL     1      61.805  53.119  22.481  1.00  0.00     0.011 C
ENDBRANCH  15  16
ENDBRANCH  13  15
ENDBRANCH   1  13
BRANCH   4  19
HETATM   19  N3  UNL     1      57.731  49.444  23.963  1.00  0.00    -0.231 N
ATOM     20  H32 UNL     1      58.433  48.974  24.533  1.00  0.00     0.174 HD
ATOM     21  H31 UNL     1      57.124  48.710  23.598  1.00  0.00     0.174 HD
ENDBRANCH   4  19
BRANCH  11  22
HETATM   22  N7  UNL     1      56.284  54.932  23.804  1.00  0.00    -0.084 N
ATOM     23  H7  UNL     1      57.038  55.427  24.279  1.00  0.00     0.214 HD
BRANCH  22  24
HETATM   24  O3  UNL     1      55.563  55.571  22.824  1.00  0.00    -0.168 OA
BRANCH  24  25
HETATM   25  C10 UNL     1      56.020  55.545  21.514  1.00  0.00     0.395 C
HETATM   26  N8  UNL     1      57.192  56.224  21.083  1.00  0.00    -0.031 NA
HETATM   27  O4  UNL     1      55.349  54.883  20.678  1.00  0.00    -0.240 OA
ENDBRANCH  24  25
ENDBRANCH  22  24
ENDBRANCH  11  22
BRANCH   8  28
HETATM   28  C8  UNL     1      53.315  51.764  25.782  1.00  0.00     0.325 C
BRANCH  28  29
HETATM   29  O1  UNL     1      53.331  52.256  27.063  1.00  0.00    -0.365 OA
ATOM     30  H1  UNL     1      52.968  51.612  27.660  1.00  0.00     0.213 HD
ENDBRANCH  28  29
BRANCH  28  31
HETATM   31  O2  UNL     1      53.163  50.386  25.721  1.00  0.00    -0.365 OA
ATOM     32  H2  UNL     1      53.446  50.031  26.555  1.00  0.00     0.213 HD
ENDBRANCH  28  31
ENDBRANCH   8  28
TORSDOF 10
ENDMDL