MODEL 1
REMARK VINA RESULT: -8.070090329      0.000      0.000
REMARK  9 active torsions:
REMARK  status: ('A' for Active; 'I' for Inactive)
REMARK    1  A    between atoms: C3_3  and  N1_4
REMARK    2  A    between atoms: C3_3  and  C7_14
REMARK       I    between atoms: N1_4  and  C4_6
REMARK    3  A    between atoms: C4_6  and  C5_8
REMARK    4  A    between atoms: C5_8  and  N2_9
REMARK    5  A    between atoms: C7_14  and  N5_15
REMARK    6  A    between atoms: C7_14  and  C15_27
REMARK    7  A    between atoms: N5_15  and  C8_17
REMARK    8  A    between atoms: C8_17  and  N6_19
REMARK    9  A    between atoms: N6_19  and  C9_21
ROOT
HETATM    1  C1  UNL     1      11.436  18.021  14.110  1.00  0.00     0.099 C
HETATM    2  C2  UNL     1      11.739  17.162  14.936  1.00  0.00    -0.160 C
HETATM    3  C3  UNL     1      12.054  16.125  15.898  1.00  0.00     0.174 C
ENDROOT
BRANCH   3   4
HETATM    4  N1  UNL     1      11.249  16.218  17.070  1.00  0.00    -0.344 N
HETATM    5  C4  UNL     1      10.520  15.096  17.543  1.00  0.00     0.236 C
HETATM    6  O1  UNL     1      10.620  14.026  16.882  1.00  0.00    -0.272 OA
ATOM      7  H1  UNL     1      11.195  17.103  17.574  1.00  0.00     0.163 HD
BRANCH   5   8
HETATM    8  C5  UNL     1       9.666  15.108  18.741  1.00  0.00     0.224 C
BRANCH   8   9
HETATM    9  N2  UNL     1      10.245  15.968  19.735  1.00  0.00    -0.358 N
HETATM   10  C6  UNL     1       9.614  16.582  20.647  1.00  0.00     0.197 C
HETATM   11  N3  UNL     1      10.387  17.397  21.545  1.00  0.00    -0.067 NA
HETATM   12  N4  UNL     1       8.217  16.448  20.750  1.00  0.00    -0.067 NA
ATOM     13  H2  UNL     1      11.256  16.097  19.704  1.00  0.00     0.162 HD
ENDBRANCH   8   9
ENDBRANCH   5   8
ENDBRANCH   3   4
BRANCH   3  14
HETATM   14  C7  UNL     1      13.507  15.915  16.107  1.00  0.00     0.121 C
BRANCH  14  15
HETATM   15  N5  UNL     1      13.956  16.518  17.360  1.00  0.00    -0.359 N
ATOM     16  H5  UNL     1      13.995  17.533  17.448  1.00  0.00     0.162 HD
BRANCH  15  17
HETATM   17  C8  UNL     1      14.336  15.708  18.447  1.00  0.00     0.172 C
HETATM   18  S1  UNL     1      13.941  14.118  18.343  1.00  0.00    -0.041 SA
BRANCH  17  19
HETATM   19  N6  UNL     1      14.982  16.174  19.604  1.00  0.00    -0.333 N
ATOM     20  H6  UNL     1      14.406  16.291  20.438  1.00  0.00     0.168 HD
BRANCH  19  21
HETATM   21  C9  UNL     1      16.354  16.497  19.723  1.00  0.00     0.034 A
HETATM   22  C10 UNL     1      17.146  16.680  18.630  1.00  0.00     0.029 A
HETATM   23  C11 UNL     1      18.512  16.964  18.820  1.00  0.00     0.002 A
HETATM   24  C12 UNL     1      19.022  17.054  20.084  1.00  0.00     0.000 A
HETATM   25  C13 UNL     1      18.223  16.871  21.206  1.00  0.00     0.002 A
HETATM   26  C14 UNL     1      16.892  16.593  21.018  1.00  0.00     0.029 A
ENDBRANCH  19  21
ENDBRANCH  17  19
ENDBRANCH  15  17
ENDBRANCH  14  15
BRANCH  14  27
HETATM   27  C15 UNL     1      14.432  16.451  15.063  1.00  0.00     0.003 C
HETATM   28  C16 UNL     1      15.432  17.461  15.472  1.00  0.00     0.011 C
HETATM   29  C17 UNL     1      15.162  15.340  14.306  1.00  0.00     0.011 C
ENDBRANCH  14  27
ENDBRANCH   3  14
TORSDOF 9
ENDMDL