MODEL 1
REMARK VINA RESULT: -7.947543331      0.000      0.000
REMARK  7 active torsions:
REMARK  status: ('A' for Active; 'I' for Inactive)
REMARK    1  A    between atoms: C1_2  and  C2_4
REMARK    2  A    between atoms: C2_4  and  C8_15
REMARK       I    between atoms: N1_5  and  C3_7
REMARK    3  A    between atoms: C3_7  and  C4_9
REMARK       I    between atoms: C8_15  and  N3_17
REMARK    4  A    between atoms: N3_17  and  C9_19
REMARK    5  A    between atoms: C9_19  and  C10_20
REMARK    6  A    between atoms: C9_19  and  C16_28
REMARK    7  A    between atoms: C11_21  and  C12_22
ROOT
HETATM    1  C8  UNL     1      12.270  16.458  16.800  1.00  0.00     0.276 C
HETATM    2  O4  UNL     1      12.095  17.258  17.808  1.00  0.00    -0.266 OA
HETATM    3  N3  UNL     1      13.178  15.431  17.065  1.00  0.00    -0.338 N
ATOM      4  H3  UNL     1      13.374  14.756  16.326  1.00  0.00     0.164 HD
ENDROOT
BRANCH   1   5
HETATM    5  C2  UNL     1      11.527  16.740  15.608  1.00  0.00     0.180 C
HETATM    6  N1  UNL     1      12.031  17.454  14.636  1.00  0.00    -0.311 N
HETATM    7  C3  UNL     1      13.287  18.031  14.576  1.00  0.00     0.273 C
ATOM      8  H1  UNL     1      11.429  17.604  13.827  1.00  0.00     0.169 HD
HETATM    9  O3  UNL     1      13.492  19.165  15.053  1.00  0.00    -0.266 OA
BRANCH   5  10
HETATM   10  C1  UNL     1      10.189  16.271  15.384  1.00  0.00     0.232 C
HETATM   11  O1  UNL     1       9.491  15.792  16.282  1.00  0.00    -0.643 OA
HETATM   12  O2  UNL     1       9.628  16.345  14.120  1.00  0.00    -0.643 OA
ENDBRANCH   5  10
BRANCH   7  13
HETATM   13  C4  UNL     1      14.402  17.326  13.956  1.00  0.00     0.101 A
HETATM   14  C5  UNL     1      15.351  17.862  13.077  1.00  0.00     0.036 A
HETATM   15  C6  UNL     1      16.251  16.894  12.698  1.00  0.00     0.019 A
HETATM   16  C7  UNL     1      15.834  15.758  13.361  1.00  0.00     0.088 A
HETATM   17  N2  UNL     1      14.748  16.035  14.092  1.00  0.00    -0.361 N
ATOM     18  H2  UNL     1      14.250  15.359  14.672  1.00  0.00     0.165 HD
ENDBRANCH   7  13
ENDBRANCH   1   5
BRANCH   3  19
HETATM   19  C9  UNL     1      13.864  15.274  18.348  1.00  0.00     0.209 C
BRANCH  19  20
HETATM   20  C10 UNL     1      15.292  15.648  18.243  1.00  0.00     0.010 C
HETATM   21  C11 UNL     1      15.879  16.305  19.226  1.00  0.00     0.011 C
BRANCH  21  22
HETATM   22  C12 UNL     1      17.280  16.693  19.166  1.00  0.00    -0.020 A
HETATM   23  C13 UNL     1      18.148  16.859  20.225  1.00  0.00     0.029 A
HETATM   24  C14 UNL     1      19.391  17.233  19.723  1.00  0.00     0.088 A
HETATM   25  N4  UNL     1      19.279  17.294  18.393  1.00  0.00    -0.374 N
HETATM   26  C15 UNL     1      18.027  16.975  18.029  1.00  0.00     0.099 A
ATOM     27  H4  UNL     1      20.031  17.544  17.751  1.00  0.00     0.164 HD
ENDBRANCH  21  22
ENDBRANCH  19  20
BRANCH  19  28
HETATM   28  C16 UNL     1      13.769  13.892  18.851  1.00  0.00     0.200 C
HETATM   29  O5  UNL     1      12.678  13.283  18.915  1.00  0.00    -0.646 OA
HETATM   30  O6  UNL     1      14.914  13.243  19.267  1.00  0.00    -0.646 OA
ENDBRANCH  19  28
ENDBRANCH   3  19
TORSDOF 7
ENDMDL