MODEL 5
REMARK VINA RESULT: -7.253312302      2.579      3.376
REMARK  9 active torsions:
REMARK  status: ('A' for Active; 'I' for Inactive)
REMARK    1  A    between atoms: C2_2  and  C3_3
REMARK    2  A    between atoms: C6_8  and  O3_9
REMARK    3  A    between atoms: C7_11  and  N1_12
REMARK    4  A    between atoms: N1_12  and  C8_14
REMARK    5  A    between atoms: C8_14  and  N2_16
REMARK    6  A    between atoms: N2_16  and  C9_18
REMARK    7  A    between atoms: C9_18  and  C10_19
REMARK    8  A    between atoms: C9_18  and  C17_26
REMARK    9  A    between atoms: C10_19  and  C11_20
ROOT
HETATM    1  C8  UNL     1      12.957  17.051  15.595  1.00  0.00     0.168 C
HETATM    2  S1  UNL     1      12.111  17.889  14.491  1.00  0.00    -0.041 SA
ENDROOT
BRANCH   1   3
HETATM    3  N1  UNL     1      12.343  15.962  16.252  1.00  0.00    -0.358 N
ATOM      4  H1  UNL     1      11.945  15.236  15.657  1.00  0.00     0.162 HD
BRANCH   3   5
HETATM    5  C7  UNL     1      12.219  15.768  17.667  1.00  0.00     0.138 C
HETATM    6  C2  UNL     1      10.865  15.268  18.034  1.00  0.00     0.085 C
HETATM    7  C1  UNL     1      10.322  16.047  19.233  1.00  0.00     0.033 C
HETATM    8  C4  UNL     1      11.097  13.854  18.525  1.00  0.00    -0.006 C
HETATM    9  C5  UNL     1      12.371  13.604  18.618  1.00  0.00     0.004 C
HETATM   10  C6  UNL     1      13.166  14.766  18.221  1.00  0.00     0.165 C
BRANCH   6  11
HETATM   11  C3  UNL     1       9.872  15.219  16.954  1.00  0.00     0.187 C
HETATM   12  O1  UNL     1       9.590  16.247  16.283  1.00  0.00    -0.647 OA
HETATM   13  O2  UNL     1       9.209  14.051  16.635  1.00  0.00    -0.647 OA
ENDBRANCH   6  11
BRANCH  10  14
HETATM   14  O3  UNL     1      14.189  14.438  17.323  1.00  0.00    -0.390 OA
ATOM     15  H3  UNL     1      13.858  14.146  16.481  1.00  0.00     0.210 HD
ENDBRANCH  10  14
ENDBRANCH   3   5
ENDBRANCH   1   3
BRANCH   1  16
HETATM   16  N2  UNL     1      14.300  17.440  15.888  1.00  0.00    -0.352 N
ATOM     17  H2  UNL     1      14.498  18.385  16.217  1.00  0.00     0.162 HD
BRANCH  16  18
HETATM   18  C9  UNL     1      15.400  16.471  15.713  1.00  0.00     0.189 C
BRANCH  18  19
HETATM   19  C10 UNL     1      16.635  17.181  16.157  1.00  0.00     0.074 C
BRANCH  19  20
HETATM   20  C11 UNL     1      17.080  17.020  17.521  1.00  0.00    -0.056 A
HETATM   21  C12 UNL     1      18.403  17.300  17.834  1.00  0.00     0.007 A
HETATM   22  C13 UNL     1      18.895  17.166  19.112  1.00  0.00     0.001 A
HETATM   23  C14 UNL     1      18.086  16.745  20.152  1.00  0.00     0.000 A
HETATM   24  C15 UNL     1      16.770  16.464  19.855  1.00  0.00     0.001 A
HETATM   25  C16 UNL     1      16.286  16.600  18.572  1.00  0.00     0.007 A
ENDBRANCH  19  20
ENDBRANCH  18  19
BRANCH  18  26
HETATM   26  C17 UNL     1      15.481  16.168  14.268  1.00  0.00     0.197 C
HETATM   27  O4  UNL     1      16.153  16.917  13.522  1.00  0.00    -0.646 OA
HETATM   28  O5  UNL     1      14.852  15.092  13.647  1.00  0.00    -0.646 OA
ENDBRANCH  18  26
ENDBRANCH  16  18
ENDBRANCH   1  16
TORSDOF 9
ENDMDL