MODEL 4
REMARK VINA RESULT: -6.118496271      3.780      7.564
REMARK  8 active torsions:
REMARK  status: ('A' for Active; 'I' for Inactive)
REMARK    1  A    between atoms: C2_2  and  N1_3
REMARK    2  A    between atoms: C2_2  and  C12_18
REMARK       I    between atoms: N1_3  and  C3_5
REMARK       I    between atoms: C3_5  and  N3_12
REMARK    3  A    between atoms: N2_6  and  C4_8
REMARK    4  A    between atoms: N3_12  and  C8_14
REMARK       I    between atoms: C12_18  and  N4_20
REMARK    5  A    between atoms: N4_20  and  C13_22
REMARK    6  A    between atoms: C13_22  and  C14_23
REMARK    7  A    between atoms: C13_22  and  C16_27
REMARK    8  A    between atoms: C14_23  and  C15_24
ROOT
HETATM    1  N1  UNL     1      13.967  16.326  15.776  1.00  0.00    -0.214 N
ATOM      2  H1  UNL     1      13.302  15.827  15.185  1.00  0.00     0.178 HD
HETATM    3  C3  UNL     1      14.279  17.632  15.350  1.00  0.00     0.671 C
HETATM    4  N2  UNL     1      15.338  18.020  14.922  1.00  0.00    -0.218 N
ATOM      5  H2  UNL     1      15.181  19.008  14.724  1.00  0.00     0.178 HD
HETATM    6  N3  UNL     1      13.192  18.579  15.429  1.00  0.00    -0.218 N
ATOM      7  H3  UNL     1      13.026  19.037  16.325  1.00  0.00     0.178 HD
ENDROOT
BRANCH   1   8
HETATM    8  C2  UNL     1      14.431  15.601  16.895  1.00  0.00     0.187 C
HETATM    9  C1  UNL     1      15.075  16.467  17.964  1.00  0.00     0.043 C
BRANCH   8  10
HETATM   10  C12 UNL     1      13.244  14.975  17.596  1.00  0.00     0.241 C
HETATM   11  O1  UNL     1      13.351  13.940  18.277  1.00  0.00    -0.271 OA
HETATM   12  N4  UNL     1      11.978  15.606  17.456  1.00  0.00    -0.344 N
ATOM     13  H4  UNL     1      11.887  16.459  16.903  1.00  0.00     0.163 HD
BRANCH  12  14
HETATM   14  C13 UNL     1      10.798  15.019  18.118  1.00  0.00     0.194 C
BRANCH  14  15
HETATM   15  C14 UNL     1      10.352  15.908  19.243  1.00  0.00     0.135 C
BRANCH  15  16
HETATM   16  C15 UNL     1       9.137  15.369  19.867  1.00  0.00     0.233 C
HETATM   17  N5  UNL     1       8.141  16.316  20.267  1.00  0.00    -0.062 NA
HETATM   18  O2  UNL     1       8.956  14.129  20.053  1.00  0.00    -0.277 OA
ENDBRANCH  15  16
ENDBRANCH  14  15
BRANCH  14  19
HETATM   19  C16 UNL     1       9.701  14.847  17.149  1.00  0.00     0.197 C
HETATM   20  O3  UNL     1       9.328  15.807  16.421  1.00  0.00    -0.646 OA
HETATM   21  O4  UNL     1       9.065  13.637  17.018  1.00  0.00    -0.646 OA
ENDBRANCH  14  19
ENDBRANCH  12  14
ENDBRANCH   8  10
ENDBRANCH   1   8
BRANCH   4  22
HETATM   22  C4  UNL     1      16.639  17.810  14.570  1.00  0.00     0.036 C
HETATM   23  C5  UNL     1      17.656  17.504  15.643  1.00  0.00     0.038 C
HETATM   24  C6  UNL     1      16.869  16.722  13.516  1.00  0.00     0.038 C
HETATM   25  C7  UNL     1      17.161  19.095  13.893  1.00  0.00     0.038 C
ENDBRANCH   4  22
BRANCH   6  26
HETATM   26  C8  UNL     1      12.343  18.915  14.350  1.00  0.00     0.036 C
HETATM   27  C9  UNL     1      11.195  17.940  14.278  1.00  0.00     0.038 C
HETATM   28  C10 UNL     1      11.741  20.289  14.423  1.00  0.00     0.038 C
HETATM   29  C11 UNL     1      13.063  18.849  12.996  1.00  0.00     0.038 C
ENDBRANCH   6  26
TORSDOF 8
ENDMDL