MODEL 4
REMARK VINA RESULT: -6.553565932      1.957      2.422
REMARK  8 active torsions:
REMARK  status: ('A' for Active; 'I' for Inactive)
REMARK    1  A    between atoms: C2_2  and  N1_5
REMARK    2  A    between atoms: N1_5  and  C5_7
REMARK    3  A    between atoms: C5_7  and  C6_11
REMARK    4  A    between atoms: C6_11  and  N3_14
REMARK    5  A    between atoms: N3_14  and  S1_16
REMARK    6  A    between atoms: S1_16  and  N4_19
REMARK       I    between atoms: C9_21  and  N6_23
REMARK    7  A    between atoms: N6_23  and  C10_25
REMARK    8  A    between atoms: C10_25  and  C11_26
ROOT
HETATM    1  N3  UNL     1      11.062  16.878  16.490  1.00  0.00    -0.286 N
ATOM      2  H3  UNL     1      11.128  17.799  16.922  1.00  0.00     0.175 HD
ENDROOT
BRANCH   1   3
HETATM    3  C6  UNL     1      11.318  16.666  15.083  1.00  0.00     0.092 C
HETATM    4  C7  UNL     1      12.008  15.332  14.855  1.00  0.00     0.047 C
HETATM    5  C8  UNL     1      10.027  16.669  14.305  1.00  0.00     0.047 C
BRANCH   3   6
HETATM    6  C5  UNL     1      12.231  17.733  14.631  1.00  0.00     0.100 C
HETATM    7  N2  UNL     1      11.938  18.419  13.593  1.00  0.00    -0.387 N
ATOM      8  H22 UNL     1      12.569  19.156  13.280  1.00  0.00     0.157 HD
ATOM      9  H21 UNL     1      11.073  18.216  13.093  1.00  0.00     0.157 HD
BRANCH   6  10
HETATM   10  N1  UNL     1      13.427  18.014  15.321  1.00  0.00    -0.370 N
ATOM     11  H1  UNL     1      13.357  18.331  16.288  1.00  0.00     0.161 HD
BRANCH  10  12
HETATM   12  C2  UNL     1      14.741  17.882  14.745  1.00  0.00     0.020 C
HETATM   13  C1  UNL     1      15.724  17.195  15.686  1.00  0.00     0.037 C
HETATM   14  C3  UNL     1      14.728  17.091  13.460  1.00  0.00     0.037 C
HETATM   15  C4  UNL     1      15.269  19.267  14.451  1.00  0.00     0.037 C
ENDBRANCH  10  12
ENDBRANCH   6  10
ENDBRANCH   3   6
ENDBRANCH   1   3
BRANCH   1  16
HETATM   16  S1  UNL     1      10.643  15.493  17.371  1.00  0.00     0.322 S
HETATM   17  O1  UNL     1      10.212  15.818  18.788  1.00  0.00    -0.182 OA
HETATM   18  O2  UNL     1       9.602  14.701  16.682  1.00  0.00    -0.182 OA
BRANCH  16  19
HETATM   19  N4  UNL     1      12.056  14.477  17.526  1.00  0.00    -0.241 N
HETATM   20  C9  UNL     1      13.161  14.971  17.924  1.00  0.00     0.199 C
HETATM   21  N5  UNL     1      13.250  16.338  18.241  1.00  0.00    -0.063 NA
HETATM   22  N6  UNL     1      14.299  14.146  18.047  1.00  0.00    -0.358 N
ATOM     23  H6  UNL     1      14.639  13.598  17.256  1.00  0.00     0.162 HD
ATOM     24  H4  UNL     1      11.996  13.485  17.296  1.00  0.00     0.183 HD
BRANCH  22  25
HETATM   25  C10 UNL     1      14.977  14.100  19.342  1.00  0.00     0.187 C
BRANCH  25  26
HETATM   26  C11 UNL     1      15.989  15.184  19.395  1.00  0.00     0.070 A
HETATM   27  C12 UNL     1      16.247  15.943  20.499  1.00  0.00     0.036 A
HETATM   28  C13 UNL     1      17.241  16.837  20.161  1.00  0.00     0.027 A
HETATM   29  C14 UNL     1      17.544  16.573  18.845  1.00  0.00     0.142 A
HETATM   30  O3  UNL     1      16.775  15.586  18.435  1.00  0.00    -0.325 OA
ENDBRANCH  25  26
ENDBRANCH  22  25
ENDBRANCH  16  19
ENDBRANCH   1  16
TORSDOF 8
ENDMDL