MODEL 4
REMARK VINA RESULT: -7.473241184      2.206      2.859
REMARK  11 active torsions:
REMARK  status: ('A' for Active; 'I' for Inactive)
REMARK    1  A    between atoms: C2_2  and  C3_3
REMARK    2  A    between atoms: C3_3  and  N1_4
REMARK    3  A    between atoms: C3_3  and  C15_27
REMARK    4  A    between atoms: N1_4  and  C4_6
REMARK    5  A    between atoms: C4_6  and  N2_8
REMARK    6  A    between atoms: N2_8  and  N3_10
REMARK    7  A    between atoms: N3_10  and  C5_12
REMARK    8  A    between atoms: C5_12  and  O1_13
REMARK    9  A    between atoms: C5_12  and  C6_15
REMARK   10  A    between atoms: C6_15  and  N4_16
REMARK   11  A    between atoms: C6_15  and  C9_21
REMARK       I    between atoms: N4_16  and  C7_18
ROOT
HETATM    1  C5  UNL     1      15.107  15.136  18.396  1.00  0.00     0.183 C
ENDROOT
BRANCH   1   2
HETATM    2  N3  UNL     1      13.738  15.039  18.644  1.00  0.00    -0.276 N
ATOM      3  H3  UNL     1      13.359  14.093  18.688  1.00  0.00     0.189 HD
BRANCH   2   4
HETATM    4  N2  UNL     1      12.835  16.054  18.838  1.00  0.00    -0.274 N
ATOM      5  H2  UNL     1      12.975  16.727  19.591  1.00  0.00     0.189 HD
BRANCH   4   6
HETATM    6  C4  UNL     1      11.676  16.164  17.962  1.00  0.00     0.187 C
HETATM    7  S1  UNL     1      10.334  15.372  18.515  1.00  0.00    -0.040 SA
BRANCH   6   8
HETATM    8  N1  UNL     1      11.715  16.893  16.781  1.00  0.00    -0.351 N
ATOM      9  H1  UNL     1      11.724  17.908  16.885  1.00  0.00     0.162 HD
BRANCH   8  10
HETATM   10  C3  UNL     1      11.743  16.406  15.438  1.00  0.00     0.184 C
BRANCH  10  11
HETATM   11  C2  UNL     1      12.151  14.973  15.353  1.00  0.00     0.032 C
HETATM   12  C1  UNL     1      13.407  14.839  14.517  1.00  0.00     0.007 C
ENDBRANCH  10  11
BRANCH  10  13
HETATM   13  C15 UNL     1      10.424  16.656  14.779  1.00  0.00     0.196 C
HETATM   14  O3  UNL     1       9.463  15.920  15.044  1.00  0.00    -0.646 OA
HETATM   15  O4  UNL     1      10.310  17.694  13.914  1.00  0.00    -0.646 OA
ENDBRANCH  10  13
ENDBRANCH   8  10
ENDBRANCH   6   8
ENDBRANCH   4   6
ENDBRANCH   2   4
ENDBRANCH   1   2
BRANCH   1  16
HETATM   16  O1  UNL     1      15.712  13.985  18.215  1.00  0.00    -0.344 OA
ATOM     17  H1  UNL     1      15.130  13.256  18.038  1.00  0.00     0.219 HD
ENDBRANCH   1  16
BRANCH   1  18
HETATM   18  C6  UNL     1      15.950  16.328  18.328  1.00  0.00     0.098 C
BRANCH  18  19
HETATM   19  N4  UNL     1      16.468  16.565  17.004  1.00  0.00    -0.323 N
HETATM   20  C7  UNL     1      15.876  17.191  15.926  1.00  0.00     0.218 C
HETATM   21  C8  UNL     1      16.701  17.282  14.633  1.00  0.00     0.117 C
HETATM   22  O2  UNL     1      14.753  17.680  15.922  1.00  0.00    -0.274 OA
ATOM     23  H4  UNL     1      17.413  16.219  16.838  1.00  0.00     0.169 HD
ENDBRANCH  18  19
BRANCH  18  24
HETATM   24  C9  UNL     1      16.865  16.552  19.435  1.00  0.00    -0.005 A
HETATM   25  C10 UNL     1      18.188  16.909  19.402  1.00  0.00     0.014 A
HETATM   26  C11 UNL     1      18.978  17.131  20.530  1.00  0.00     0.001 A
HETATM   27  C12 UNL     1      18.474  17.006  21.787  1.00  0.00     0.000 A
HETATM   28  C13 UNL     1      17.138  16.638  21.858  1.00  0.00     0.001 A
HETATM   29  C14 UNL     1      16.366  16.418  20.766  1.00  0.00     0.014 A
ENDBRANCH  18  24
ENDBRANCH   1  18
TORSDOF 11
ENDMDL