MODEL 4
REMARK VINA RESULT: -7.643281450      3.559      6.051
REMARK  7 active torsions:
REMARK  status: ('A' for Active; 'I' for Inactive)
REMARK       I    between atoms: C2_2  and  N1_4
REMARK    1  A    between atoms: N1_4  and  N2_5
REMARK       I    between atoms: N2_5  and  C3_7
REMARK    2  A    between atoms: C3_7  and  C4_9
REMARK    3  A    between atoms: C4_9  and  N3_10
REMARK       I    between atoms: N3_10  and  C5_12
REMARK    4  A    between atoms: C5_12  and  C6_14
REMARK    5  A    between atoms: C6_14  and  N4_15
REMARK    6  A    between atoms: C6_14  and  C15_28
REMARK       I    between atoms: N4_15  and  C7_17
REMARK       I    between atoms: C7_17  and  N5_19
REMARK    7  A    between atoms: N5_19  and  C8_21
ROOT
HETATM    1  C6  UNL     1      16.507  17.313  15.974  1.00  0.00     0.182 C
ENDROOT
BRANCH   1   2
HETATM    2  C5  UNL     1      17.080  17.973  14.824  1.00  0.00     0.244 C
HETATM    3  N3  UNL     1      17.844  17.307  13.819  1.00  0.00    -0.330 N
ATOM      4  H3  UNL     1      18.011  16.302  13.855  1.00  0.00     0.168 HD
HETATM    5  O3  UNL     1      17.000  19.239  14.561  1.00  0.00    -0.271 OA
BRANCH   3   6
HETATM    6  C4  UNL     1      18.365  18.117  12.758  1.00  0.00     0.167 C
BRANCH   6   7
HETATM    7  C3  UNL     1      19.775  18.028  12.514  1.00  0.00     0.285 C
HETATM    8  N2  UNL     1      20.512  16.860  12.101  1.00  0.00    -0.195 N
ATOM      9  H2  UNL     1      20.049  15.958  11.991  1.00  0.00     0.205 HD
HETATM   10  O2  UNL     1      20.458  19.081  12.663  1.00  0.00    -0.264 OA
BRANCH   8  11
HETATM   11  N1  UNL     1      21.875  17.003  11.857  1.00  0.00    -0.284 NA
HETATM   12  C2  UNL     1      23.143  17.145  11.621  1.00  0.00     0.308 C
HETATM   13  C1  UNL     1      24.197  16.305  12.357  1.00  0.00     0.137 C
HETATM   14  O1  UNL     1      23.740  17.932  10.797  1.00  0.00    -0.256 OA
ENDBRANCH   8  11
ENDBRANCH   6   7
ENDBRANCH   3   6
ENDBRANCH   1   2
BRANCH   1  15
HETATM   15  N4  UNL     1      15.533  16.329  15.510  1.00  0.00    -0.329 N
HETATM   16  C7  UNL     1      14.256  16.152  15.987  1.00  0.00     0.321 C
HETATM   17  O4  UNL     1      13.765  16.886  16.894  1.00  0.00    -0.247 OA
HETATM   18  N5  UNL     1      13.361  15.123  15.521  1.00  0.00    -0.308 N
ATOM     19  H5  UNL     1      13.547  14.534  14.710  1.00  0.00     0.170 HD
ATOM     20  H4  UNL     1      15.830  15.710  14.755  1.00  0.00     0.165 HD
BRANCH  18  21
HETATM   21  C8  UNL     1      12.164  15.018  16.338  1.00  0.00     0.042 A
HETATM   22  C9  UNL     1      12.198  14.279  17.433  1.00  0.00     0.030 A
HETATM   23  C10 UNL     1      11.083  14.063  18.286  1.00  0.00     0.002 A
HETATM   24  C11 UNL     1       9.929  14.720  17.847  1.00  0.00     0.001 A
HETATM   25  C12 UNL     1       9.889  15.463  16.748  1.00  0.00     0.009 A
HETATM   26  C13 UNL     1      11.024  15.630  15.954  1.00  0.00    -0.035 A
HETATM   27  C14 UNL     1      10.937  16.494  14.739  1.00  0.00     0.050 C
ENDBRANCH  18  21
ENDBRANCH   1  15
BRANCH   1  28
HETATM   28  C15 UNL     1      17.502  16.742  16.962  1.00  0.00     0.009 C
HETATM   29  C16 UNL     1      18.758  17.550  17.161  1.00  0.00     0.012 C
HETATM   30  C17 UNL     1      16.893  16.695  18.373  1.00  0.00     0.012 C
ENDBRANCH   1  28
TORSDOF 7
ENDMDL