MODEL 2
REMARK VINA RESULT: -8.344280714      2.814      8.892
REMARK  7 active torsions:
REMARK  status: ('A' for Active; 'I' for Inactive)
REMARK    1  A    between atoms: N3_4  and  C2_6
REMARK    2  A    between atoms: C2_6  and  C3_7
REMARK    3  A    between atoms: C2_6  and  C12_22
REMARK       I    between atoms: C3_7  and  N4_9
REMARK    4  A    between atoms: N4_9  and  N5_11
REMARK       I    between atoms: N5_11  and  C4_13
REMARK    5  A    between atoms: C4_13  and  C5_15
REMARK    6  A    between atoms: C5_15  and  C6_16
REMARK    7  A    between atoms: C12_22  and  C13_24
ROOT
HETATM    1  C3  UNL     1      13.124  16.130  17.589  1.00  0.00     0.290 C
HETATM    2  O1  UNL     1      13.167  16.618  18.783  1.00  0.00    -0.264 OA
HETATM    3  N4  UNL     1      14.380  16.081  16.911  1.00  0.00    -0.262 N
ATOM      4  H4  UNL     1      14.465  15.688  15.973  1.00  0.00     0.190 HD
ENDROOT
BRANCH   1   5
HETATM    5  C2  UNL     1      11.879  15.685  17.000  1.00  0.00     0.155 C
BRANCH   5   6
HETATM    6  N3  UNL     1      11.361  14.495  17.625  1.00  0.00    -0.325 N
HETATM    7  C1  UNL     1      10.221  14.387  18.156  1.00  0.00     0.201 C
HETATM    8  N1  UNL     1       9.789  13.184  18.746  1.00  0.00    -0.066 NA
HETATM    9  N2  UNL     1       9.341  15.495  18.157  1.00  0.00    -0.066 NA
ATOM     10  H3  UNL     1      11.964  13.672  17.639  1.00  0.00     0.168 HD
ENDBRANCH   5   6
BRANCH   5  11
HETATM   11  C12 UNL     1      11.790  15.761  15.555  1.00  0.00     0.214 C
HETATM   12  O3  UNL     1      12.334  14.819  14.851  1.00  0.00    -0.285 OA
BRANCH  11  13
HETATM   13  C13 UNL     1      11.156  16.787  14.731  1.00  0.00     0.017 A
HETATM   14  C14 UNL     1      11.875  17.951  14.384  1.00  0.00     0.015 A
HETATM   15  C15 UNL     1      11.333  18.949  13.612  1.00  0.00     0.001 A
HETATM   16  C16 UNL     1      10.052  18.860  13.135  1.00  0.00     0.000 A
HETATM   17  C17 UNL     1       9.321  17.753  13.445  1.00  0.00     0.001 A
HETATM   18  C18 UNL     1       9.893  16.734  14.241  1.00  0.00     0.015 A
ENDBRANCH  11  13
ENDBRANCH   5  11
ENDBRANCH   1   5
BRANCH   3  19
HETATM   19  N5  UNL     1      15.487  16.594  17.591  1.00  0.00    -0.267 N
HETATM   20  C4  UNL     1      16.354  15.840  18.414  1.00  0.00     0.240 C
HETATM   21  O2  UNL     1      16.173  14.603  18.606  1.00  0.00    -0.272 OA
ATOM     22  H5  UNL     1      15.684  17.590  17.486  1.00  0.00     0.190 HD
BRANCH  20  23
HETATM   23  C5  UNL     1      17.510  16.554  19.063  1.00  0.00     0.143 C
BRANCH  23  24
HETATM   24  C6  UNL     1      17.335  16.686  20.515  1.00  0.00    -0.049 A
HETATM   25  C7  UNL     1      16.159  16.471  21.172  1.00  0.00     0.007 A
HETATM   26  C8  UNL     1      16.052  16.593  22.551  1.00  0.00     0.001 A
HETATM   27  C9  UNL     1      17.147  16.943  23.316  1.00  0.00     0.000 A
HETATM   28  C10 UNL     1      18.317  17.158  22.650  1.00  0.00     0.001 A
HETATM   29  C11 UNL     1      18.442  17.043  21.292  1.00  0.00     0.007 A
ENDBRANCH  23  24
ENDBRANCH  20  23
ENDBRANCH   3  19
TORSDOF 7
ENDMDL