MODEL 1
REMARK VINA RESULT: -8.678932328      0.000      0.000
REMARK  9 active torsions:
REMARK  status: ('A' for Active; 'I' for Inactive)
REMARK       I    between atoms: C1_2  and  N1_3
REMARK       I    between atoms: C1_2  and  N2_8
REMARK    1  A    between atoms: N1_3  and  C2_5
REMARK    2  A    between atoms: C2_5  and  O2_6
REMARK    3  A    between atoms: N2_8  and  N3_10
REMARK    4  A    between atoms: N3_10  and  C3_12
REMARK    5  A    between atoms: C3_12  and  O3_13
REMARK    6  A    between atoms: C4_15  and  C5_16
REMARK    7  A    between atoms: C4_15  and  N4_23
REMARK    8  A    between atoms: C5_16  and  C6_17
REMARK       I    between atoms: N4_23  and  C12_25
REMARK    9  A    between atoms: C12_25  and  C13_27
ROOT
HETATM    1  C3  UNL     1      13.229  14.766  17.723  1.00  0.00     0.178 C
HETATM    2  C4  UNL     1      14.177  15.843  17.624  1.00  0.00     0.069 C
ENDROOT
BRANCH   2   3
HETATM    3  C5  UNL     1      13.955  16.951  16.700  1.00  0.00     0.100 C
BRANCH   3   4
HETATM    4  C6  UNL     1      14.859  16.908  15.531  1.00  0.00    -0.052 A
HETATM    5  C7  UNL     1      14.587  15.979  14.506  1.00  0.00     0.007 A
HETATM    6  C8  UNL     1      15.435  15.857  13.437  1.00  0.00     0.001 A
HETATM    7  C9  UNL     1      16.561  16.645  13.366  1.00  0.00     0.000 A
HETATM    8  C10 UNL     1      16.863  17.561  14.342  1.00  0.00     0.001 A
HETATM    9  C11 UNL     1      15.977  17.654  15.407  1.00  0.00     0.007 A
ENDBRANCH   3   4
ENDBRANCH   2   3
BRANCH   2  10
HETATM   10  N4  UNL     1      14.742  16.157  18.909  1.00  0.00    -0.322 N
HETATM   11  C12 UNL     1      16.133  16.137  19.120  1.00  0.00     0.256 C
HETATM   12  O4  UNL     1      16.934  15.842  18.207  1.00  0.00    -0.267 OA
ATOM     13  H4  UNL     1      14.123  16.397  19.683  1.00  0.00     0.169 HD
BRANCH  11  14
HETATM   14  C13 UNL     1      16.660  16.470  20.431  1.00  0.00     0.032 A
HETATM   15  C14 UNL     1      15.838  16.420  21.534  1.00  0.00     0.017 A
HETATM   16  C15 UNL     1      16.310  16.723  22.812  1.00  0.00     0.001 A
HETATM   17  C16 UNL     1      17.637  17.075  22.921  1.00  0.00     0.000 A
HETATM   18  C17 UNL     1      18.468  17.126  21.807  1.00  0.00     0.001 A
HETATM   19  C18 UNL     1      17.982  16.820  20.542  1.00  0.00     0.017 A
ENDBRANCH  11  14
ENDBRANCH   2  10
BRANCH   1  20
HETATM   20  N3  UNL     1      11.916  14.736  17.253  1.00  0.00    -0.275 N
ATOM     21  H3  UNL     1      11.712  15.074  16.313  1.00  0.00     0.189 HD
BRANCH  20  22
HETATM   22  N2  UNL     1      10.854  14.241  18.066  1.00  0.00    -0.250 N
HETATM   23  C1  UNL     1      10.262  15.131  18.972  1.00  0.00     0.336 C
HETATM   24  O1  UNL     1      10.661  16.310  19.053  1.00  0.00    -0.246 OA
HETATM   25  N1  UNL     1       9.209  14.699  19.804  1.00  0.00    -0.321 N
ATOM     26  H1  UNL     1       8.864  13.741  19.759  1.00  0.00     0.166 HD
ATOM     27  H2  UNL     1      10.537  13.274  17.990  1.00  0.00     0.192 HD
BRANCH  25  28
HETATM   28  C2  UNL     1       8.627  15.661  20.732  1.00  0.00     0.291 C
BRANCH  28  29
HETATM   29  O2  UNL     1       7.743  16.528  20.131  1.00  0.00    -0.382 OA
ATOM     30  H2  UNL     1       7.959  17.442  20.272  1.00  0.00     0.211 HD
ENDBRANCH  28  29
ENDBRANCH  25  28
ENDBRANCH  20  22
ENDBRANCH   1  20
BRANCH   1  31
HETATM   31  O3  UNL     1      13.598  13.657  18.330  1.00  0.00    -0.344 OA
ATOM     32  H3  UNL     1      12.941  13.311  18.922  1.00  0.00     0.219 HD
ENDBRANCH   1  31
TORSDOF 9
ENDMDL