MODEL 1
REMARK VINA RESULT: -8.366154122      0.000      0.000
REMARK  8 active torsions:
REMARK  status: ('A' for Active; 'I' for Inactive)
REMARK    1  A    between atoms: C2_2  and  C5_5
REMARK       I    between atoms: C5_5  and  N1_7
REMARK       I    between atoms: N1_7  and  C6_9
REMARK       I    between atoms: C6_9  and  N2_11
REMARK    2  A    between atoms: N2_11  and  N3_13
REMARK    3  A    between atoms: N3_13  and  C7_14
REMARK    4  A    between atoms: C7_14  and  C8_15
REMARK    5  A    between atoms: C7_14  and  C15_22
REMARK    6  A    between atoms: C8_15  and  C9_16
REMARK       I    between atoms: C15_22  and  N4_24
REMARK    7  A    between atoms: N4_24  and  C16_26
REMARK    8  A    between atoms: C16_26  and  C17_27
ROOT
HETATM    1  C7  UNL     1      14.465  16.466  17.552  1.00  0.00     0.195 C
ENDROOT
BRANCH   1   2
HETATM    2  N3  UNL     1      14.625  15.914  16.248  1.00  0.00    -0.122 NA
BRANCH   2   3
HETATM    3  N2  UNL     1      15.543  16.586  15.459  1.00  0.00    -0.255 N
HETATM    4  C6  UNL     1      15.804  16.146  14.172  1.00  0.00     0.338 C
HETATM    5  N1  UNL     1      16.720  16.753  13.315  1.00  0.00    -0.278 N
HETATM    6  O2  UNL     1      15.169  15.123  13.742  1.00  0.00    -0.245 OA
HETATM    7  C5  UNL     1      17.544  17.864  13.532  1.00  0.00     0.233 C
ATOM      8  H1  UNL     1      16.801  16.326  12.393  1.00  0.00     0.173 HD
HETATM    9  O1  UNL     1      17.573  18.528  14.593  1.00  0.00    -0.272 OA
ATOM     10  H2  UNL     1      16.028  17.405  15.826  1.00  0.00     0.187 HD
BRANCH   7  11
HETATM   11  C2  UNL     1      18.474  18.319  12.434  1.00  0.00     0.030 C
HETATM   12  C1  UNL     1      19.894  18.232  12.924  1.00  0.00     0.025 C
HETATM   13  C3  UNL     1      18.215  17.463  11.239  1.00  0.00     0.025 C
HETATM   14  C4  UNL     1      18.184  19.784  12.135  1.00  0.00     0.025 C
ENDBRANCH   7  11
ENDBRANCH   2   3
ENDBRANCH   1   2
BRANCH   1  15
HETATM   15  C8  UNL     1      14.969  15.536  18.638  1.00  0.00     0.071 C
BRANCH  15  16
HETATM   16  C9  UNL     1      16.176  16.083  19.308  1.00  0.00    -0.056 A
HETATM   17  C10 UNL     1      17.300  16.489  18.618  1.00  0.00     0.007 A
HETATM   18  C11 UNL     1      18.405  16.985  19.290  1.00  0.00     0.001 A
HETATM   19  C12 UNL     1      18.397  17.081  20.659  1.00  0.00     0.000 A
HETATM   20  C13 UNL     1      17.284  16.682  21.374  1.00  0.00     0.001 A
HETATM   21  C14 UNL     1      16.199  16.192  20.679  1.00  0.00     0.007 A
ENDBRANCH  15  16
ENDBRANCH   1  15
BRANCH   1  22
HETATM   22  C15 UNL     1      13.004  16.606  17.807  1.00  0.00     0.239 C
HETATM   23  O3  UNL     1      12.399  17.496  17.159  1.00  0.00    -0.272 OA
HETATM   24  N4  UNL     1      12.298  15.808  18.715  1.00  0.00    -0.350 N
ATOM     25  H4  UNL     1      12.792  15.090  19.247  1.00  0.00     0.163 HD
BRANCH  24  26
HETATM   26  C16 UNL     1      10.886  15.989  18.905  1.00  0.00     0.235 C
BRANCH  26  27
HETATM   27  C17 UNL     1      10.123  15.070  18.040  1.00  0.00     0.191 C
HETATM   28  O4  UNL     1       9.472  15.445  17.026  1.00  0.00    -0.647 OA
HETATM   29  O5  UNL     1      10.069  13.700  18.290  1.00  0.00    -0.647 OA
ENDBRANCH  26  27
ENDBRANCH  24  26
ENDBRANCH   1  22
TORSDOF 8
ENDMDL