MODEL 3
REMARK VINA RESULT: -3.688023302      5.767      7.629
REMARK  3 active torsions:
REMARK  status: ('A' for Active; 'I' for Inactive)
REMARK    1  A    between atoms: C2_2  and  N1_3
REMARK    2  A    between atoms: C2_2  and  C3_7
REMARK    3  A    between atoms: C7_11  and  N2_12
ROOT
HETATM    1  C3  UNL     1      -0.586  -7.035 -22.308  1.00  0.00     0.017 C
HETATM    2  C4  UNL     1      -1.871  -6.416 -21.795  1.00  0.00     0.007 C
HETATM    3  C5  UNL     1      -2.449  -7.394 -20.810  1.00  0.00     0.002 C
HETATM    4  C6  UNL     1      -2.631  -8.764 -21.317  1.00  0.00     0.033 C
HETATM    5  C7  UNL     1      -1.653  -9.253 -22.325  1.00  0.00     0.184 C
HETATM    6  C8  UNL     1      -1.018  -8.190 -23.170  1.00  0.00     0.039 C
ENDROOT
BRANCH   1   7
HETATM    7  C2  UNL     1       0.267  -6.045 -23.056  1.00  0.00     0.183 C
HETATM    8  C1  UNL     1       0.179  -6.184 -24.536  1.00  0.00     0.040 C
BRANCH   7   9
HETATM    9  N1  UNL     1       1.637  -6.239 -22.635  1.00  0.00    -0.075 N
ATOM     10  H13 UNL     1       1.778  -7.144 -22.185  1.00  0.00     0.274 HD
ATOM     11  H12 UNL     1       2.268  -6.369 -23.425  1.00  0.00     0.274 HD
ATOM     12  H11 UNL     1       1.921  -5.463 -22.038  1.00  0.00     0.274 HD
ENDBRANCH   7   9
ENDBRANCH   1   7
BRANCH   5  13
HETATM   13  N2  UNL     1      -0.584 -10.030 -21.714  1.00  0.00    -0.075 N
ATOM     14  H23 UNL     1      -0.417  -9.738 -20.752  1.00  0.00     0.274 HD
ATOM     15  H22 UNL     1      -0.876 -10.991 -21.542  1.00  0.00     0.274 HD
ATOM     16  H21 UNL     1       0.274  -9.996 -22.264  1.00  0.00     0.274 HD
ENDBRANCH   5  13
TORSDOF 3
ENDMDL