MODEL 1
REMARK VINA RESULT: -3.061917855      0.000      0.000
REMARK  1 active torsions:
REMARK  status: ('A' for Active; 'I' for Inactive)
REMARK    1  A    between atoms: C2_2  and  C3_3
ROOT
HETATM    1  C3  UNL     1       6.701  -8.829 -29.079  1.00  0.00     0.200 C
HETATM    2  N1  UNL     1       7.483  -7.666 -28.929  1.00  0.00    -0.070 N
ATOM      3  H11 UNL     1       7.053  -6.946 -28.348  1.00  0.00     0.277 HD
ATOM      4  H12 UNL     1       7.555  -7.101 -29.774  1.00  0.00     0.277 HD
HETATM    5  C4  UNL     1       8.756  -8.147 -28.429  1.00  0.00     0.234 C
HETATM    6  C5  UNL     1       8.864  -9.598 -28.785  1.00  0.00     0.045 C
HETATM    7  C6  UNL     1       7.636  -9.828 -29.680  1.00  0.00     0.090 C
HETATM    8  S1  UNL     1       8.138  -9.467 -31.353  1.00  0.00    -0.090 SA
ENDROOT
BRANCH   1   9
HETATM    9  C2  UNL     1       5.395  -8.685 -29.762  1.00  0.00     0.030 C
HETATM   10  C1  UNL     1       4.214  -8.466 -28.907  1.00  0.00     0.007 C
ENDBRANCH   1   9
TORSDOF 1
ENDMDL