MODEL 4
REMARK VINA RESULT: -3.568006676      9.688     10.840
REMARK  1 active torsions:
REMARK  status: ('A' for Active; 'I' for Inactive)
REMARK    1  A    between atoms: C2_2  and  C3_3
ROOT
HETATM    1  C3  UNL     1       8.312  -8.875 -29.684  1.00  0.00     0.130 C
HETATM    2  C4  UNL     1       9.328  -7.724 -29.743  1.00  0.00     0.070 C
HETATM    3  N1  UNL     1       8.336  -9.536 -30.923  1.00  0.00    -0.369 N
ATOM      4  H1  UNL     1       9.215  -9.864 -31.325  1.00  0.00     0.157 HD
HETATM    5  C5  UNL     1       7.112  -9.734 -31.597  1.00  0.00     0.355 C
HETATM    6  N2  UNL     1       5.994  -9.818 -30.691  1.00  0.00    -0.034 N
ATOM      7  H21 UNL     1       5.993 -10.674 -30.136  1.00  0.00     0.282 HD
ATOM      8  H22 UNL     1       5.104  -9.970 -31.166  1.00  0.00     0.282 HD
HETATM    9  C6  UNL     1       6.009  -8.623 -29.886  1.00  0.00     0.321 C
HETATM   10  C7  UNL     1       4.867  -8.704 -28.891  1.00  0.00     0.071 C
HETATM   11  O1  UNL     1       7.154  -8.383 -29.216  1.00  0.00    -0.329 OA
ENDROOT
BRANCH   1  12
HETATM   12  C2  UNL     1       8.878  -9.834 -28.626  1.00  0.00     0.056 C
HETATM   13  C1  UNL     1      10.070 -10.581 -29.130  1.00  0.00     0.010 C
ENDBRANCH   1  12
TORSDOF 1
ENDMDL