MODEL 1
REMARK VINA RESULT: -3.286137963      0.000      0.000
REMARK  2 active torsions:
REMARK  status: ('A' for Active; 'I' for Inactive)
REMARK    1  A    between atoms: S1_2  and  C2_3
REMARK    2  A    between atoms: C6_7  and  N1_8
ROOT
HETATM    1  C2  UNL     1       1.438  -2.229 -23.848  1.00  0.00     0.077 C
HETATM    2  C3  UNL     1       1.628  -1.575 -22.510  1.00  0.00     0.017 C
HETATM    3  C4  UNL     1       2.971  -2.027 -21.977  1.00  0.00     0.003 C
HETATM    4  C5  UNL     1       3.704  -2.675 -23.117  1.00  0.00     0.034 C
HETATM    5  C6  UNL     1       2.674  -3.028 -24.148  1.00  0.00     0.197 C
ENDROOT
BRANCH   5   6
HETATM    6  N1  UNL     1       3.141  -2.789 -25.507  1.00  0.00    -0.074 N
ATOM      7  H13 UNL     1       3.623  -3.603 -25.886  1.00  0.00     0.274 HD
ATOM      8  H12 UNL     1       2.366  -2.744 -26.167  1.00  0.00     0.274 HD
ATOM      9  H11 UNL     1       3.724  -1.952 -25.556  1.00  0.00     0.274 HD
ENDBRANCH   5   6
BRANCH   1  10
HETATM   10  S1  UNL     1       0.019  -3.337 -23.906  1.00  0.00    -0.167 SA
HETATM   11  C1  UNL     1       0.048  -4.581 -22.598  1.00  0.00     0.090 C
ENDBRANCH   1  10
TORSDOF 2
ENDMDL