MODEL 1
REMARK VINA RESULT: -3.666445135      0.000      0.000
REMARK  1 active torsions:
REMARK  status: ('A' for Active; 'I' for Inactive)
REMARK    1  A    between atoms: N1_2  and  C2_5
ROOT
HETATM    1  C2  UNL     1       2.039  -2.950 -24.478  1.00  0.00     0.187 C
HETATM    2  C3  UNL     1       1.614  -4.405 -24.361  1.00  0.00     0.034 C
HETATM    3  C4  UNL     1       0.779  -4.700 -23.169  1.00  0.00     0.029 C
HETATM    4  C5  UNL     1       0.347  -3.516 -22.373  1.00  0.00     0.232 C
HETATM    5  N2  UNL     1       1.383  -3.015 -21.487  1.00  0.00    -0.071 N
ATOM      6  H21 UNL     1       2.017  -3.745 -21.161  1.00  0.00     0.277 HD
ATOM      7  H22 UNL     1       1.026  -2.734 -20.574  1.00  0.00     0.277 HD
HETATM    8  C6  UNL     1       2.070  -1.931 -22.191  1.00  0.00     0.183 C
HETATM    9  C7  UNL     1       3.030  -1.222 -21.258  1.00  0.00     0.040 C
HETATM   10  C8  UNL     1       2.885  -2.556 -23.284  1.00  0.00     0.065 C
ENDROOT
BRANCH   1  11
HETATM   11  N1  UNL     1       2.886  -2.818 -25.642  1.00  0.00    -0.075 N
HETATM   12  C1  UNL     1       2.155  -2.812 -26.891  1.00  0.00     0.267 C
ATOM     13  H12 UNL     1       3.607  -3.540 -25.647  1.00  0.00     0.277 HD
ATOM     14  H11 UNL     1       3.477  -1.989 -25.565  1.00  0.00     0.277 HD
ENDBRANCH   1  11
TORSDOF 1
ENDMDL