MODEL 3
REMARK VINA RESULT: -3.566723481      4.559      6.210
REMARK  2 active torsions:
REMARK  status: ('A' for Active; 'I' for Inactive)
REMARK    1  A    between atoms: C6_6  and  C7_7
REMARK    2  A    between atoms: C7_7  and  N1_9
ROOT
HETATM    1  C1  UNL     1       0.594  -2.459 -21.420  1.00  0.00     0.040 C
HETATM    2  C2  UNL     1       1.517  -2.268 -22.606  1.00  0.00     0.182 C
HETATM    3  C3  UNL     1       2.961  -2.283 -22.242  1.00  0.00     0.032 C
HETATM    4  C4  UNL     1       3.857  -2.919 -23.243  1.00  0.00     0.004 C
HETATM    5  C5  UNL     1       3.349  -2.883 -24.651  1.00  0.00     0.035 C
HETATM    6  C6  UNL     1       1.900  -3.163 -24.800  1.00  0.00     0.216 C
HETATM    7  N2  UNL     1       1.219  -3.342 -23.533  1.00  0.00    -0.065 N
ATOM      8  H21 UNL     1       0.214  -3.452 -23.665  1.00  0.00     0.278 HD
ATOM      9  H22 UNL     1       1.427  -4.253 -23.125  1.00  0.00     0.278 HD
ENDROOT
BRANCH   6  10
HETATM   10  C7  UNL     1       1.591  -4.386 -25.635  1.00  0.00     0.209 C
HETATM   11  C8  UNL     1       1.385  -5.615 -24.785  1.00  0.00     0.042 C
BRANCH  10  12
HETATM   12  N1  UNL     1       2.704  -4.641 -26.519  1.00  0.00    -0.073 N
ATOM     13  H13 UNL     1       2.800  -3.927 -27.240  1.00  0.00     0.274 HD
ATOM     14  H12 UNL     1       3.605  -4.501 -26.060  1.00  0.00     0.274 HD
ATOM     15  H11 UNL     1       2.607  -5.578 -26.909  1.00  0.00     0.274 HD
ENDBRANCH  10  12
ENDBRANCH   6  10
TORSDOF 2
ENDMDL