MODEL 5
REMARK VINA RESULT: -2.930807215      2.463      3.821
REMARK  1 active torsions:
REMARK  status: ('A' for Active; 'I' for Inactive)
REMARK    1  A    between atoms: C2_2  and  C3_4
ROOT
HETATM    1  C3  UNL     1       1.244  -1.233 -21.878  1.00  0.00     0.200 C
HETATM    2  C4  UNL     1       2.706  -1.299 -21.491  1.00  0.00     0.036 C
HETATM    3  C5  UNL     1       3.136  -2.563 -22.251  1.00  0.00     0.029 C
HETATM    4  C6  UNL     1       1.862  -3.176 -22.775  1.00  0.00     0.233 C
HETATM    5  N1  UNL     1       0.879  -2.639 -21.821  1.00  0.00    -0.070 N
ATOM      6  H11 UNL     1      -0.099  -2.858 -22.012  1.00  0.00     0.277 HD
ATOM      7  H12 UNL     1       0.872  -3.065 -20.894  1.00  0.00     0.277 HD
ENDROOT
BRANCH   1   8
HETATM    8  C2  UNL     1       0.489  -0.403 -20.879  1.00  0.00     0.085 C
HETATM    9  C1  UNL     1       1.281   0.753 -20.362  1.00  0.00     0.024 C
HETATM   10  S1  UNL     1       0.126  -1.498 -19.455  1.00  0.00    -0.091 SA
ENDBRANCH   1   8
TORSDOF 1
ENDMDL