MODEL 2
REMARK VINA RESULT: -2.980203189     11.706     12.431
REMARK  2 active torsions:
REMARK  status: ('A' for Active; 'I' for Inactive)
REMARK    1  A    between atoms: C2_2  and  C3_3
REMARK    2  A    between atoms: C6_7  and  N1_8
ROOT
HETATM    1  C1  UNL     1       7.301  -9.273 -28.892  1.00  0.00     0.018 C
HETATM    2  C2  UNL     1       8.544  -8.977 -29.698  1.00  0.00    -0.007 C
HETATM    3  C4  UNL     1       9.828  -9.532 -29.105  1.00  0.00     0.014 C
HETATM    4  C5  UNL     1      10.069  -8.181 -28.477  1.00  0.00     0.034 C
HETATM    5  C6  UNL     1       9.036  -7.595 -29.414  1.00  0.00     0.192 C
ENDROOT
BRANCH   5   6
HETATM    6  N1  UNL     1       9.608  -6.876 -30.507  1.00  0.00    -0.074 N
ATOM      7  H13 UNL     1      10.006  -6.000 -30.168  1.00  0.00     0.274 HD
ATOM      8  H12 UNL     1      10.450  -7.354 -30.826  1.00  0.00     0.274 HD
ATOM      9  H11 UNL     1       9.001  -6.687 -31.304  1.00  0.00     0.274 HD
ENDBRANCH   5   6
BRANCH   2  10
HETATM   10  C3  UNL     1       8.451  -9.372 -31.148  1.00  0.00     0.097 C
HETATM   11  S1  UNL     1       6.826  -9.894 -31.661  1.00  0.00    -0.097 SA
ENDBRANCH   2  10
TORSDOF 2
ENDMDL