MODEL 3
REMARK VINA RESULT: -3.539119966      5.592      7.076
REMARK  2 active torsions:
REMARK  status: ('A' for Active; 'I' for Inactive)
REMARK    1  A    between atoms: C2_2  and  N1_3
REMARK    2  A    between atoms: C4_8  and  C5_9
ROOT
HETATM    1  C1  UNL     1       1.753  -4.586 -24.955  1.00  0.00     0.078 C
HETATM    2  C2  UNL     1       2.302  -3.287 -24.394  1.00  0.00     0.283 C
HETATM    3  C3  UNL     1       1.236  -2.251 -24.088  1.00  0.00     0.102 C
HETATM    4  C4  UNL     1       1.349  -2.661 -22.683  1.00  0.00     0.200 C
HETATM    5  N2  UNL     1       2.556  -3.424 -22.992  1.00  0.00    -0.036 N
ATOM      6  H21 UNL     1       3.453  -3.127 -22.609  1.00  0.00     0.280 HD
ATOM      7  H22 UNL     1       2.685  -4.352 -22.589  1.00  0.00     0.280 HD
ENDROOT
BRANCH   2   8
HETATM    8  N1  UNL     1       3.350  -2.743 -25.196  1.00  0.00    -0.045 N
ATOM      9  H13 UNL     1       3.675  -3.421 -25.885  1.00  0.00     0.277 HD
ATOM     10  H12 UNL     1       2.994  -2.025 -25.826  1.00  0.00     0.277 HD
ATOM     11  H11 UNL     1       4.126  -2.388 -24.637  1.00  0.00     0.277 HD
ENDBRANCH   2   8
BRANCH   4  12
HETATM   12  C5  UNL     1       1.619  -1.635 -21.636  1.00  0.00    -0.023 C
HETATM   13  C6  UNL     1       3.063  -1.324 -21.413  1.00  0.00     0.016 C
HETATM   14  C7  UNL     1       0.907  -0.344 -21.989  1.00  0.00     0.016 C
HETATM   15  C8  UNL     1       1.031  -2.091 -20.303  1.00  0.00     0.016 C
ENDBRANCH   4  12
TORSDOF 2
ENDMDL