MODEL 4
REMARK VINA RESULT: -3.517176708      2.448      4.493
REMARK  2 active torsions:
REMARK  status: ('A' for Active; 'I' for Inactive)
REMARK    1  A    between atoms: C2_2  and  C3_3
REMARK    2  A    between atoms: C7_7  and  N1_8
ROOT
HETATM    1  C3  UNL     1       1.567  -2.902 -22.542  1.00  0.00     0.188 C
HETATM    2  C4  UNL     1       2.939  -2.460 -22.244  1.00  0.00     0.033 C
HETATM    3  C5  UNL     1       3.121  -1.283 -21.378  1.00  0.00     0.006 C
HETATM    4  C6  UNL     1       1.796  -0.714 -20.852  1.00  0.00     0.062 C
HETATM    5  C7  UNL     1       1.034  -1.970 -20.439  1.00  0.00     0.380 C
HETATM    6  N2  UNL     1       0.534  -2.521 -21.652  1.00  0.00    -0.042 N
ATOM      7  H21 UNL     1      -0.097  -3.301 -21.467  1.00  0.00     0.280 HD
ATOM      8  H22 UNL     1      -0.121  -1.883 -22.102  1.00  0.00     0.280 HD
ENDROOT
BRANCH   5   9
HETATM    9  N1  UNL     1       0.046  -1.698 -19.447  1.00  0.00    -0.050 N
ATOM     10  H13 UNL     1       0.135  -0.747 -19.088  1.00  0.00     0.276 HD
ATOM     11  H12 UNL     1      -0.884  -1.627 -19.861  1.00  0.00     0.276 HD
ATOM     12  H11 UNL     1       0.062  -2.382 -18.691  1.00  0.00     0.276 HD
ENDBRANCH   5   9
BRANCH   1  13
HETATM   13  C2  UNL     1       1.539  -4.436 -22.643  1.00  0.00     0.028 C
HETATM   14  C1  UNL     1       0.139  -4.967 -22.644  1.00  0.00     0.007 C
ENDBRANCH   1  13
TORSDOF 2
ENDMDL