MODEL 2
REMARK VINA RESULT: -7.384754251      2.242      3.610
REMARK  16 active torsions:
REMARK  status: ('A' for Active; 'I' for Inactive)
REMARK    1  A    between atoms: C2_2  and  C3_3
REMARK    2  A    between atoms: C3_3  and  C4_4
REMARK    3  A    between atoms: N1_6  and  C6_7
REMARK    4  A    between atoms: C8_9  and  C9_10
REMARK       I    between atoms: C9_10  and  N2_12
REMARK    5  A    between atoms: N2_12  and  C10_14
REMARK    6  A    between atoms: C10_14  and  C11_15
REMARK    7  A    between atoms: C10_14  and  C17_23
REMARK    8  A    between atoms: C11_15  and  C12_16
REMARK    9  A    between atoms: C12_16  and  O3_18
REMARK   10  A    between atoms: O3_18  and  C13_19
REMARK   11  A    between atoms: C17_23  and  O5_25
REMARK   12  A    between atoms: O5_25  and  C18_26
REMARK   13  A    between atoms: C18_26  and  C19_27
REMARK   14  A    between atoms: C19_27  and  C20_28
REMARK   15  A    between atoms: C24_35  and  C25_36
REMARK       I    between atoms: C25_36  and  N4_38
REMARK   16  A    between atoms: N4_38  and  C26_40
ROOT
HETATM    1  C9  UNL     1      -7.962  15.039  27.709  1.00  0.00     0.269 C
HETATM    2  O1  UNL     1      -8.102  13.778  27.558  1.00  0.00    -0.269 OA
HETATM    3  N2  UNL     1      -8.607  15.619  28.819  1.00  0.00    -0.344 N
ATOM      4  H2  UNL     1      -8.521  16.621  28.987  1.00  0.00     0.163 HD
ENDROOT
BRANCH   1   5
HETATM    5  C8  UNL     1      -7.136  15.767  26.712  1.00  0.00     0.379 C
HETATM    6  N1  UNL     1      -7.288  17.169  26.803  1.00  0.00    -0.359 N
HETATM    7  C5  UNL     1      -8.526  17.704  26.292  1.00  0.00     0.131 C
HETATM    8  C4  UNL     1      -8.486  17.578  24.777  1.00  0.00     0.044 C
HETATM    9  C24 UNL     1      -7.591  16.445  24.434  1.00  0.00     0.285 C
HETATM   10  N3  UNL     1      -7.736  15.381  25.406  1.00  0.00    -0.032 N
ATOM     11  H32 UNL     1      -7.354  14.501  25.062  1.00  0.00     0.281 HD
ATOM     12  H31 UNL     1      -8.711  15.097  25.509  1.00  0.00     0.281 HD
BRANCH   6  13
HETATM   13  C6  UNL     1      -6.795  17.870  27.911  1.00  0.00     0.056 C
HETATM   14  C7  UNL     1      -5.352  17.759  28.231  1.00  0.00     0.054 C
ENDBRANCH   6  13
BRANCH   8  15
HETATM   15  C3  UNL     1      -9.869  17.478  24.193  1.00  0.00     0.008 C
BRANCH  15  16
HETATM   16  C2  UNL     1     -10.626  16.283  24.788  1.00  0.00    -0.004 C
HETATM   17  C1  UNL     1     -11.384  15.566  23.668  1.00  0.00     0.005 C
ENDBRANCH  15  16
ENDBRANCH   8  15
BRANCH   9  18
HETATM   18  C25 UNL     1      -7.769  15.868  23.091  1.00  0.00     0.249 C
HETATM   19  O6  UNL     1      -7.872  14.608  22.987  1.00  0.00    -0.271 OA
HETATM   20  N4  UNL     1      -7.824  16.709  21.939  1.00  0.00    -0.351 N
ATOM     21  H4  UNL     1      -7.739  17.717  22.067  1.00  0.00     0.163 HD
BRANCH  20  22
HETATM   22  C26 UNL     1      -7.993  16.196  20.606  1.00  0.00     0.022 C
HETATM   23  C27 UNL     1      -9.367  15.572  20.499  1.00  0.00     0.037 C
HETATM   24  C28 UNL     1      -7.991  17.353  19.599  1.00  0.00     0.037 C
HETATM   25  C29 UNL     1      -6.933  15.240  20.176  1.00  0.00     0.037 C
ENDBRANCH  20  22
ENDBRANCH   9  18
ENDBRANCH   1   5
BRANCH   3  26
HETATM   26  C10 UNL     1      -9.383  14.812  29.713  1.00  0.00     0.193 C
BRANCH  26  27
HETATM   27  C11 UNL     1     -10.856  14.887  29.560  1.00  0.00     0.146 C
BRANCH  27  28
HETATM   28  C12 UNL     1     -11.343  15.230  28.223  1.00  0.00     0.262 C
HETATM   29  O2  UNL     1     -11.459  16.442  27.896  1.00  0.00    -0.265 OA
BRANCH  28  30
HETATM   30  O3  UNL     1     -11.695  14.312  27.258  1.00  0.00    -0.311 OA
BRANCH  30  31
HETATM   31  C13 UNL     1     -12.806  13.473  27.309  1.00  0.00     0.060 C
HETATM   32  C14 UNL     1     -14.028  14.100  27.929  1.00  0.00     0.045 C
HETATM   33  C15 UNL     1     -12.555  12.156  27.996  1.00  0.00     0.045 C
HETATM   34  C16 UNL     1     -13.185  13.140  25.858  1.00  0.00     0.045 C
ENDBRANCH  30  31
ENDBRANCH  28  30
ENDBRANCH  27  28
ENDBRANCH  26  27
BRANCH  26  35
HETATM   35  C17 UNL     1      -9.004  15.084  31.151  1.00  0.00     0.282 C
HETATM   36  O4  UNL     1      -8.923  16.286  31.481  1.00  0.00    -0.263 OA
BRANCH  35  37
HETATM   37  O5  UNL     1      -8.755  14.102  32.061  1.00  0.00    -0.320 OA
BRANCH  37  38
HETATM   38  C18 UNL     1      -9.356  14.040  33.350  1.00  0.00     0.179 C
BRANCH  38  39
HETATM   39  C19 UNL     1     -10.784  13.598  33.130  1.00  0.00     0.035 C
BRANCH  39  40
HETATM   40  C20 UNL     1     -11.765  14.577  33.749  1.00  0.00    -0.050 C
HETATM   41  C21 UNL     1     -12.825  14.943  32.748  1.00  0.00     0.014 C
HETATM   42  C22 UNL     1     -12.373  13.935  34.975  1.00  0.00     0.014 C
HETATM   43  C23 UNL     1     -11.055  15.833  34.183  1.00  0.00     0.014 C
ENDBRANCH  39  40
ENDBRANCH  38  39
ENDBRANCH  37  38
ENDBRANCH  35  37
ENDBRANCH  26  35
ENDBRANCH   3  26
TORSDOF 16
ENDMDL