MODEL 4
REMARK VINA RESULT: -5.982362816      2.889      8.751
REMARK  11 active torsions:
REMARK  status: ('A' for Active; 'I' for Inactive)
REMARK    1  A    between atoms: C2_2  and  C3_3
REMARK    2  A    between atoms: C3_3  and  C4_4
REMARK    3  A    between atoms: C4_4  and  C5_5
REMARK    4  A    between atoms: C5_5  and  C6_6
REMARK    5  A    between atoms: C6_6  and  C7_7
REMARK    6  A    between atoms: N3_20  and  C13_21
REMARK    7  A    between atoms: C13_21  and  C14_22
REMARK    8  A    between atoms: C14_22  and  N4_23
REMARK    9  A    between atoms: C20_29  and  C21_30
REMARK   10  A    between atoms: N6_35  and  C24_36
REMARK   11  A    between atoms: C24_36  and  C25_37
ROOT
HETATM    1  C5  UNL     1     -11.391  14.939  27.627  1.00  0.00     0.099 C
HETATM    2  C9  UNL     1     -10.525  15.417  26.498  1.00  0.00     0.214 C
HETATM    3  O1  UNL     1     -11.144  15.299  25.452  1.00  0.00    -0.290 OA
HETATM    4  C10 UNL     1      -9.210  15.965  26.242  1.00  0.00     0.262 C
HETATM    5  N1  UNL     1      -8.985  16.265  24.852  1.00  0.00    -0.301 N
ATOM      6  H1  UNL     1      -9.176  17.168  24.415  1.00  0.00     0.167 HD
HETATM    7  C11 UNL     1      -8.458  15.123  24.166  1.00  0.00     0.325 C
HETATM    8  O2  UNL     1      -8.446  14.942  22.930  1.00  0.00    -0.247 OA
HETATM    9  N2  UNL     1      -7.952  14.246  25.194  1.00  0.00    -0.275 N
ATOM     10  H2  UNL     1      -7.507  13.339  25.049  1.00  0.00     0.173 HD
HETATM   11  C12 UNL     1      -8.184  14.869  26.426  1.00  0.00     0.283 C
HETATM   12  O3  UNL     1      -7.663  14.605  27.516  1.00  0.00    -0.268 OA
HETATM   13  N3  UNL     1      -8.846  17.054  27.086  1.00  0.00    -0.315 N
HETATM   14  C17 UNL     1      -8.980  16.975  28.519  1.00  0.00     0.063 A
HETATM   15  C18 UNL     1      -8.065  17.817  29.151  1.00  0.00     0.033 A
HETATM   16  C19 UNL     1      -7.977  17.945  30.529  1.00  0.00     0.019 A
HETATM   17  C20 UNL     1      -8.810  17.227  31.328  1.00  0.00     0.031 A
HETATM   18  C22 UNL     1      -9.723  16.388  30.727  1.00  0.00     0.048 A
HETATM   19  C23 UNL     1      -9.827  16.245  29.345  1.00  0.00     0.059 A
HETATM   20  N6  UNL     1     -10.851  15.316  28.952  1.00  0.00    -0.357 N
ENDROOT
BRANCH  13  21
HETATM   21  C13 UNL     1      -8.364  18.265  26.575  1.00  0.00     0.098 C
BRANCH  21  22
HETATM   22  C14 UNL     1      -6.906  18.553  26.624  1.00  0.00     0.316 C
BRANCH  22  23
HETATM   23  N4  UNL     1      -6.296  18.296  25.333  1.00  0.00     0.084 N
HETATM   24  C15 UNL     1      -5.473  19.333  24.823  1.00  0.00     0.309 C
HETATM   25  C16 UNL     1      -5.474  17.076  25.397  1.00  0.00     0.309 C
ENDBRANCH  22  23
ENDBRANCH  21  22
ENDBRANCH  13  21
BRANCH   1  26
HETATM   26  C4  UNL     1     -11.493  13.469  27.551  1.00  0.00     0.039 C
BRANCH  26  27
HETATM   27  C3  UNL     1     -12.152  12.826  26.363  1.00  0.00     0.002 C
BRANCH  27  28
HETATM   28  C2  UNL     1     -13.069  11.737  27.035  1.00  0.00    -0.004 C
HETATM   29  C1  UNL     1     -12.780  11.642  28.498  1.00  0.00     0.005 C
ENDBRANCH  27  28
ENDBRANCH  26  27
ENDBRANCH   1  26
BRANCH   1  30
HETATM   30  C6  UNL     1     -12.690  15.669  27.612  1.00  0.00     0.039 C
BRANCH  30  31
HETATM   31  C7  UNL     1     -13.981  15.050  27.367  1.00  0.00    -0.002 C
HETATM   32  C8  UNL     1     -14.527  14.748  28.822  1.00  0.00     0.005 C
ENDBRANCH  30  31
ENDBRANCH   1  30
BRANCH  20  33
HETATM   33  C24 UNL     1     -11.443  14.661  30.076  1.00  0.00     0.183 C
BRANCH  33  34
HETATM   34  C25 UNL     1     -10.568  14.189  31.154  1.00  0.00     0.045 A
HETATM   35  C26 UNL     1      -9.272  13.773  31.152  1.00  0.00     0.115 A
HETATM   36  N7  UNL     1      -8.893  13.447  32.381  1.00  0.00    -0.360 N
HETATM   37  C27 UNL     1      -9.949  13.655  33.184  1.00  0.00     0.182 A
ATOM     38  H7  UNL     1      -7.974  13.105  32.662  1.00  0.00     0.166 HD
HETATM   39  N8  UNL     1     -10.968  14.104  32.450  1.00  0.00    -0.348 N
HETATM   40  C28 UNL     1     -12.273  14.432  33.008  1.00  0.00     0.157 C
ENDBRANCH  33  34
ENDBRANCH  20  33
BRANCH  17  41
HETATM   41  C21 UNL     1      -8.786  17.296  32.775  1.00  0.00     0.265 C
HETATM   42  N5  UNL     1     -10.011  17.244  33.489  1.00  0.00    -0.057 NA
HETATM   43  O4  UNL     1      -7.705  17.401  33.430  1.00  0.00    -0.271 OA
ENDBRANCH  17  41
TORSDOF 11
ENDMDL