MODEL 4
REMARK VINA RESULT: -9.045724845      1.411      2.267
REMARK  12 active torsions:
REMARK  status: ('A' for Active; 'I' for Inactive)
REMARK    1  A    between atoms: O1_2  and  C2_3
REMARK    2  A    between atoms: C4_7  and  C5_8
REMARK    3  A    between atoms: C6_9  and  C7_10
REMARK       I    between atoms: C7_10  and  N2_12
REMARK    4  A    between atoms: N3_15  and  C10_16
REMARK    5  A    between atoms: C10_16  and  C11_17
REMARK    6  A    between atoms: C11_17  and  C12_18
REMARK    7  A    between atoms: C12_18  and  C13_19
REMARK    8  A    between atoms: C13_19  and  N4_20
REMARK       I    between atoms: N4_20  and  C14_22
REMARK    9  A    between atoms: C14_22  and  C15_24
REMARK   10  A    between atoms: C15_24  and  C16_25
REMARK   11  A    between atoms: C15_24  and  N5_36
REMARK   12  A    between atoms: C16_25  and  C17_26
ROOT
HETATM    1  N5  UNL     1     -12.596  15.488  28.355  1.00  0.00    -0.315 N
ATOM      2  H5  UNL     1     -12.672  15.806  27.388  1.00  0.00     0.172 HD
HETATM    3  C27 UNL     1     -13.600  14.639  28.868  1.00  0.00     0.178 C
HETATM    4  N6  UNL     1     -14.425  13.944  29.300  1.00  0.00    -0.172 NA
ENDROOT
BRANCH   1   5
HETATM    5  C15 UNL     1     -11.455  15.929  29.145  1.00  0.00     0.184 C
BRANCH   5   6
HETATM    6  C14 UNL     1     -10.536  16.691  28.192  1.00  0.00     0.241 C
HETATM    7  N4  UNL     1      -9.198  16.261  28.114  1.00  0.00    -0.359 N
ATOM      8  H4  UNL     1      -8.894  15.469  28.680  1.00  0.00     0.162 HD
HETATM    9  O3  UNL     1     -10.942  17.645  27.515  1.00  0.00    -0.271 OA
BRANCH   7  10
HETATM   10  C13 UNL     1      -8.260  16.910  27.260  1.00  0.00     0.122 C
BRANCH  10  11
HETATM   11  C12 UNL     1      -6.904  16.302  27.353  1.00  0.00     0.021 C
BRANCH  11  12
HETATM   12  C11 UNL     1      -5.808  17.380  27.367  1.00  0.00     0.032 C
BRANCH  12  13
HETATM   13  C10 UNL     1      -6.117  18.425  26.328  1.00  0.00     0.272 C
BRANCH  13  14
HETATM   14  N3  UNL     1      -4.966  18.674  25.526  1.00  0.00     0.091 N
HETATM   15  C9  UNL     1      -5.098  19.836  24.680  1.00  0.00     0.292 C
HETATM   16  C8  UNL     1      -5.843  19.604  23.430  1.00  0.00     0.156 C
HETATM   17  N2  UNL     1      -6.006  18.260  22.988  1.00  0.00    -0.345 N
HETATM   18  C7  UNL     1      -6.767  17.984  21.757  1.00  0.00     0.243 C
HETATM   19  C29 UNL     1      -5.458  17.144  23.670  1.00  0.00     0.156 C
HETATM   20  O2  UNL     1      -7.166  19.000  21.205  1.00  0.00    -0.268 OA
HETATM   21  C28 UNL     1      -4.502  17.580  24.739  1.00  0.00     0.292 C
BRANCH  18  22
HETATM   22  C6  UNL     1      -6.947  16.651  21.364  1.00  0.00     0.075 C
HETATM   23  C5  UNL     1      -7.758  15.717  21.702  1.00  0.00     0.020 C
BRANCH  23  24
HETATM   24  C4  UNL     1      -8.837  15.641  22.618  1.00  0.00    -0.005 A
HETATM   25  C3  UNL     1      -8.561  15.007  23.849  1.00  0.00     0.104 A
HETATM   26  N1  UNL     1      -9.552  14.822  24.711  1.00  0.00    -0.331 N
HETATM   27  C2  UNL     1     -10.817  15.190  24.513  1.00  0.00     0.222 A
ATOM     28  H1  UNL     1      -9.328  14.363  25.594  1.00  0.00     0.168 HD
HETATM   29  N7  UNL     1     -11.105  15.794  23.351  1.00  0.00    -0.331 N
HETATM   30  C30 UNL     1     -10.114  16.013  22.411  1.00  0.00     0.104 A
ATOM     31  H7  UNL     1     -12.061  16.094  23.159  1.00  0.00     0.168 HD
BRANCH  27  32
HETATM   32  O1  UNL     1     -11.761  14.945  25.485  1.00  0.00    -0.327 OA
HETATM   33  C1  UNL     1     -12.375  13.680  25.562  1.00  0.00     0.213 C
ENDBRANCH  27  32
ENDBRANCH  23  24
ENDBRANCH  18  22
ENDBRANCH  13  14
ENDBRANCH  12  13
ENDBRANCH  11  12
ENDBRANCH  10  11
ENDBRANCH   7  10
ENDBRANCH   5   6
BRANCH   5  34
HETATM   34  C16 UNL     1     -10.628  14.849  29.716  1.00  0.00     0.045 C
BRANCH  34  35
HETATM   35  C17 UNL     1     -10.398  14.806  31.179  1.00  0.00    -0.037 C
HETATM   36  C18 UNL     1     -10.211  16.278  31.609  1.00  0.00     0.014 C
HETATM   37  C19 UNL     1     -10.078  16.350  33.086  1.00  0.00    -0.013 C
HETATM   38  C20 UNL     1      -8.799  15.591  33.446  1.00  0.00     0.009 C
HETATM   39  C24 UNL     1     -11.223  15.765  33.846  1.00  0.00     0.009 C
HETATM   40  C21 UNL     1      -8.978  14.156  33.093  1.00  0.00    -0.013 C
HETATM   41  C22 UNL     1     -10.182  13.502  33.725  1.00  0.00     0.009 C
HETATM   42  C26 UNL     1      -9.195  14.053  31.578  1.00  0.00     0.014 C
HETATM   43  C23 UNL     1     -11.381  14.324  33.391  1.00  0.00    -0.013 C
HETATM   44  C25 UNL     1     -11.648  14.355  31.925  1.00  0.00     0.014 C
ENDBRANCH  34  35
ENDBRANCH   5  34
ENDBRANCH   1   5
TORSDOF 12
ENDMDL