MODEL 2
REMARK VINA RESULT: -9.141833695      2.530      9.457
REMARK  12 active torsions:
REMARK  status: ('A' for Active; 'I' for Inactive)
REMARK    1  A    between atoms: C3_5  and  N2_6
REMARK    2  A    between atoms: N2_6  and  C4_8
REMARK    3  A    between atoms: C4_8  and  C5_9
REMARK    4  A    between atoms: C5_9  and  C6_10
REMARK    5  A    between atoms: C6_10  and  N3_11
REMARK    6  A    between atoms: C9_14  and  C10_15
REMARK    7  A    between atoms: C10_15  and  C11_16
REMARK    8  A    between atoms: C11_16  and  C12_17
REMARK    9  A    between atoms: C20_30  and  C21_31
REMARK       I    between atoms: C21_31  and  N5_33
REMARK   10  A    between atoms: N5_33  and  C22_35
REMARK   11  A    between atoms: C22_35  and  C23_36
REMARK   12  A    between atoms: C23_36  and  N6_37
ROOT
HETATM    1  N2  UNL     1      -5.363  19.231  25.331  1.00  0.00    -0.370 N
ATOM      2  H2  UNL     1      -5.175  20.142  25.749  1.00  0.00     0.161 HD
ENDROOT
BRANCH   1   3
HETATM    3  C3  UNL     1      -6.273  18.473  25.907  1.00  0.00     0.145 A
HETATM    4  N1  UNL     1      -7.595  18.609  25.848  1.00  0.00    -0.339 N
HETATM    5  C2  UNL     1      -8.363  17.754  26.475  1.00  0.00     0.030 A
ATOM      6  H1  UNL     1      -8.009  19.374  25.316  1.00  0.00     0.168 HD
HETATM    7  C1  UNL     1      -9.883  17.872  26.430  1.00  0.00     0.070 C
HETATM    8  C20 UNL     1      -7.770  16.742  27.175  1.00  0.00     0.098 A
HETATM    9  S1  UNL     1      -6.078  17.098  26.877  1.00  0.00    -0.047 SA
BRANCH   8  10
HETATM   10  C21 UNL     1      -8.248  15.624  27.967  1.00  0.00     0.260 C
HETATM   11  O3  UNL     1      -7.893  14.460  27.548  1.00  0.00    -0.267 OA
HETATM   12  N5  UNL     1      -9.030  15.639  29.115  1.00  0.00    -0.355 N
ATOM     13  H5  UNL     1      -9.337  16.543  29.476  1.00  0.00     0.162 HD
BRANCH  12  14
HETATM   14  C22 UNL     1      -9.442  14.428  29.840  1.00  0.00     0.142 C
BRANCH  14  15
HETATM   15  C23 UNL     1      -9.205  14.567  31.299  1.00  0.00     0.136 C
BRANCH  15  16
HETATM   16  N6  UNL     1      -9.919  15.679  31.890  1.00  0.00    -0.407 N
HETATM   17  C24 UNL     1     -11.207  15.349  32.381  1.00  0.00     0.143 C
HETATM   18  C25 UNL     1     -11.406  15.599  33.845  1.00  0.00     0.187 C
HETATM   19  O4  UNL     1     -10.772  16.747  34.295  1.00  0.00    -0.388 OA
HETATM   20  C26 UNL     1      -9.394  16.529  34.131  1.00  0.00     0.187 C
HETATM   21  C27 UNL     1      -9.126  16.567  32.651  1.00  0.00     0.143 C
ENDBRANCH  15  16
ENDBRANCH  14  15
ENDBRANCH  12  14
ENDBRANCH   8  10
ENDBRANCH   1   3
BRANCH   1  22
HETATM   22  C4  UNL     1      -4.619  18.876  24.169  1.00  0.00     0.123 C
BRANCH  22  23
HETATM   23  C5  UNL     1      -4.393  20.001  23.265  1.00  0.00     0.040 C
BRANCH  23  24
HETATM   24  C6  UNL     1      -4.937  20.032  21.897  1.00  0.00     0.135 C
BRANCH  24  25
HETATM   25  N3  UNL     1      -4.895  18.825  21.125  1.00  0.00    -0.303 N
HETATM   26  C7  UNL     1      -6.039  18.096  20.937  1.00  0.00     0.024 A
HETATM   27  C8  UNL     1      -7.315  18.500  21.569  1.00  0.00     0.069 C
HETATM   28  C9  UNL     1      -6.043  16.964  20.159  1.00  0.00     0.033 A
HETATM   29  C18 UNL     1      -4.852  16.566  19.558  1.00  0.00     0.257 A
HETATM   30  O1  UNL     1      -4.828  15.525  18.836  1.00  0.00    -0.267 OA
HETATM   31  N4  UNL     1      -3.771  17.316  19.778  1.00  0.00    -0.275 N
HETATM   32  C19 UNL     1      -3.758  18.439  20.546  1.00  0.00     0.329 A
ATOM     33  H4  UNL     1      -2.896  17.028  19.340  1.00  0.00     0.173 HD
HETATM   34  O2  UNL     1      -2.644  19.058  20.661  1.00  0.00    -0.246 OA
BRANCH  28  35
HETATM   35  C10 UNL     1      -7.235  16.090  19.919  1.00  0.00     0.046 C
BRANCH  35  36
HETATM   36  C11 UNL     1      -7.174  14.841  20.734  1.00  0.00     0.009 C
BRANCH  36  37
HETATM   37  C12 UNL     1      -8.231  14.874  21.808  1.00  0.00    -0.014 C
HETATM   38  C13 UNL     1      -7.766  15.410  23.129  1.00  0.00     0.004 C
HETATM   39  C14 UNL     1      -8.829  15.022  24.171  1.00  0.00     0.000 C
HETATM   40  C15 UNL     1     -10.195  15.357  23.667  1.00  0.00     0.000 C
HETATM   41  C16 UNL     1     -10.127  16.286  22.472  1.00  0.00     0.000 C
HETATM   42  C17 UNL     1      -9.423  15.681  21.312  1.00  0.00     0.004 C
ENDBRANCH  36  37
ENDBRANCH  35  36
ENDBRANCH  28  35
ENDBRANCH  24  25
ENDBRANCH  23  24
ENDBRANCH  22  23
ENDBRANCH   1  22
TORSDOF 12
ENDMDL