MODEL 2
REMARK VINA RESULT: -9.004824173      0.851      1.321
REMARK  11 active torsions:
REMARK  status: ('A' for Active; 'I' for Inactive)
REMARK    1  A    between atoms: C2_2  and  N1_3
REMARK    2  A    between atoms: N1_3  and  C3_4
REMARK    3  A    between atoms: N1_3  and  C4_6
REMARK    4  A    between atoms: C4_6  and  C5_7
REMARK    5  A    between atoms: C5_7  and  N2_8
REMARK       I    between atoms: N2_8  and  C6_10
REMARK       I    between atoms: C6_10  and  N3_12
REMARK    6  A    between atoms: N3_12  and  C7_14
REMARK    7  A    between atoms: C7_14  and  C8_15
REMARK    8  A    between atoms: C8_15  and  N4_16
REMARK       I    between atoms: N4_16  and  C9_18
REMARK    9  A    between atoms: C9_18  and  C10_20
REMARK   10  A    between atoms: N6_24  and  C12_25
REMARK   11  A    between atoms: C19_36  and  C20_37
ROOT
HETATM    1  C10 UNL     1      -9.179  15.352  26.728  1.00  0.00     0.078 A
HETATM    2  C11 UNL     1      -8.388  15.576  27.866  1.00  0.00     0.127 A
HETATM    3  N5  UNL     1      -7.347  16.273  27.453  1.00  0.00    -0.302 N
ATOM      4  H5  UNL     1      -6.587  16.593  28.055  1.00  0.00     0.186 HD
HETATM    5  N6  UNL     1      -7.426  16.503  26.125  1.00  0.00    -0.232 N
HETATM    6  C19 UNL     1      -8.560  15.931  25.664  1.00  0.00     0.086 A
ENDROOT
BRANCH   1   7
HETATM    7  C9  UNL     1     -10.471  14.727  26.876  1.00  0.00     0.255 C
HETATM    8  N4  UNL     1     -11.676  15.429  26.897  1.00  0.00    -0.355 N
ATOM      9  H4  UNL     1     -11.690  16.445  26.806  1.00  0.00     0.162 HD
HETATM   10  O3  UNL     1     -10.531  13.445  27.006  1.00  0.00    -0.268 OA
BRANCH   8  11
HETATM   11  C8  UNL     1     -12.926  14.670  27.054  1.00  0.00     0.142 C
BRANCH  11  12
HETATM   12  C7  UNL     1     -13.478  14.787  28.431  1.00  0.00     0.144 C
BRANCH  12  13
HETATM   13  N3  UNL     1     -12.830  13.938  29.392  1.00  0.00    -0.342 N
HETATM   14  C6  UNL     1     -13.104  14.012  30.779  1.00  0.00     0.316 C
HETATM   15  N2  UNL     1     -12.443  13.170  31.699  1.00  0.00    -0.342 N
HETATM   16  O2  UNL     1     -13.942  14.836  31.187  1.00  0.00    -0.247 OA
ATOM     17  H2  UNL     1     -11.766  12.490  31.354  1.00  0.00     0.164 HD
ATOM     18  H3  UNL     1     -12.147  13.256  29.063  1.00  0.00     0.164 HD
BRANCH  15  19
HETATM   19  C5  UNL     1     -12.701  13.246  33.106  1.00  0.00     0.144 C
BRANCH  19  20
HETATM   20  C4  UNL     1     -11.432  13.252  33.904  1.00  0.00     0.145 C
BRANCH  20  21
HETATM   21  N1  UNL     1     -10.650  14.431  33.530  1.00  0.00    -0.358 N
BRANCH  21  22
HETATM   22  C2  UNL     1      -9.285  14.240  33.101  1.00  0.00     0.120 C
HETATM   23  C1  UNL     1      -9.205  14.401  31.586  1.00  0.00     0.026 C
ENDBRANCH  21  22
BRANCH  21  24
HETATM   24  C3  UNL     1     -11.245  15.705  33.598  1.00  0.00     0.350 C
HETATM   25  O1  UNL     1     -10.707  16.622  34.256  1.00  0.00    -0.284 OA
ENDBRANCH  21  24
ENDBRANCH  20  21
ENDBRANCH  19  20
ENDBRANCH  15  19
ENDBRANCH  12  13
ENDBRANCH  11  12
ENDBRANCH   8  11
ENDBRANCH   1   7
BRANCH   6  26
HETATM   26  C20 UNL     1      -8.939  15.800  24.254  1.00  0.00    -0.006 A
HETATM   27  C21 UNL     1     -10.054  16.362  23.685  1.00  0.00     0.014 A
HETATM   28  C22 UNL     1     -10.334  16.335  22.318  1.00  0.00     0.008 A
HETATM   29  C23 UNL     1      -9.457  15.712  21.461  1.00  0.00    -0.056 A
HETATM   30  C24 UNL     1      -9.691  15.643  19.994  1.00  0.00     0.049 C
HETATM   31  C25 UNL     1      -8.331  15.139  22.006  1.00  0.00    -0.055 A
HETATM   32  C26 UNL     1      -7.388  14.462  21.045  1.00  0.00     0.049 C
HETATM   33  C27 UNL     1      -8.065  15.173  23.356  1.00  0.00     0.021 A
ENDBRANCH   6  26
BRANCH   5  34
HETATM   34  C12 UNL     1      -6.428  17.204  25.387  1.00  0.00     0.171 A
HETATM   35  N7  UNL     1      -6.532  18.419  24.869  1.00  0.00    -0.338 N
HETATM   36  C13 UNL     1      -5.549  18.928  24.202  1.00  0.00     0.028 A
ATOM     37  H7  UNL     1      -7.391  18.955  24.996  1.00  0.00     0.168 HD
HETATM   38  C14 UNL     1      -4.412  18.175  24.053  1.00  0.00     0.037 A
HETATM   39  C18 UNL     1      -5.468  20.286  23.537  1.00  0.00     0.088 C
HETATM   40  S1  UNL     1      -4.855  16.747  24.911  1.00  0.00    -0.053 SA
HETATM   41  C15 UNL     1      -3.264  18.739  23.287  1.00  0.00     0.320 C
HETATM   42  N8  UNL     1      -3.802  19.239  22.037  1.00  0.00     0.089 N
HETATM   43  C16 UNL     1      -4.279  18.054  21.308  1.00  0.00     0.310 C
HETATM   44  C17 UNL     1      -4.907  20.122  22.168  1.00  0.00     0.278 C
ENDBRANCH   5  34
TORSDOF 11
ENDMDL