MODEL 5
REMARK VINA RESULT: -8.534797059      3.767      9.913
REMARK  12 active torsions:
REMARK  status: ('A' for Active; 'I' for Inactive)
REMARK    1  A    between atoms: O1_2  and  C2_3
REMARK    2  A    between atoms: C4_5  and  C5_6
REMARK    3  A    between atoms: C6_7  and  C7_8
REMARK       I    between atoms: C7_8  and  N1_10
REMARK    4  A    between atoms: N1_10  and  C8_12
REMARK    5  A    between atoms: C8_12  and  C9_13
REMARK    6  A    between atoms: C9_13  and  C10_14
REMARK    7  A    between atoms: C10_14  and  N2_15
REMARK    8  A    between atoms: N2_15  and  C11_17
REMARK    9  A    between atoms: C14_20  and  N3_21
REMARK   10  A    between atoms: C20_27  and  N4_28
REMARK   11  A    between atoms: C26_39  and  O3_40
REMARK   12  A    between atoms: C28_42  and  O4_43
ROOT
HETATM    1  N2  UNL     1      -9.013  14.768  24.600  1.00  0.00    -0.376 N
ATOM      2  H2  UNL     1      -8.889  13.827  24.226  1.00  0.00     0.161 HD
ENDROOT
BRANCH   1   3
HETATM    3  C10 UNL     1      -9.090  15.813  23.633  1.00  0.00     0.123 C
BRANCH   3   4
HETATM    4  C9  UNL     1     -10.558  15.872  23.184  1.00  0.00     0.039 C
BRANCH   4   5
HETATM    5  C8  UNL     1     -10.643  15.892  21.688  1.00  0.00     0.124 C
BRANCH   5   6
HETATM    6  N1  UNL     1      -9.421  15.599  21.006  1.00  0.00    -0.358 N
HETATM    7  C7  UNL     1      -8.887  16.426  19.925  1.00  0.00     0.241 C
HETATM    8  O2  UNL     1      -9.604  17.396  19.668  1.00  0.00    -0.269 OA
ATOM      9  H1  UNL     1      -8.895  14.771  21.287  1.00  0.00     0.162 HD
BRANCH   7  10
HETATM   10  C6  UNL     1      -7.662  16.031  19.331  1.00  0.00     0.075 C
HETATM   11  C5  UNL     1      -6.449  16.340  19.494  1.00  0.00     0.017 C
BRANCH  11  12
HETATM   12  C4  UNL     1      -5.717  17.228  20.331  1.00  0.00    -0.031 A
HETATM   13  C3  UNL     1      -6.252  17.462  21.635  1.00  0.00     0.051 A
HETATM   14  C2  UNL     1      -5.598  18.241  22.547  1.00  0.00     0.105 A
HETATM   15  C28 UNL     1      -4.390  18.836  22.249  1.00  0.00     0.135 A
HETATM   16  C26 UNL     1      -3.834  18.645  21.019  1.00  0.00     0.105 A
HETATM   17  C25 UNL     1      -4.519  17.840  20.091  1.00  0.00     0.051 A
BRANCH  14  18
HETATM   18  O1  UNL     1      -6.101  18.485  23.829  1.00  0.00    -0.353 OA
HETATM   19  C1  UNL     1      -5.916  17.467  24.800  1.00  0.00     0.210 C
ENDBRANCH  14  18
BRANCH  15  20
HETATM   20  O4  UNL     1      -3.740  19.623  23.182  1.00  0.00    -0.351 OA
HETATM   21  C29 UNL     1      -4.160  20.994  23.249  1.00  0.00     0.210 C
ENDBRANCH  15  20
BRANCH  16  22
HETATM   22  O3  UNL     1      -2.621  19.235  20.699  1.00  0.00    -0.353 OA
HETATM   23  C27 UNL     1      -1.535  18.385  20.399  1.00  0.00     0.210 C
ENDBRANCH  16  22
ENDBRANCH  11  12
ENDBRANCH   7  10
ENDBRANCH   5   6
ENDBRANCH   4   5
ENDBRANCH   3   4
ENDBRANCH   1   3
BRANCH   1  24
HETATM   24  C11 UNL     1      -9.079  14.856  25.864  1.00  0.00     0.102 A
HETATM   25  C12 UNL     1      -8.028  15.198  26.675  1.00  0.00     0.050 A
HETATM   26  C13 UNL     1      -8.135  15.280  28.027  1.00  0.00     0.037 A
HETATM   27  C14 UNL     1      -9.366  15.006  28.635  1.00  0.00     0.074 A
HETATM   28  C20 UNL     1     -10.407  14.666  27.831  1.00  0.00     0.132 A
HETATM   29  N6  UNL     1     -10.246  14.597  26.474  1.00  0.00    -0.327 N
ATOM     30  H6  UNL     1     -11.049  14.339  25.900  1.00  0.00     0.169 HD
BRANCH  27  31
HETATM   31  N3  UNL     1      -9.389  15.131  30.034  1.00  0.00    -0.378 N
HETATM   32  C15 UNL     1      -9.999  16.257  30.672  1.00  0.00     0.123 C
HETATM   33  C16 UNL     1     -10.857  15.947  31.856  1.00  0.00     0.020 C
HETATM   34  C17 UNL     1     -10.604  14.610  32.471  1.00  0.00     0.003 C
HETATM   35  C18 UNL     1      -9.205  14.109  32.270  1.00  0.00     0.020 C
HETATM   36  C19 UNL     1      -8.776  14.100  30.838  1.00  0.00     0.123 C
ENDBRANCH  27  31
BRANCH  28  37
HETATM   37  N4  UNL     1     -11.675  14.360  28.383  1.00  0.00    -0.362 N
HETATM   38  C21 UNL     1     -12.781  15.271  28.392  1.00  0.00     0.152 C
HETATM   39  C22 UNL     1     -14.043  14.546  27.957  1.00  0.00     0.252 C
HETATM   40  N5  UNL     1     -14.243  13.456  28.874  1.00  0.00    -0.072 N
HETATM   41  C23 UNL     1     -13.204  12.476  28.757  1.00  0.00     0.252 C
ATOM     42  H52 UNL     1     -14.338  13.788  29.833  1.00  0.00     0.277 HD
ATOM     43  H51 UNL     1     -15.166  13.037  28.760  1.00  0.00     0.277 HD
HETATM   44  C24 UNL     1     -11.815  13.016  28.951  1.00  0.00     0.152 C
ENDBRANCH  28  37
ENDBRANCH   1  24
TORSDOF 12
ENDMDL