MODEL 3
REMARK VINA RESULT: -8.347432127      1.575      2.485
REMARK  12 active torsions:
REMARK  status: ('A' for Active; 'I' for Inactive)
REMARK    1  A    between atoms: O1_2  and  C2_3
REMARK    2  A    between atoms: C4_5  and  C5_6
REMARK    3  A    between atoms: C5_6  and  N2_12
REMARK       I    between atoms: N1_7  and  C6_9
REMARK    4  A    between atoms: N2_12  and  N3_14
REMARK       I    between atoms: N3_14  and  C8_16
REMARK    5  A    between atoms: C8_16  and  C9_18
REMARK    6  A    between atoms: C9_18  and  N4_19
REMARK    7  A    between atoms: C9_18  and  C20_35
REMARK       I    between atoms: N4_19  and  C10_21
REMARK    8  A    between atoms: C10_21  and  C11_23
REMARK    9  A    between atoms: C13_25  and  O5_26
REMARK   10  A    between atoms: C15_28  and  O6_29
REMARK   11  A    between atoms: C17_31  and  O7_32
REMARK   12  A    between atoms: C26_41  and  O8_42
ROOT
HETATM    1  N3  UNL     1      -9.135  17.897  24.431  1.00  0.00    -0.267 N
ATOM      2  H3  UNL     1      -8.396  18.554  24.179  1.00  0.00     0.190 HD
HETATM    3  C8  UNL     1      -9.526  16.920  23.483  1.00  0.00     0.259 C
HETATM    4  O3  UNL     1     -10.418  16.085  23.721  1.00  0.00    -0.269 OA
ENDROOT
BRANCH   3   5
HETATM    5  C9  UNL     1      -8.856  16.887  22.164  1.00  0.00     0.182 C
BRANCH   5   6
HETATM    6  N4  UNL     1      -7.448  17.151  22.270  1.00  0.00    -0.343 N
HETATM    7  C10 UNL     1      -6.812  18.027  21.359  1.00  0.00     0.252 C
HETATM    8  O4  UNL     1      -7.500  18.562  20.456  1.00  0.00    -0.268 OA
ATOM      9  H4  UNL     1      -6.902  16.704  23.006  1.00  0.00     0.163 HD
BRANCH   7  10
HETATM   10  C11 UNL     1      -5.389  18.348  21.411  1.00  0.00     0.037 A
HETATM   11  C12 UNL     1      -4.449  17.602  20.718  1.00  0.00     0.057 A
HETATM   12  C13 UNL     1      -3.101  17.888  20.743  1.00  0.00     0.105 A
HETATM   13  C15 UNL     1      -2.682  18.966  21.493  1.00  0.00     0.135 A
HETATM   14  C17 UNL     1      -3.595  19.722  22.191  1.00  0.00     0.105 A
HETATM   15  C19 UNL     1      -4.947  19.427  22.159  1.00  0.00     0.057 A
BRANCH  12  16
HETATM   16  O5  UNL     1      -2.171  17.131  20.045  1.00  0.00    -0.353 OA
HETATM   17  C14 UNL     1      -1.734  15.867  20.442  1.00  0.00     0.210 C
ENDBRANCH  12  16
BRANCH  13  18
HETATM   18  O6  UNL     1      -1.319  19.314  21.564  1.00  0.00    -0.351 OA
HETATM   19  C16 UNL     1      -0.506  18.696  22.562  1.00  0.00     0.210 C
ENDBRANCH  13  18
BRANCH  14  20
HETATM   20  O7  UNL     1      -3.132  20.797  22.931  1.00  0.00    -0.353 OA
HETATM   21  C18 UNL     1      -3.969  21.738  23.569  1.00  0.00     0.210 C
ENDBRANCH  14  20
ENDBRANCH   7  10
ENDBRANCH   5   6
BRANCH   5  22
HETATM   22  C20 UNL     1      -9.116  15.536  21.519  1.00  0.00     0.009 C
HETATM   23  C21 UNL     1      -9.519  15.676  20.073  1.00  0.00     0.012 C
HETATM   24  C22 UNL     1      -7.927  14.612  21.668  1.00  0.00     0.012 C
ENDBRANCH   5  22
ENDBRANCH   3   5
BRANCH   1  25
HETATM   25  N2  UNL     1      -9.719  17.999  25.696  1.00  0.00    -0.282 N
ATOM     26  H2  UNL     1     -10.564  18.565  25.779  1.00  0.00     0.188 HD
BRANCH  25  27
HETATM   27  C5  UNL     1      -9.231  17.380  26.867  1.00  0.00     0.133 C
HETATM   28  N1  UNL     1      -8.028  17.661  27.270  1.00  0.00    -0.312 N
HETATM   29  C6  UNL     1      -7.215  18.547  26.566  1.00  0.00     0.219 C
ATOM     30  H1  UNL     1      -7.672  17.223  28.119  1.00  0.00     0.170 HD
HETATM   31  C7  UNL     1      -5.992  18.027  25.863  1.00  0.00     0.117 C
HETATM   32  O2  UNL     1      -7.427  19.795  26.467  1.00  0.00    -0.274 OA
BRANCH  27  33
HETATM   33  C4  UNL     1     -10.019  16.438  27.666  1.00  0.00     0.013 A
HETATM   34  C3  UNL     1      -9.542  15.771  28.772  1.00  0.00     0.055 A
HETATM   35  C2  UNL     1     -10.323  14.882  29.487  1.00  0.00     0.102 A
HETATM   36  C26 UNL     1     -11.629  14.625  29.110  1.00  0.00     0.107 A
HETATM   37  C24 UNL     1     -12.112  15.291  28.003  1.00  0.00    -0.025 A
HETATM   38  C23 UNL     1     -11.327  16.177  27.297  1.00  0.00     0.025 A
HETATM   39  C25 UNL     1     -13.513  15.019  27.589  1.00  0.00     0.051 C
BRANCH  35  40
HETATM   40  O1  UNL     1      -9.794  14.251  30.576  1.00  0.00    -0.353 OA
HETATM   41  C1  UNL     1      -9.463  14.879  31.787  1.00  0.00     0.210 C
ENDBRANCH  35  40
BRANCH  36  42
HETATM   42  O8  UNL     1     -12.432  13.728  29.819  1.00  0.00    -0.353 OA
HETATM   43  C27 UNL     1     -13.106  14.168  30.997  1.00  0.00     0.210 C
ENDBRANCH  36  42
ENDBRANCH  27  33
ENDBRANCH  25  27
ENDBRANCH   1  25
TORSDOF 12
ENDMDL