MODEL 5
REMARK VINA RESULT: -8.449354305      3.866     11.098
REMARK  11 active torsions:
REMARK  status: ('A' for Active; 'I' for Inactive)
REMARK    1  A    between atoms: C5_7  and  N2_8
REMARK       I    between atoms: N3_14  and  C11_15
REMARK       I    between atoms: C11_15  and  N4_17
REMARK    2  A    between atoms: N4_17  and  C12_18
REMARK    3  A    between atoms: C12_18  and  C13_19
REMARK    4  A    between atoms: C12_18  and  C19_31
REMARK       I    between atoms: C13_19  and  N5_21
REMARK    5  A    between atoms: N5_21  and  C14_23
REMARK    6  A    between atoms: C14_23  and  C15_24
REMARK    7  A    between atoms: C15_24  and  S1_25
REMARK    8  A    between atoms: S1_25  and  S2_26
REMARK    9  A    between atoms: S2_26  and  C16_27
REMARK   10  A    between atoms: C16_27  and  C17_28
REMARK   11  A    between atoms: C17_28  and  C18_29
ROOT
HETATM    1  N2  UNL     1      -7.650  16.683  21.942  1.00  0.00    -0.374 N
HETATM    2  C6  UNL     1      -7.534  15.499  22.812  1.00  0.00     0.124 C
HETATM    3  C7  UNL     1      -8.499  15.714  23.971  1.00  0.00     0.031 C
HETATM    4  C8  UNL     1      -8.505  17.206  24.068  1.00  0.00    -0.020 C
HETATM    5  C9  UNL     1      -7.193  17.692  24.588  1.00  0.00     0.031 C
HETATM    6  C10 UNL     1      -7.412  18.203  26.031  1.00  0.00     0.129 C
HETATM    7  N3  UNL     1      -8.258  17.250  26.696  1.00  0.00    -0.322 N
HETATM    8  C11 UNL     1      -7.697  16.403  27.723  1.00  0.00     0.391 C
HETATM    9  O1  UNL     1      -6.461  16.628  27.923  1.00  0.00    -0.230 OA
HETATM   10  N4  UNL     1      -8.490  15.491  28.341  1.00  0.00    -0.381 NA
HETATM   11  C22 UNL     1      -9.638  17.179  26.273  1.00  0.00     0.129 C
HETATM   12  C23 UNL     1      -9.684  17.731  24.840  1.00  0.00     0.031 C
HETATM   13  C24 UNL     1      -8.593  17.543  22.574  1.00  0.00     0.133 C
ENDROOT
BRANCH  10  14
HETATM   14  C12 UNL     1      -9.297  14.561  28.971  1.00  0.00     0.263 C
BRANCH  14  15
HETATM   15  C13 UNL     1     -10.600  14.295  28.270  1.00  0.00     0.254 C
HETATM   16  O2  UNL     1     -10.584  13.554  27.263  1.00  0.00    -0.270 OA
HETATM   17  N5  UNL     1     -11.822  14.847  28.703  1.00  0.00    -0.358 N
ATOM     18  H5  UNL     1     -11.798  15.446  29.528  1.00  0.00     0.162 HD
BRANCH  17  19
HETATM   19  C14 UNL     1     -13.087  14.641  28.084  1.00  0.00     0.133 C
BRANCH  19  20
HETATM   20  C15 UNL     1     -14.196  14.208  29.013  1.00  0.00     0.105 C
BRANCH  20  21
HETATM   21  S1  UNL     1     -13.535  13.304  30.439  1.00  0.00    -0.096 SA
BRANCH  21  22
HETATM   22  S2  UNL     1     -13.272  14.546  32.134  1.00  0.00    -0.097 SA
BRANCH  22  23
HETATM   23  C16 UNL     1     -12.012  13.895  33.226  1.00  0.00     0.093 C
BRANCH  23  24
HETATM   24  C17 UNL     1     -11.712  14.836  34.351  1.00  0.00     0.080 C
BRANCH  24  25
HETATM   25  C18 UNL     1     -10.510  15.677  34.112  1.00  0.00     0.231 C
HETATM   26  O3  UNL     1     -10.643  16.889  34.128  1.00  0.00    -0.307 OA
ENDBRANCH  24  25
ENDBRANCH  23  24
ENDBRANCH  22  23
ENDBRANCH  21  22
ENDBRANCH  20  21
ENDBRANCH  19  20
ENDBRANCH  17  19
ENDBRANCH  14  15
BRANCH  14  27
HETATM   27  C19 UNL     1      -9.600  14.864  30.434  1.00  0.00     0.023 C
HETATM   28  C20 UNL     1      -8.777  14.003  31.370  1.00  0.00     0.013 C
HETATM   29  C21 UNL     1      -9.259  16.317  30.743  1.00  0.00     0.013 C
ENDBRANCH  14  27
ENDBRANCH  10  14
BRANCH   1  30
HETATM   30  C5  UNL     1      -6.880  16.765  20.746  1.00  0.00     0.121 A
HETATM   31  C3  UNL     1      -5.632  17.331  20.702  1.00  0.00     0.039 A
HETATM   32  N1  UNL     1      -4.937  17.349  19.508  1.00  0.00    -0.348 N
HETATM   33  C4  UNL     1      -5.009  17.947  21.875  1.00  0.00     0.071 C
HETATM   34  C2  UNL     1      -5.403  16.846  18.372  1.00  0.00     0.080 A
ATOM     35  H1  UNL     1      -4.009  17.774  19.498  1.00  0.00     0.167 HD
HETATM   36  C1  UNL     1      -4.596  16.899  17.101  1.00  0.00     0.089 C
HETATM   37  N6  UNL     1      -6.617  16.295  18.396  1.00  0.00    -0.311 N
HETATM   38  C25 UNL     1      -7.340  16.247  19.532  1.00  0.00     0.275 A
ATOM     39  H6  UNL     1      -7.004  15.901  17.539  1.00  0.00     0.170 HD
HETATM   40  O4  UNL     1      -8.487  15.718  19.528  1.00  0.00    -0.266 OA
ENDBRANCH   1  30
TORSDOF 11
ENDMDL