MODEL 1
REMARK VINA RESULT: -8.235326968      0.000      0.000
REMARK  14 active torsions:
REMARK  status: ('A' for Active; 'I' for Inactive)
REMARK    1  A    between atoms: C2_2  and  O1_3
REMARK    2  A    between atoms: O1_3  and  C3_4
REMARK    3  A    between atoms: C3_4  and  C4_5
REMARK    4  A    between atoms: C4_5  and  C5_6
REMARK    5  A    between atoms: C5_6  and  N1_7
REMARK    6  A    between atoms: C15_17  and  N2_18
REMARK    7  A    between atoms: N2_18  and  C16_19
REMARK    8  A    between atoms: C16_19  and  C17_20
REMARK    9  A    between atoms: C18_25  and  N4_26
REMARK   10  A    between atoms: N4_26  and  C19_28
REMARK   11  A    between atoms: N5_31  and  C22_32
REMARK   12  A    between atoms: C22_32  and  C23_33
REMARK   13  A    between atoms: C23_33  and  O5_35
REMARK   14  A    between atoms: O5_35  and  C24_36
ROOT
HETATM    1  N1  UNL     1      -9.050  16.766  29.567  1.00  0.00    -0.331 N
HETATM    2  C6  UNL     1      -9.400  16.273  30.758  1.00  0.00     0.048 A
HETATM    3  C7  UNL     1      -9.047  16.586  32.064  1.00  0.00     0.038 A
HETATM    4  C8  UNL     1      -9.542  15.929  33.164  1.00  0.00    -0.054 A
HETATM    5  C9  UNL     1      -9.126  16.314  34.542  1.00  0.00     0.049 C
HETATM    6  C10 UNL     1     -10.434  14.909  32.942  1.00  0.00    -0.055 A
HETATM    7  C11 UNL     1     -11.007  14.151  34.069  1.00  0.00     0.049 C
HETATM    8  C12 UNL     1     -10.814  14.564  31.653  1.00  0.00     0.022 A
HETATM    9  C13 UNL     1     -10.306  15.236  30.566  1.00  0.00     0.010 A
HETATM   10  C14 UNL     1     -10.482  15.131  29.199  1.00  0.00     0.080 A
HETATM   11  C15 UNL     1     -11.260  14.271  28.412  1.00  0.00     0.208 A
HETATM   12  N3  UNL     1     -11.203  14.435  27.041  1.00  0.00    -0.163 N
ATOM     13  H3  UNL     1     -11.762  13.822  26.447  1.00  0.00     0.187 HD
HETATM   14  C18 UNL     1     -10.450  15.358  26.479  1.00  0.00     0.682 A
HETATM   15  N6  UNL     1      -9.688  16.191  27.275  1.00  0.00    -0.175 N
ATOM     16  H6  UNL     1      -9.107  16.900  26.828  1.00  0.00     0.186 HD
HETATM   17  C28 UNL     1      -9.686  16.102  28.596  1.00  0.00     0.140 A
ENDROOT
BRANCH  14  18
HETATM   18  N4  UNL     1     -10.403  15.579  25.244  1.00  0.00    -0.221 N
ATOM     19  H4  UNL     1     -11.035  16.347  25.019  1.00  0.00     0.178 HD
BRANCH  18  20
HETATM   20  C19 UNL     1      -9.798  15.148  24.092  1.00  0.00     0.102 C
HETATM   21  C20 UNL     1      -8.357  14.787  24.063  1.00  0.00     0.056 C
HETATM   22  C21 UNL     1      -7.417  15.906  24.459  1.00  0.00     0.275 C
HETATM   23  N5  UNL     1      -7.634  17.085  23.649  1.00  0.00     0.098 N
HETATM   24  C26 UNL     1      -9.050  17.418  23.585  1.00  0.00     0.275 C
HETATM   25  C27 UNL     1      -9.905  16.315  23.061  1.00  0.00     0.056 C
BRANCH  23  26
HETATM   26  C22 UNL     1      -7.094  16.975  22.324  1.00  0.00     0.382 C
BRANCH  26  27
HETATM   27  C23 UNL     1      -7.188  18.159  21.486  1.00  0.00     0.287 C
HETATM   28  O4  UNL     1      -6.535  19.190  21.769  1.00  0.00    -0.263 OA
BRANCH  27  29
HETATM   29  O5  UNL     1      -7.991  18.196  20.356  1.00  0.00    -0.321 OA
BRANCH  29  30
HETATM   30  C24 UNL     1      -8.114  17.121  19.442  1.00  0.00     0.174 C
HETATM   31  C25 UNL     1      -9.568  16.643  19.583  1.00  0.00     0.034 C
ENDBRANCH  29  30
ENDBRANCH  27  29
ENDBRANCH  26  27
ENDBRANCH  23  26
ENDBRANCH  18  20
ENDBRANCH  14  18
BRANCH  11  32
HETATM   32  N2  UNL     1     -11.955  13.398  28.852  1.00  0.00    -0.392 NA
BRANCH  32  33
HETATM   33  C16 UNL     1     -12.731  12.449  29.328  1.00  0.00     0.269 C
BRANCH  33  34
HETATM   34  C17 UNL     1     -13.865  12.954  30.172  1.00  0.00     0.228 C
HETATM   35  O2  UNL     1     -14.785  13.567  29.576  1.00  0.00    -0.643 OA
HETATM   36  O3  UNL     1     -13.949  12.783  31.526  1.00  0.00    -0.643 OA
ENDBRANCH  33  34
ENDBRANCH  32  33
ENDBRANCH  11  32
BRANCH   1  37
HETATM   37  C5  UNL     1      -8.092  17.844  29.366  1.00  0.00     0.133 C
BRANCH  37  38
HETATM   38  C4  UNL     1      -6.742  17.243  28.971  1.00  0.00     0.046 C
BRANCH  38  39
HETATM   39  C3  UNL     1      -6.360  17.655  27.592  1.00  0.00     0.169 C
BRANCH  39  40
HETATM   40  O1  UNL     1      -7.435  18.366  27.010  1.00  0.00    -0.391 OA
BRANCH  40  41
HETATM   41  C2  UNL     1      -6.944  19.453  26.265  1.00  0.00     0.163 C
HETATM   42  C1  UNL     1      -5.555  19.132  25.709  1.00  0.00     0.033 C
ENDBRANCH  40  41
ENDBRANCH  39  40
ENDBRANCH  38  39
ENDBRANCH  37  38
ENDBRANCH   1  37
TORSDOF 14
ENDMDL