MODEL 5
REMARK VINA RESULT: -9.482219525      2.072      4.908
REMARK  11 active torsions:
REMARK  status: ('A' for Active; 'I' for Inactive)
REMARK    1  A    between atoms: C3_7  and  N3_8
REMARK       I    between atoms: N4_11  and  C6_12
REMARK    2  A    between atoms: C6_12  and  C7_14
REMARK    3  A    between atoms: C7_14  and  C8_15
REMARK    4  A    between atoms: C7_14  and  N5_22
REMARK    5  A    between atoms: C8_15  and  C9_16
REMARK       I    between atoms: N5_22  and  C15_24
REMARK    6  A    between atoms: C15_24  and  C16_26
REMARK    7  A    between atoms: C16_26  and  N6_27
REMARK       I    between atoms: N6_27  and  C17_29
REMARK    8  A    between atoms: C17_29  and  C18_31
REMARK    9  A    between atoms: C19_32  and  C20_33
REMARK   10  A    between atoms: C20_33  and  N7_34
REMARK   11  A    between atoms: N7_34  and  C21_36
ROOT
HETATM    1  C7  UNL     1      -9.975  14.912  25.273  1.00  0.00     0.177 C
ENDROOT
BRANCH   1   2
HETATM    2  C6  UNL     1     -10.216  15.468  23.944  1.00  0.00     0.242 C
HETATM    3  N4  UNL     1      -9.294  15.471  22.854  1.00  0.00    -0.347 N
HETATM    4  C5  UNL     1      -9.750  16.016  21.560  1.00  0.00     0.145 C
HETATM    5  C26 UNL     1      -7.950  14.998  22.931  1.00  0.00     0.145 C
HETATM    6  C4  UNL     1      -8.888  17.219  21.219  1.00  0.00     0.145 C
HETATM    7  N3  UNL     1      -7.555  17.070  21.764  1.00  0.00    -0.357 N
HETATM    8  C27 UNL     1      -7.035  15.764  22.012  1.00  0.00     0.145 C
HETATM    9  O1  UNL     1     -11.358  16.023  23.690  1.00  0.00    -0.271 OA
BRANCH   7  10
HETATM   10  C3  UNL     1      -6.757  18.214  22.040  1.00  0.00     0.163 A
HETATM   11  N2  UNL     1      -6.882  19.416  21.478  1.00  0.00    -0.279 N
HETATM   12  N1  UNL     1      -6.110  20.354  21.817  1.00  0.00    -0.296 N
ATOM     13  H2  UNL     1      -7.601  19.577  20.772  1.00  0.00     0.189 HD
HETATM   14  C2  UNL     1      -5.166  20.147  22.739  1.00  0.00     0.066 A
ATOM     15  H1  UNL     1      -6.207  21.274  21.386  1.00  0.00     0.187 HD
HETATM   16  C1  UNL     1      -4.152  21.123  23.290  1.00  0.00     0.078 C
HETATM   17  S1  UNL     1      -5.442  18.493  23.107  1.00  0.00    -0.038 SA
ENDBRANCH   7  10
ENDBRANCH   1   2
BRANCH   1  18
HETATM   18  C8  UNL     1     -11.043  14.040  25.849  1.00  0.00     0.039 C
BRANCH  18  19
HETATM   19  C9  UNL     1     -11.865  14.529  26.957  1.00  0.00    -0.012 C
HETATM   20  C10 UNL     1     -13.345  14.322  26.906  1.00  0.00     0.005 C
HETATM   21  C11 UNL     1     -13.862  14.638  28.324  1.00  0.00     0.000 C
HETATM   22  C12 UNL     1     -13.629  13.429  29.206  1.00  0.00     0.000 C
HETATM   23  C13 UNL     1     -12.391  12.729  28.643  1.00  0.00     0.000 C
HETATM   24  C14 UNL     1     -11.397  13.781  28.221  1.00  0.00     0.005 C
ENDBRANCH  18  19
ENDBRANCH   1  18
BRANCH   1  25
HETATM   25  N5  UNL     1      -9.601  15.972  26.224  1.00  0.00    -0.346 N
HETATM   26  C15 UNL     1      -8.337  15.995  26.849  1.00  0.00     0.236 C
HETATM   27  O2  UNL     1      -7.538  15.068  26.583  1.00  0.00    -0.272 OA
ATOM     28  H5  UNL     1     -10.274  16.708  26.437  1.00  0.00     0.163 HD
BRANCH  26  29
HETATM   29  C16 UNL     1      -7.931  17.051  27.783  1.00  0.00     0.225 C
BRANCH  29  30
HETATM   30  N6  UNL     1      -8.243  16.797  29.166  1.00  0.00    -0.349 N
HETATM   31  C17 UNL     1      -9.545  16.881  29.686  1.00  0.00     0.241 C
HETATM   32  O3  UNL     1     -10.510  17.199  28.904  1.00  0.00    -0.269 OA
ATOM     33  H6  UNL     1      -7.483  16.544  29.797  1.00  0.00     0.163 HD
BRANCH  31  34
HETATM   34  C18 UNL     1      -9.883  16.625  31.075  1.00  0.00     0.075 C
HETATM   35  C19 UNL     1      -8.971  16.509  31.987  1.00  0.00     0.022 C
BRANCH  35  36
HETATM   36  C20 UNL     1      -9.223  16.250  33.399  1.00  0.00     0.083 C
BRANCH  36  37
HETATM   37  N7  UNL     1     -10.522  16.343  33.836  1.00  0.00    -0.394 N
ATOM     38  H7  UNL     1     -10.877  17.287  33.987  1.00  0.00     0.159 HD
BRANCH  37  39
HETATM   39  C21 UNL     1     -11.403  15.319  34.095  1.00  0.00     0.081 C
HETATM   40  C22 UNL     1     -10.589  14.004  34.261  1.00  0.00     0.025 C
HETATM   41  C23 UNL     1     -11.563  12.880  34.180  1.00  0.00     0.002 C
HETATM   42  C24 UNL     1     -12.821  13.467  33.621  1.00  0.00     0.002 C
HETATM   43  C25 UNL     1     -12.421  14.856  33.097  1.00  0.00     0.025 C
ENDBRANCH  37  39
ENDBRANCH  36  37
ENDBRANCH  35  36
ENDBRANCH  31  34
ENDBRANCH  29  30
ENDBRANCH  26  29
ENDBRANCH   1  25
TORSDOF 11
ENDMDL