MODEL 1
REMARK VINA RESULT: -8.747180477      0.000      0.000
REMARK  16 active torsions:
REMARK  status: ('A' for Active; 'I' for Inactive)
REMARK    1  A    between atoms: C2_2  and  N1_3
REMARK    2  A    between atoms: N1_3  and  C3_5
REMARK    3  A    between atoms: C3_5  and  N2_7
REMARK    4  A    between atoms: C9_13  and  C10_14
REMARK    5  A    between atoms: C10_14  and  O2_16
REMARK    6  A    between atoms: O2_16  and  C11_17
REMARK    7  A    between atoms: C14_20  and  C15_21
REMARK    8  A    between atoms: C15_21  and  C16_22
REMARK    9  A    between atoms: C16_22  and  O3_23
REMARK   10  A    between atoms: C16_22  and  C17_25
REMARK   11  A    between atoms: C20_28  and  O4_29
REMARK   12  A    between atoms: O4_29  and  C21_30
REMARK   13  A    between atoms: C21_30  and  C22_31
REMARK   14  A    between atoms: C22_31  and  C23_32
REMARK   15  A    between atoms: C23_32  and  O5_33
REMARK   16  A    between atoms: O5_33  and  C24_34
ROOT
HETATM    1  N2  UNL     1      18.684  27.602  12.273  1.00  0.00    -0.357 N
HETATM    2  C4  UNL     1      17.276  28.060  12.190  1.00  0.00     0.125 C
HETATM    3  C5  UNL     1      17.181  29.455  11.701  1.00  0.00     0.022 C
HETATM    4  C6  UNL     1      17.403  30.521  12.715  1.00  0.00     0.028 C
HETATM    5  C7  UNL     1      18.320  30.185  13.825  1.00  0.00     0.079 C
HETATM    6  C8  UNL     1      17.578  29.557  14.949  1.00  0.00     0.033 C
HETATM    7  C9  UNL     1      19.576  29.511  13.506  1.00  0.00     0.086 C
HETATM    8  C13 UNL     1      20.442  29.769  14.760  1.00  0.00     0.043 C
HETATM    9  C14 UNL     1      20.674  31.294  14.643  1.00  0.00     0.113 C
HETATM   10  S2  UNL     1      18.946  31.763  14.464  1.00  0.00     0.158 S
HETATM   11  O6  UNL     1      18.303  32.075  15.768  1.00  0.00    -0.227 OA
HETATM   12  O7  UNL     1      18.739  32.844  13.483  1.00  0.00    -0.227 OA
HETATM   13  C32 UNL     1      19.541  28.009  13.342  1.00  0.00     0.146 C
ENDROOT
BRANCH   9  14
HETATM   14  C15 UNL     1      21.298  31.831  15.880  1.00  0.00     0.052 C
BRANCH  14  15
HETATM   15  C16 UNL     1      22.208  32.990  15.576  1.00  0.00     0.123 C
BRANCH  15  16
HETATM   16  O3  UNL     1      22.141  33.291  14.229  1.00  0.00    -0.395 OA
ATOM     17  H3  UNL     1      21.935  34.212  14.118  1.00  0.00     0.210 HD
ENDBRANCH  15  16
BRANCH  15  18
HETATM   18  C17 UNL     1      21.805  34.230  16.337  1.00  0.00     0.014 C
HETATM   19  C18 UNL     1      20.379  34.649  16.042  1.00  0.00     0.010 C
HETATM   20  C19 UNL     1      19.695  35.157  17.280  1.00  0.00     0.032 C
HETATM   21  C20 UNL     1      20.617  36.040  18.129  1.00  0.00     0.121 C
HETATM   22  C30 UNL     1      21.904  35.322  18.504  1.00  0.00     0.032 C
HETATM   23  C31 UNL     1      21.917  33.982  17.830  1.00  0.00     0.010 C
BRANCH  21  24
HETATM   24  O4  UNL     1      20.804  37.245  17.589  1.00  0.00    -0.386 OA
BRANCH  24  25
HETATM   25  C21 UNL     1      20.003  38.292  17.602  1.00  0.00     0.170 C
BRANCH  25  26
HETATM   26  C22 UNL     1      18.626  38.233  18.149  1.00  0.00     0.053 C
BRANCH  26  27
HETATM   27  C23 UNL     1      17.459  38.475  17.259  1.00  0.00     0.178 C
BRANCH  27  28
HETATM   28  O5  UNL     1      16.717  37.452  16.866  1.00  0.00    -0.345 OA
BRANCH  28  29
HETATM   29  C24 UNL     1      16.233  36.235  17.065  1.00  0.00     0.149 A
HETATM   30  C25 UNL     1      15.807  35.718  18.280  1.00  0.00     0.152 A
HETATM   31  F1  UNL     1      15.904  36.532  19.368  1.00  0.00    -0.203 F
HETATM   32  C26 UNL     1      15.313  34.448  18.423  1.00  0.00     0.048 A
HETATM   33  C27 UNL     1      15.225  33.629  17.316  1.00  0.00     0.048 A
HETATM   34  C28 UNL     1      15.641  34.126  16.115  1.00  0.00     0.157 A
HETATM   35  F2  UNL     1      15.561  33.325  15.004  1.00  0.00    -0.203 F
HETATM   36  C29 UNL     1      16.131  35.376  15.952  1.00  0.00     0.191 A
HETATM   37  F3  UNL     1      16.532  35.821  14.727  1.00  0.00    -0.200 F
ENDBRANCH  28  29
ENDBRANCH  27  28
ENDBRANCH  26  27
ENDBRANCH  25  26
ENDBRANCH  24  25
ENDBRANCH  21  24
ENDBRANCH  15  18
ENDBRANCH  14  15
ENDBRANCH   9  14
BRANCH   7  38
HETATM   38  C10 UNL     1      20.347  30.059  12.393  1.00  0.00     0.271 C
HETATM   39  O1  UNL     1      20.001  30.889  11.543  1.00  0.00    -0.264 OA
BRANCH  38  40
HETATM   40  O2  UNL     1      21.668  29.579  12.270  1.00  0.00    -0.321 OA
BRANCH  40  41
HETATM   41  C11 UNL     1      22.085  28.879  11.116  1.00  0.00     0.174 C
HETATM   42  C12 UNL     1      22.754  27.600  11.597  1.00  0.00     0.034 C
ENDBRANCH  40  41
ENDBRANCH  38  40
ENDBRANCH   7  38
BRANCH   1  43
HETATM   43  C3  UNL     1      19.104  26.743  11.231  1.00  0.00     0.169 C
HETATM   44  S1  UNL     1      18.890  27.189   9.645  1.00  0.00    -0.041 SA
BRANCH  43  45
HETATM   45  N1  UNL     1      19.714  25.497  11.455  1.00  0.00    -0.367 N
ATOM     46  H1  UNL     1      20.506  25.434  12.094  1.00  0.00     0.161 HD
BRANCH  45  47
HETATM   47  C2  UNL     1      19.230  24.285  10.787  1.00  0.00     0.117 C
HETATM   48  C1  UNL     1      17.859  23.949  11.320  1.00  0.00     0.026 C
ENDBRANCH  45  47
ENDBRANCH  43  45
ENDBRANCH   1  43
TORSDOF 16
ENDMDL