MODEL 1
REMARK VINA RESULT: -8.463095552      0.000      0.000
REMARK  13 active torsions:
REMARK  status: ('A' for Active; 'I' for Inactive)
REMARK    1  A    between atoms: O1_2  and  C2_3
REMARK    2  A    between atoms: C3_4  and  N1_5
REMARK    3  A    between atoms: N1_5  and  C4_7
REMARK    4  A    between atoms: C8_15  and  O2_16
REMARK    5  A    between atoms: O2_16  and  C9_17
REMARK    6  A    between atoms: C9_17  and  C10_18
REMARK    7  A    between atoms: C10_18  and  N4_19
REMARK    8  A    between atoms: C15_24  and  O3_25
REMARK    9  A    between atoms: O3_25  and  C16_26
REMARK   10  A    between atoms: C16_26  and  C17_27
REMARK   11  A    between atoms: C17_27  and  N5_28
REMARK   12  A    between atoms: C24_36  and  N6_37
REMARK       I    between atoms: N6_37  and  C25_39
REMARK   13  A    between atoms: C25_39  and  C26_41
ROOT
HETATM    1  C4  UNL     1      19.790  27.709  12.124  1.00  0.00     0.119 A
HETATM    2  N2  UNL     1      18.855  26.740  12.133  1.00  0.00    -0.338 N
ATOM      3  H2  UNL     1      19.073  25.788  11.839  1.00  0.00     0.168 HD
HETATM    4  C5  UNL     1      17.612  27.087  12.551  1.00  0.00     0.182 A
HETATM    5  N3  UNL     1      17.325  28.340  12.939  1.00  0.00    -0.351 N
ATOM      6  H3  UNL     1      16.378  28.564  13.246  1.00  0.00     0.166 HD
HETATM    7  C6  UNL     1      18.261  29.306  12.930  1.00  0.00     0.050 A
HETATM    8  C7  UNL     1      17.961  30.602  13.339  1.00  0.00     0.070 A
HETATM    9  C8  UNL     1      18.865  31.622  13.357  1.00  0.00     0.104 A
HETATM   10  C15 UNL     1      20.158  31.312  12.937  1.00  0.00     0.103 A
HETATM   11  C20 UNL     1      20.482  30.017  12.522  1.00  0.00     0.057 A
HETATM   12  C21 UNL     1      19.538  29.007  12.515  1.00  0.00     0.038 A
ENDROOT
BRANCH   1  13
HETATM   13  N1  UNL     1      20.992  27.431  11.729  1.00  0.00    -0.339 N
ATOM     14  H1  UNL     1      21.786  27.738  12.290  1.00  0.00     0.167 HD
BRANCH  13  15
HETATM   15  C3  UNL     1      21.228  26.700  10.524  1.00  0.00     0.072 A
HETATM   16  C2  UNL     1      22.322  25.862  10.504  1.00  0.00     0.136 A
HETATM   17  C27 UNL     1      22.558  25.138   9.361  1.00  0.00     0.179 A
HETATM   18  C24 UNL     1      21.747  25.209   8.226  1.00  0.00     0.094 A
HETATM   19  F1  UNL     1      23.633  24.293   9.301  1.00  0.00    -0.201 F
HETATM   20  C23 UNL     1      20.653  26.054   8.256  1.00  0.00     0.043 A
HETATM   21  C22 UNL     1      20.416  26.787   9.414  1.00  0.00     0.054 A
HETATM   22 BR1  UNL     1      19.506  26.192   6.728  1.00  0.00    -0.049 Br
BRANCH  16  23
HETATM   23  O1  UNL     1      23.176  25.742  11.603  1.00  0.00    -0.351 OA
HETATM   24  C1  UNL     1      24.390  26.453  11.645  1.00  0.00     0.210 C
ENDBRANCH  16  23
BRANCH  18  25
HETATM   25  N6  UNL     1      22.013  24.434   7.074  1.00  0.00    -0.323 N
HETATM   26  C25 UNL     1      22.957  24.815   6.091  1.00  0.00     0.232 C
HETATM   27  O4  UNL     1      23.596  25.886   6.235  1.00  0.00    -0.272 OA
ATOM     28  H6  UNL     1      21.501  23.560   6.945  1.00  0.00     0.169 HD
BRANCH  26  29
HETATM   29  C26 UNL     1      23.211  23.988   4.898  1.00  0.00     0.188 C
HETATM   30 BR2  UNL     1      24.000  24.974   3.455  1.00  0.00    -0.087 Br
ENDBRANCH  26  29
ENDBRANCH  18  25
ENDBRANCH  13  15
ENDBRANCH   1  13
BRANCH  10  31
HETATM   31  O3  UNL     1      21.088  32.322  12.949  1.00  0.00    -0.347 OA
BRANCH  31  32
HETATM   32  C16 UNL     1      22.159  32.413  13.849  1.00  0.00     0.206 C
BRANCH  32  33
HETATM   33  C17 UNL     1      21.823  33.323  15.002  1.00  0.00     0.297 C
BRANCH  33  34
HETATM   34  N5  UNL     1      21.869  32.685  16.271  1.00  0.00     0.082 N
HETATM   35  C18 UNL     1      21.986  33.572  17.385  1.00  0.00     0.309 C
HETATM   36  C19 UNL     1      20.895  31.670  16.499  1.00  0.00     0.309 C
ENDBRANCH  33  34
ENDBRANCH  32  33
ENDBRANCH  31  32
ENDBRANCH  10  31
BRANCH   9  37
HETATM   37  O2  UNL     1      18.564  32.897  13.757  1.00  0.00    -0.346 OA
BRANCH  37  38
HETATM   38  C9  UNL     1      17.564  33.318  14.616  1.00  0.00     0.206 C
BRANCH  38  39
HETATM   39  C10 UNL     1      18.067  33.905  15.897  1.00  0.00     0.299 C
BRANCH  39  40
HETATM   40  N4  UNL     1      17.180  33.718  17.005  1.00  0.00     0.090 N
HETATM   41  C11 UNL     1      15.823  33.434  16.686  1.00  0.00     0.272 C
HETATM   42  C12 UNL     1      15.020  34.611  17.255  1.00  0.00     0.032 C
HETATM   43  C13 UNL     1      15.867  35.138  18.365  1.00  0.00     0.032 C
HETATM   44  C14 UNL     1      17.260  34.687  18.040  1.00  0.00     0.272 C
ENDBRANCH  39  40
ENDBRANCH  38  39
ENDBRANCH  37  38
ENDBRANCH   9  37
TORSDOF 13
ENDMDL