MODEL 5
REMARK VINA RESULT: -8.865089489      3.252     10.038
REMARK  12 active torsions:
REMARK  status: ('A' for Active; 'I' for Inactive)
REMARK    1  A    between atoms: C3_5  and  C4_6
REMARK    2  A    between atoms: C4_6  and  N2_7
REMARK    3  A    between atoms: C7_10  and  C8_11
REMARK    4  A    between atoms: C8_11  and  N3_12
REMARK    5  A    between atoms: C16_22  and  C17_23
REMARK    6  A    between atoms: C17_23  and  C18_24
REMARK    7  A    between atoms: C18_24  and  N5_25
REMARK       I    between atoms: N5_25  and  C19_27
REMARK    8  A    between atoms: C19_27  and  C20_29
REMARK    9  A    between atoms: C20_29  and  N6_30
REMARK   10  A    between atoms: N8_37  and  C24_39
REMARK   11  A    between atoms: C24_39  and  C25_40
REMARK   12  A    between atoms: C25_40  and  C26_41
ROOT
HETATM    1  N5  UNL     1      20.259  25.015  10.970  1.00  0.00    -0.359 N
ATOM      2  H5  UNL     1      20.460  25.788  11.604  1.00  0.00     0.162 HD
HETATM    3  C19 UNL     1      20.819  25.059   9.679  1.00  0.00     0.235 C
HETATM    4  O1  UNL     1      20.610  24.143   8.865  1.00  0.00    -0.272 OA
ENDROOT
BRANCH   1   5
HETATM    5  C18 UNL     1      19.411  23.938  11.458  1.00  0.00     0.128 C
BRANCH   5   6
HETATM    6  C17 UNL     1      17.944  24.263  11.316  1.00  0.00     0.078 C
BRANCH   6   7
HETATM    7  C16 UNL     1      17.769  25.730  11.438  1.00  0.00     0.033 A
HETATM    8  C2  UNL     1      17.471  26.542  10.382  1.00  0.00     0.028 A
HETATM    9  C1  UNL     1      17.319  25.948   9.019  1.00  0.00     0.070 C
HETATM   10  N1  UNL     1      17.312  27.896  10.539  1.00  0.00    -0.356 N
HETATM   11  C3  UNL     1      17.442  28.482  11.736  1.00  0.00     0.063 A
ATOM     12  H1  UNL     1      17.089  28.469   9.726  1.00  0.00     0.166 HD
HETATM   13  C15 UNL     1      17.743  27.658  12.799  1.00  0.00     0.119 A
HETATM   14  N4  UNL     1      17.902  26.332  12.664  1.00  0.00    -0.365 N
ATOM     15  H4  UNL     1      18.123  25.765  13.483  1.00  0.00     0.165 HD
BRANCH  11  16
HETATM   16  C4  UNL     1      17.284  29.940  11.956  1.00  0.00     0.116 C
BRANCH  16  17
HETATM   17  N2  UNL     1      17.929  30.427  13.110  1.00  0.00    -0.388 N
HETATM   18  C5  UNL     1      18.768  31.559  12.995  1.00  0.00     0.122 C
HETATM   19  C6  UNL     1      18.416  32.559  14.073  1.00  0.00     0.026 C
HETATM   20  C7  UNL     1      18.641  31.992  15.464  1.00  0.00     0.017 C
HETATM   21  C13 UNL     1      18.296  30.510  15.504  1.00  0.00     0.026 C
HETATM   22  C14 UNL     1      17.320  30.186  14.369  1.00  0.00     0.122 C
BRANCH  20  23
HETATM   23  C8  UNL     1      17.820  32.713  16.489  1.00  0.00     0.277 C
BRANCH  23  24
HETATM   24  N3  UNL     1      17.074  33.780  15.896  1.00  0.00     0.088 N
HETATM   25  C9  UNL     1      15.635  33.476  15.931  1.00  0.00     0.272 C
HETATM   26  C10 UNL     1      15.303  33.639  17.418  1.00  0.00     0.032 C
HETATM   27  C11 UNL     1      16.302  34.693  17.866  1.00  0.00     0.032 C
HETATM   28  C12 UNL     1      17.143  35.011  16.652  1.00  0.00     0.272 C
ENDBRANCH  23  24
ENDBRANCH  20  23
ENDBRANCH  16  17
ENDBRANCH  11  16
ENDBRANCH   6   7
ENDBRANCH   5   6
ENDBRANCH   1   5
BRANCH   3  29
HETATM   29  C20 UNL     1      21.667  26.208   9.287  1.00  0.00     0.236 C
BRANCH  29  30
HETATM   30  N6  UNL     1      22.321  26.805  10.428  1.00  0.00    -0.291 N
HETATM   31  C21 UNL     1      23.544  26.402  10.827  1.00  0.00     0.124 A
HETATM   32 CL1  UNL     1      24.336  25.124   9.916  1.00  0.00    -0.063 Cl
HETATM   33  C22 UNL     1      24.169  26.966  11.915  1.00  0.00     0.132 A
HETATM   34  N7  UNL     1      23.585  27.944  12.621  1.00  0.00    -0.345 N
HETATM   35  C23 UNL     1      22.369  28.373  12.253  1.00  0.00     0.171 A
ATOM     36  H7  UNL     1      24.057  28.356  13.425  1.00  0.00     0.167 HD
HETATM   37  N8  UNL     1      21.747  29.311  12.885  1.00  0.00    -0.371 N
HETATM   38  C32 UNL     1      21.748  27.784  11.143  1.00  0.00     0.293 A
ATOM     39  H8  UNL     1      20.825  29.577  12.539  1.00  0.00     0.161 HD
HETATM   40  O2  UNL     1      20.597  28.201  10.809  1.00  0.00    -0.264 OA
BRANCH  37  41
HETATM   41  C24 UNL     1      22.248  30.010  14.035  1.00  0.00     0.126 C
BRANCH  41  42
HETATM   42  C25 UNL     1      22.141  31.497  13.763  1.00  0.00     0.058 C
BRANCH  42  43
HETATM   43  C26 UNL     1      22.069  32.307  14.999  1.00  0.00    -0.055 A
HETATM   44  C27 UNL     1      22.330  31.768  16.240  1.00  0.00     0.009 A
HETATM   45  C28 UNL     1      22.265  32.524  17.403  1.00  0.00     0.026 A
HETATM   46  C29 UNL     1      21.929  33.861  17.339  1.00  0.00     0.055 A
HETATM   47 CL2  UNL     1      21.852  34.804  18.822  1.00  0.00    -0.083 Cl
HETATM   48  C30 UNL     1      21.664  34.416  16.103  1.00  0.00     0.056 A
HETATM   49 CL3  UNL     1      21.240  36.111  16.034  1.00  0.00    -0.083 Cl
HETATM   50  C31 UNL     1      21.736  33.646  14.966  1.00  0.00     0.032 A
ENDBRANCH  42  43
ENDBRANCH  41  42
ENDBRANCH  37  41
ENDBRANCH  29  30
ENDBRANCH   3  29
TORSDOF 12
ENDMDL