MODEL 5
REMARK VINA RESULT: -6.666605191      5.067      8.905
REMARK  14 active torsions:
REMARK  status: ('A' for Active; 'I' for Inactive)
REMARK    1  A    between atoms: C2_2  and  C3_3
REMARK       I    between atoms: C3_3  and  N1_5
REMARK    2  A    between atoms: N1_5  and  C5_7
REMARK    3  A    between atoms: C6_8  and  C7_9
REMARK    4  A    between atoms: C7_9  and  N2_11
REMARK    5  A    between atoms: C12_17  and  N3_18
REMARK    6  A    between atoms: N3_18  and  C13_20
REMARK    7  A    between atoms: C17_28  and  O2_29
REMARK    8  A    between atoms: O2_29  and  C18_30
REMARK    9  A    between atoms: C20_32  and  O3_33
REMARK   10  A    between atoms: O3_33  and  C21_34
REMARK   11  A    between atoms: C21_34  and  C22_35
REMARK       I    between atoms: C22_35  and  N6_37
REMARK   12  A    between atoms: N6_37  and  C23_39
REMARK   13  A    between atoms: C23_39  and  C24_40
REMARK   14  A    between atoms: C24_40  and  N7_41
ROOT
HETATM    1  C13 UNL     1      18.893  30.428  12.872  1.00  0.00     0.119 A
HETATM    2  N4  UNL     1      19.980  30.503  12.092  1.00  0.00    -0.338 N
ATOM      3  H4  UNL     1      20.090  29.838  11.326  1.00  0.00     0.168 HD
HETATM    4  C14 UNL     1      20.932  31.436  12.294  1.00  0.00     0.182 A
HETATM    5  N5  UNL     1      20.781  32.309  13.303  1.00  0.00    -0.351 N
ATOM      6  H5  UNL     1      21.503  33.014  13.451  1.00  0.00     0.166 HD
HETATM    7  C15 UNL     1      19.718  32.296  14.127  1.00  0.00     0.050 A
HETATM    8  C16 UNL     1      19.556  33.179  15.157  1.00  0.00     0.070 A
HETATM    9  C17 UNL     1      18.451  33.168  16.017  1.00  0.00     0.104 A
HETATM   10  C20 UNL     1      17.512  32.192  15.761  1.00  0.00     0.103 A
HETATM   11  C27 UNL     1      17.623  31.278  14.739  1.00  0.00     0.057 A
HETATM   12  C28 UNL     1      18.740  31.341  13.923  1.00  0.00     0.038 A
ENDROOT
BRANCH   1  13
HETATM   13  N3  UNL     1      17.949  29.568  12.737  1.00  0.00    -0.339 N
ATOM     14  H3  UNL     1      17.089  29.644  13.279  1.00  0.00     0.167 HD
BRANCH  13  15
HETATM   15  C12 UNL     1      18.140  28.503  11.806  1.00  0.00     0.080 A
HETATM   16  C11 UNL     1      17.270  28.419  10.732  1.00  0.00     0.063 A
HETATM   17  C10 UNL     1      17.453  27.393   9.846  1.00  0.00     0.043 A
HETATM   18 CL1  UNL     1      15.977  29.596  10.521  1.00  0.00    -0.082 Cl
HETATM   19  C6  UNL     1      18.455  26.440   9.964  1.00  0.00     0.032 A
HETATM   20  C5  UNL     1      19.323  26.525  11.037  1.00  0.00     0.074 A
HETATM   21  C29 UNL     1      19.140  27.573  11.945  1.00  0.00     0.090 A
HETATM   22 CL2  UNL     1      20.243  27.691  13.318  1.00  0.00    -0.079 Cl
BRANCH  19  23
HETATM   23  C7  UNL     1      18.525  25.405   8.960  1.00  0.00     0.110 C
HETATM   24  S1  UNL     1      17.495  24.146   9.061  1.00  0.00    -0.060 SA
BRANCH  23  25
HETATM   25  N2  UNL     1      19.445  25.449   7.885  1.00  0.00    -0.380 N
HETATM   26  C8  UNL     1      20.483  24.404   7.746  1.00  0.00     0.150 C
HETATM   27  C9  UNL     1      19.377  26.514   6.907  1.00  0.00     0.150 C
ENDBRANCH  23  25
ENDBRANCH  19  23
BRANCH  20  28
HETATM   28  N1  UNL     1      20.377  25.598  11.249  1.00  0.00    -0.316 N
HETATM   29  C3  UNL     1      21.728  25.884  10.929  1.00  0.00     0.246 C
HETATM   30  O1  UNL     1      22.647  25.046  11.107  1.00  0.00    -0.268 OA
HETATM   31  C4  UNL     1      20.077  24.306  11.831  1.00  0.00     0.159 C
BRANCH  29  32
HETATM   32  C2  UNL     1      22.130  27.180  10.369  1.00  0.00     0.064 C
HETATM   33  C1  UNL     1      22.947  27.993  10.992  1.00  0.00     0.017 C
ENDBRANCH  29  32
ENDBRANCH  20  28
ENDBRANCH  13  15
ENDBRANCH   1  13
BRANCH  10  34
HETATM   34  O3  UNL     1      16.388  32.116  16.569  1.00  0.00    -0.339 OA
BRANCH  34  35
HETATM   35  C21 UNL     1      15.247  32.916  16.369  1.00  0.00     0.278 C
BRANCH  35  36
HETATM   36  C22 UNL     1      15.322  34.079  17.286  1.00  0.00     0.241 C
HETATM   37  O4  UNL     1      15.150  33.902  18.542  1.00  0.00    -0.271 OA
HETATM   38  N6  UNL     1      15.581  35.380  16.776  1.00  0.00    -0.358 N
ATOM     39  H6  UNL     1      15.708  35.480  15.768  1.00  0.00     0.162 HD
BRANCH  38  40
HETATM   40  C23 UNL     1      15.678  36.571  17.590  1.00  0.00     0.152 C
BRANCH  40  41
HETATM   41  C24 UNL     1      16.809  37.417  17.125  1.00  0.00     0.290 C
BRANCH  41  42
HETATM   42  N7  UNL     1      17.016  38.559  18.000  1.00  0.00     0.081 N
HETATM   43  C25 UNL     1      18.381  38.771  18.372  1.00  0.00     0.309 C
HETATM   44  C26 UNL     1      16.416  39.753  17.431  1.00  0.00     0.309 C
ENDBRANCH  41  42
ENDBRANCH  40  41
ENDBRANCH  38  40
ENDBRANCH  35  36
ENDBRANCH  34  35
ENDBRANCH  10  34
BRANCH   9  45
HETATM   45  O2  UNL     1      18.339  34.085  17.040  1.00  0.00    -0.349 OA
BRANCH  45  46
HETATM   46  C18 UNL     1      19.509  34.742  17.485  1.00  0.00     0.171 C
HETATM   47  C19 UNL     1      19.390  35.267  18.877  1.00  0.00     0.034 C
ENDBRANCH  45  46
ENDBRANCH   9  45
TORSDOF 14
ENDMDL