MODEL 3
REMARK VINA RESULT: -8.475335783      5.693     11.673
REMARK  14 active torsions:
REMARK  status: ('A' for Active; 'I' for Inactive)
REMARK    1  A    between atoms: C2_2  and  C3_3
REMARK    2  A    between atoms: C3_3  and  C4_4
REMARK    3  A    between atoms: C4_4  and  C5_5
REMARK    4  A    between atoms: C5_5  and  O1_6
REMARK    5  A    between atoms: O1_6  and  C6_7
REMARK       I    between atoms: C6_7  and  N1_9
REMARK       I    between atoms: N2_12  and  C9_13
REMARK    6  A    between atoms: C9_13  and  C10_15
REMARK    7  A    between atoms: C12_20  and  C13_21
REMARK    8  A    between atoms: C13_21  and  N4_22
REMARK    9  A    between atoms: N4_22  and  C14_23
REMARK   10  A    between atoms: N4_22  and  C20_31
REMARK   11  A    between atoms: C14_23  and  C15_24
REMARK   12  A    between atoms: C15_24  and  N5_25
REMARK   13  A    between atoms: C20_31  and  C21_32
REMARK   14  A    between atoms: C25_38  and  C26_39
ROOT
HETATM    1  C10 UNL     1      21.530  35.301  17.461  1.00  0.00     0.474 C
HETATM    2  N3  UNL     1      21.653  34.025  18.174  1.00  0.00    -0.035 N
ATOM      3  H31 UNL     1      20.793  33.677  18.598  1.00  0.00     0.280 HD
ATOM      4  H32 UNL     1      22.177  34.062  19.048  1.00  0.00     0.280 HD
HETATM    5  C11 UNL     1      22.225  33.178  17.138  1.00  0.00     0.273 C
HETATM    6  C12 UNL     1      21.374  33.610  15.934  1.00  0.00     0.253 C
HETATM    7  N6  UNL     1      20.805  34.875  16.292  1.00  0.00    -0.027 N
ATOM      8  H61 UNL     1      20.811  35.558  15.534  1.00  0.00     0.281 HD
ATOM      9  H62 UNL     1      19.794  34.849  16.422  1.00  0.00     0.281 HD
ENDROOT
BRANCH   6  10
HETATM   10  C13 UNL     1      20.409  32.503  15.701  1.00  0.00     0.098 C
BRANCH  10  11
HETATM   11  N4  UNL     1      19.420  32.641  14.710  1.00  0.00    -0.366 N
BRANCH  11  12
HETATM   12  C14 UNL     1      18.085  32.411  15.006  1.00  0.00     0.093 C
BRANCH  12  13
HETATM   13  C15 UNL     1      17.278  33.656  15.286  1.00  0.00     0.317 C
BRANCH  13  14
HETATM   14  N5  UNL     1      16.674  33.625  16.585  1.00  0.00     0.097 N
HETATM   15  C16 UNL     1      17.546  34.145  17.602  1.00  0.00     0.299 C
HETATM   16  C17 UNL     1      16.917  35.263  18.407  1.00  0.00     0.198 C
HETATM   17  O4  UNL     1      15.697  34.878  18.906  1.00  0.00    -0.388 OA
HETATM   18  C18 UNL     1      14.836  34.387  17.957  1.00  0.00     0.198 C
HETATM   19  C19 UNL     1      15.430  34.359  16.554  1.00  0.00     0.299 C
ENDBRANCH  13  14
ENDBRANCH  12  13
ENDBRANCH  11  12
BRANCH  11  20
HETATM   20  C20 UNL     1      19.904  32.576  13.380  1.00  0.00     0.165 C
BRANCH  20  21
HETATM   21  C21 UNL     1      19.985  31.175  12.855  1.00  0.00    -0.038 A
HETATM   22  C22 UNL     1      21.170  30.484  12.942  1.00  0.00     0.034 A
HETATM   23  C23 UNL     1      21.303  29.200  12.486  1.00  0.00     0.057 A
HETATM   24 CL1  UNL     1      22.814  28.321  12.598  1.00  0.00    -0.083 Cl
HETATM   25  C24 UNL     1      20.233  28.548  11.916  1.00  0.00     0.062 A
HETATM   26 CL2  UNL     1      20.373  26.896  11.319  1.00  0.00    -0.082 Cl
HETATM   27  C25 UNL     1      19.030  29.218  11.815  1.00  0.00    -0.027 A
HETATM   28  C30 UNL     1      18.924  30.512  12.282  1.00  0.00     0.018 A
BRANCH  27  29
HETATM   29  C26 UNL     1      17.870  28.533  11.208  1.00  0.00    -0.022 C
HETATM   30  C27 UNL     1      17.525  27.255  11.948  1.00  0.00     0.019 C
HETATM   31  C28 UNL     1      18.157  28.228   9.766  1.00  0.00     0.019 C
HETATM   32  C29 UNL     1      16.667  29.446  11.326  1.00  0.00     0.019 C
ENDBRANCH  27  29
ENDBRANCH  20  21
ENDBRANCH  11  20
ENDBRANCH  10  11
ENDBRANCH   6  10
BRANCH   1  33
HETATM   33  C9  UNL     1      20.755  36.276  18.250  1.00  0.00     0.278 C
HETATM   34  N2  UNL     1      20.648  37.617  17.860  1.00  0.00    -0.346 N
HETATM   35  C8  UNL     1      21.336  38.092  16.677  1.00  0.00     0.146 C
HETATM   36  C31 UNL     1      19.865  38.551  18.587  1.00  0.00     0.146 C
HETATM   37  C7  UNL     1      21.798  39.533  16.912  1.00  0.00     0.148 C
HETATM   38  N1  UNL     1      21.889  39.796  18.324  1.00  0.00    -0.325 N
HETATM   39  C6  UNL     1      23.106  40.214  18.915  1.00  0.00     0.362 C
HETATM   40  C32 UNL     1      20.732  39.634  19.160  1.00  0.00     0.148 C
HETATM   41  O2  UNL     1      24.107  40.355  18.174  1.00  0.00    -0.238 OA
HETATM   42  O3  UNL     1      20.184  35.859  19.300  1.00  0.00    -0.269 OA
BRANCH  39  43
HETATM   43  O1  UNL     1      23.257  40.477  20.254  1.00  0.00    -0.304 OA
BRANCH  43  44
HETATM   44  C5  UNL     1      24.426  40.471  21.000  1.00  0.00     0.180 C
BRANCH  44  45
HETATM   45  C4  UNL     1      24.629  39.233  21.843  1.00  0.00     0.027 C
BRANCH  45  46
HETATM   46  C3  UNL     1      26.099  39.125  22.219  1.00  0.00     0.002 C
BRANCH  46  47
HETATM   47  C2  UNL     1      26.417  37.684  22.543  1.00  0.00    -0.004 C
HETATM   48  C1  UNL     1      25.147  36.879  22.401  1.00  0.00     0.005 C
ENDBRANCH  46  47
ENDBRANCH  45  46
ENDBRANCH  44  45
ENDBRANCH  43  44
ENDBRANCH  39  43
ENDBRANCH   1  33
TORSDOF 14
ENDMDL