MODEL 4
REMARK VINA RESULT: -9.153407031      1.019      1.704
REMARK  13 active torsions:
REMARK  status: ('A' for Active; 'I' for Inactive)
REMARK    1  A    between atoms: C4_4  and  C5_5
REMARK    2  A    between atoms: C5_5  and  N1_6
REMARK    3  A    between atoms: C11_13  and  N2_14
REMARK    4  A    between atoms: N2_14  and  C12_16
REMARK    5  A    between atoms: C16_24  and  O2_25
REMARK    6  A    between atoms: O2_25  and  C17_26
REMARK    7  A    between atoms: C17_26  and  C18_27
REMARK    8  A    between atoms: C18_27  and  N5_28
REMARK    9  A    between atoms: N5_28  and  C19_31
REMARK   10  A    between atoms: C19_31  and  C20_32
REMARK   11  A    between atoms: C20_32  and  N6_33
REMARK   12  A    between atoms: C26_40  and  O3_41
REMARK   13  A    between atoms: O3_41  and  C27_42
ROOT
HETATM    1  C12 UNL     1      19.188  30.718  13.122  1.00  0.00     0.119 A
HETATM    2  N3  UNL     1      17.955  30.769  13.665  1.00  0.00    -0.338 N
ATOM      3  H3  UNL     1      17.603  31.623  14.098  1.00  0.00     0.168 HD
HETATM    4  C13 UNL     1      17.208  29.653  13.616  1.00  0.00     0.182 A
HETATM    5  N4  UNL     1      17.635  28.511  13.055  1.00  0.00    -0.351 N
ATOM      6  H4  UNL     1      17.025  27.694  13.045  1.00  0.00     0.166 HD
HETATM    7  C14 UNL     1      18.860  28.435  12.507  1.00  0.00     0.050 A
HETATM    8  C15 UNL     1      19.329  27.268  11.923  1.00  0.00     0.070 A
HETATM    9  C16 UNL     1      20.558  27.149  11.360  1.00  0.00     0.104 A
HETATM   10  C26 UNL     1      21.409  28.296  11.382  1.00  0.00     0.103 A
HETATM   11  C31 UNL     1      20.918  29.462  11.973  1.00  0.00     0.057 A
HETATM   12  C32 UNL     1      19.664  29.540  12.530  1.00  0.00     0.038 A
ENDROOT
BRANCH   1  13
HETATM   13  N2  UNL     1      20.000  31.691  13.148  1.00  0.00    -0.340 N
ATOM     14  H2  UNL     1      20.482  31.954  12.288  1.00  0.00     0.167 HD
BRANCH  13  15
HETATM   15  C11 UNL     1      20.263  32.426  14.333  1.00  0.00     0.066 A
HETATM   16  C4  UNL     1      19.395  33.329  14.901  1.00  0.00    -0.011 A
HETATM   17  C3  UNL     1      19.773  33.979  16.040  1.00  0.00     0.021 A
HETATM   18  C2  UNL     1      21.011  33.764  16.653  1.00  0.00    -0.021 A
HETATM   19  C1  UNL     1      21.338  34.482  17.894  1.00  0.00     0.051 C
HETATM   20  C34 UNL     1      21.872  32.843  16.052  1.00  0.00     0.146 A
HETATM   21  C33 UNL     1      21.520  32.179  14.914  1.00  0.00     0.100 A
HETATM   22  F1  UNL     1      23.084  32.644  16.651  1.00  0.00    -0.204 F
HETATM   23 CL1  UNL     1      22.648  31.044  14.207  1.00  0.00    -0.079 Cl
BRANCH  16  24
HETATM   24  C5  UNL     1      18.100  33.559  14.280  1.00  0.00     0.166 C
BRANCH  24  25
HETATM   25  N1  UNL     1      17.030  33.891  15.212  1.00  0.00    -0.348 N
HETATM   26  C6  UNL     1      16.478  35.246  15.235  1.00  0.00     0.126 C
HETATM   27  C7  UNL     1      16.077  35.657  16.597  1.00  0.00     0.020 C
HETATM   28  C8  UNL     1      15.409  34.646  17.453  1.00  0.00     0.011 C
HETATM   29  C9  UNL     1      15.255  33.290  16.819  1.00  0.00     0.103 C
HETATM   30  C10 UNL     1      16.512  32.921  16.074  1.00  0.00     0.220 C
HETATM   31  O1  UNL     1      17.074  31.808  16.206  1.00  0.00    -0.273 OA
ENDBRANCH  24  25
ENDBRANCH  16  24
ENDBRANCH  13  15
ENDBRANCH   1  13
BRANCH  10  32
HETATM   32  O3  UNL     1      22.591  28.201  10.848  1.00  0.00    -0.341 OA
BRANCH  32  33
HETATM   33  C27 UNL     1      23.873  27.910  10.786  1.00  0.00     0.154 C
HETATM   34  C28 UNL     1      24.298  26.941   9.723  1.00  0.00     0.061 C
HETATM   35  C29 UNL     1      24.408  25.642  10.482  1.00  0.00     0.170 C
HETATM   36  O4  UNL     1      24.396  25.902  11.840  1.00  0.00    -0.389 OA
HETATM   37  C30 UNL     1      24.461  27.241  12.045  1.00  0.00     0.200 C
ENDBRANCH  32  33
ENDBRANCH  10  32
BRANCH   9  38
HETATM   38  O2  UNL     1      21.022  26.028  10.772  1.00  0.00    -0.347 OA
BRANCH  38  39
HETATM   39  C17 UNL     1      20.968  24.687  11.170  1.00  0.00     0.203 C
BRANCH  39  40
HETATM   40  C18 UNL     1      19.968  23.921  10.327  1.00  0.00     0.259 C
BRANCH  40  41
HETATM   41  N5  UNL     1      18.640  23.952  10.854  1.00  0.00    -0.071 N
ATOM     42  H52 UNL     1      18.480  23.160  11.477  1.00  0.00     0.277 HD
ATOM     43  H51 UNL     1      18.535  24.717  11.521  1.00  0.00     0.277 HD
BRANCH  41  44
HETATM   44  C19 UNL     1      17.602  24.017   9.825  1.00  0.00     0.262 C
BRANCH  44  45
HETATM   45  C20 UNL     1      17.582  25.413   9.227  1.00  0.00     0.300 C
BRANCH  45  46
HETATM   46  N6  UNL     1      17.401  25.420   7.810  1.00  0.00     0.093 N
HETATM   47  C21 UNL     1      18.027  24.303   7.153  1.00  0.00     0.302 C
HETATM   48  C22 UNL     1      19.373  24.603   6.565  1.00  0.00     0.302 C
HETATM   49  N7  UNL     1      20.129  25.526   7.368  1.00  0.00     0.087 N
HETATM   50  C23 UNL     1      21.456  25.659   6.844  1.00  0.00     0.310 C
HETATM   51  C24 UNL     1      19.418  26.785   7.387  1.00  0.00     0.302 C
HETATM   52  C25 UNL     1      17.936  26.622   7.175  1.00  0.00     0.302 C
ENDBRANCH  45  46
ENDBRANCH  44  45
ENDBRANCH  41  44
ENDBRANCH  40  41
ENDBRANCH  39  40
ENDBRANCH  38  39
ENDBRANCH   9  38
TORSDOF 13
ENDMDL