MODEL 5
REMARK VINA RESULT: -8.543081453      3.695     10.046
REMARK  13 active torsions:
REMARK  status: ('A' for Active; 'I' for Inactive)
REMARK    1  A    between atoms: C2_2  and  O1_3
REMARK    2  A    between atoms: O1_3  and  C3_4
REMARK    3  A    between atoms: C3_4  and  C4_5
REMARK    4  A    between atoms: C4_5  and  N1_6
REMARK    5  A    between atoms: C8_11  and  C9_12
REMARK       I    between atoms: C9_12  and  N3_14
REMARK    6  A    between atoms: N3_14  and  C10_16
REMARK    7  A    between atoms: C13_19  and  C14_20
REMARK    8  A    between atoms: C14_20  and  C15_21
REMARK    9  A    between atoms: C15_21  and  C16_22
REMARK   10  A    between atoms: C16_22  and  C17_23
REMARK   11  A    between atoms: C17_23  and  C18_24
REMARK       I    between atoms: N6_30  and  C20_32
REMARK   12  A    between atoms: C20_32  and  C21_34
REMARK   13  A    between atoms: C21_34  and  C22_35
ROOT
HETATM    1  C10 UNL     1      19.812  30.503  16.008  1.00  0.00     0.122 A
HETATM    2  C11 UNL     1      18.825  30.986  15.145  1.00  0.00     0.052 A
HETATM    3  C12 UNL     1      18.227  30.083  14.303  1.00  0.00     0.030 A
HETATM    4  C13 UNL     1      18.615  28.761  14.340  1.00  0.00     0.026 A
HETATM    5  N7  UNL     1      19.567  28.323  15.179  1.00  0.00    -0.303 N
ATOM      6  H7  UNL     1      19.844  27.341  15.194  1.00  0.00     0.186 HD
HETATM    7  N8  UNL     1      20.135  29.201  15.983  1.00  0.00    -0.285 N
ATOM      8  H8  UNL     1      20.859  28.872  16.622  1.00  0.00     0.188 HD
ENDROOT
BRANCH   4   9
HETATM    9  C14 UNL     1      17.910  27.845  13.380  1.00  0.00     0.058 C
BRANCH   9  10
HETATM   10  C15 UNL     1      17.066  28.610  12.389  1.00  0.00     0.006 C
BRANCH  10  11
HETATM   11  C16 UNL     1      17.871  29.030  11.204  1.00  0.00     0.007 C
BRANCH  11  12
HETATM   12  C17 UNL     1      17.055  29.092   9.935  1.00  0.00     0.066 C
BRANCH  12  13
HETATM   13  C18 UNL     1      17.712  28.179   8.937  1.00  0.00     0.069 A
HETATM   14  N4  UNL     1      17.872  28.351   7.634  1.00  0.00    -0.296 N
HETATM   15  N5  UNL     1      18.452  27.491   6.925  1.00  0.00    -0.279 N
ATOM     16  H4  UNL     1      17.517  29.201   7.195  1.00  0.00     0.187 HD
HETATM   17  C19 UNL     1      18.920  26.362   7.528  1.00  0.00     0.167 A
ATOM     18  H5  UNL     1      18.571  27.635   5.922  1.00  0.00     0.189 HD
HETATM   19  N6  UNL     1      19.529  25.408   6.925  1.00  0.00    -0.306 N
HETATM   20  S1  UNL     1      18.455  26.658   9.147  1.00  0.00    -0.038 SA
HETATM   21  C20 UNL     1      20.000  24.264   7.547  1.00  0.00     0.227 C
ATOM     22  H6  UNL     1      19.677  25.498   5.919  1.00  0.00     0.171 HD
HETATM   23  O3  UNL     1      20.029  23.155   6.888  1.00  0.00    -0.273 OA
BRANCH  21  24
HETATM   24  C21 UNL     1      20.481  24.227   8.937  1.00  0.00     0.143 C
BRANCH  24  25
HETATM   25  C22 UNL     1      21.905  24.700   8.946  1.00  0.00    -0.024 A
HETATM   26  C23 UNL     1      22.728  24.497   7.863  1.00  0.00     0.033 A
HETATM   27  C24 UNL     1      24.050  24.942   7.885  1.00  0.00     0.036 A
HETATM   28 CL1  UNL     1      25.079  24.675   6.500  1.00  0.00    -0.084 Cl
HETATM   29  C25 UNL     1      24.564  25.591   8.981  1.00  0.00     0.049 A
HETATM   30  C26 UNL     1      23.741  25.795  10.067  1.00  0.00     0.058 A
HETATM   31 CL2  UNL     1      24.392  26.627  11.476  1.00  0.00    -0.082 Cl
HETATM   32  C27 UNL     1      22.415  25.348  10.042  1.00  0.00     0.062 A
HETATM   33 CL3  UNL     1      21.417  25.630  11.440  1.00  0.00    -0.082 Cl
ENDBRANCH  24  25
ENDBRANCH  21  24
ENDBRANCH  12  13
ENDBRANCH  11  12
ENDBRANCH  10  11
ENDBRANCH   9  10
ENDBRANCH   4   9
BRANCH   1  34
HETATM   34  N3  UNL     1      20.348  31.363  16.779  1.00  0.00    -0.306 N
HETATM   35  C9  UNL     1      21.271  32.362  16.464  1.00  0.00     0.282 C
HETATM   36  O2  UNL     1      22.298  32.129  15.779  1.00  0.00    -0.265 OA
ATOM     37  H3  UNL     1      20.065  31.317  17.758  1.00  0.00     0.170 HD
BRANCH  35  38
HETATM   38  C8  UNL     1      21.084  33.741  16.921  1.00  0.00     0.163 A
HETATM   39  C7  UNL     1      21.971  34.774  16.933  1.00  0.00     0.143 A
HETATM   40  N2  UNL     1      21.336  35.847  17.447  1.00  0.00    -0.294 N
HETATM   41  C6  UNL     1      21.451  37.126  17.779  1.00  0.00     0.117 A
HETATM   42  C28 UNL     1      20.080  35.448  17.736  1.00  0.00     0.237 A
HETATM   43  C5  UNL     1      20.239  37.524  18.286  1.00  0.00     0.112 A
HETATM   44  N1  UNL     1      19.373  36.460  18.258  1.00  0.00    -0.319 N
HETATM   45  O4  UNL     1      19.968  34.201  17.413  1.00  0.00    -0.272 OA
BRANCH  44  46
HETATM   46  C4  UNL     1      18.005  36.535  18.715  1.00  0.00     0.158 C
BRANCH  46  47
HETATM   47  C3  UNL     1      17.086  35.636  17.934  1.00  0.00     0.187 C
BRANCH  47  48
HETATM   48  O1  UNL     1      16.334  34.771  18.676  1.00  0.00    -0.390 OA
BRANCH  48  49
HETATM   49  C2  UNL     1      15.354  34.101  17.949  1.00  0.00     0.163 C
HETATM   50  C1  UNL     1      16.002  33.409  16.744  1.00  0.00     0.033 C
ENDBRANCH  48  49
ENDBRANCH  47  48
ENDBRANCH  46  47
ENDBRANCH  44  46
ENDBRANCH  35  38
ENDBRANCH   1  34
TORSDOF 13
ENDMDL