MODEL 4
REMARK VINA RESULT: -9.666709519      1.410      1.619
REMARK  12 active torsions:
REMARK  status: ('A' for Active; 'I' for Inactive)
REMARK    1  A    between atoms: N2_5  and  C3_6
REMARK    2  A    between atoms: C3_6  and  C4_7
REMARK    3  A    between atoms: C4_7  and  N3_8
REMARK    4  A    between atoms: C7_11  and  C8_12
REMARK    5  A    between atoms: C11_15  and  C12_16
REMARK       I    between atoms: C12_16  and  N4_18
REMARK    6  A    between atoms: N4_18  and  C13_20
REMARK    7  A    between atoms: C24_31  and  O2_32
REMARK    8  A    between atoms: O2_32  and  C25_33
REMARK    9  A    between atoms: C25_33  and  C26_34
REMARK   10  A    between atoms: N5_37  and  C29_38
REMARK   11  A    between atoms: C29_38  and  C30_39
REMARK   12  A    between atoms: C35_49  and  C36_50
ROOT
HETATM    1  C8  UNL     1      19.239  31.709  13.925  1.00  0.00    -0.017 A
HETATM    2  C9  UNL     1      20.552  31.914  13.654  1.00  0.00     0.011 A
HETATM    3  C10 UNL     1      21.241  32.897  14.340  1.00  0.00     0.018 A
HETATM    4  C11 UNL     1      20.677  33.699  15.303  1.00  0.00     0.034 A
HETATM    5  C23 UNL     1      19.319  33.469  15.563  1.00  0.00     0.054 A
HETATM    6  C24 UNL     1      18.617  32.505  14.897  1.00  0.00     0.076 A
ENDROOT
BRANCH   1   7
HETATM    7  C7  UNL     1      18.385  30.643  13.321  1.00  0.00     0.062 C
HETATM    8  C6  UNL     1      18.778  30.205  11.965  1.00  0.00     0.057 C
HETATM    9  C5  UNL     1      19.264  28.763  11.875  1.00  0.00     0.064 C
HETATM   10  N3  UNL     1      20.211  28.556  12.884  1.00  0.00    -0.369 N
HETATM   11  C34 UNL     1      19.653  28.654  14.182  1.00  0.00     0.165 C
HETATM   12  C33 UNL     1      18.419  29.490  14.325  1.00  0.00     0.197 C
HETATM   13  F3  UNL     1      17.307  28.688  14.223  1.00  0.00    -0.247 F
BRANCH  10  14
HETATM   14  C4  UNL     1      21.450  27.983  12.712  1.00  0.00     0.086 C
BRANCH  14  15
HETATM   15  C3  UNL     1      22.256  28.146  11.488  1.00  0.00     0.214 C
BRANCH  15  16
HETATM   16  N2  UNL     1      22.204  27.110  10.514  1.00  0.00    -0.229 N
HETATM   17  N1  UNL     1      23.200  26.249  10.232  1.00  0.00    -0.286 N
HETATM   18  C2  UNL     1      22.830  25.456   9.243  1.00  0.00     0.057 A
ATOM     19  H1  UNL     1      24.101  26.214  10.709  1.00  0.00     0.188 HD
HETATM   20  C1  UNL     1      23.651  24.365   8.624  1.00  0.00     0.072 C
HETATM   21  C35 UNL     1      21.548  25.795   8.853  1.00  0.00     0.138 A
HETATM   22  N6  UNL     1      21.213  26.823   9.671  1.00  0.00    -0.277 N
ATOM     23  H6  UNL     1      20.319  27.312   9.645  1.00  0.00     0.189 HD
BRANCH  21  24
HETATM   24  C36 UNL     1      20.737  25.187   7.812  1.00  0.00     0.284 C
HETATM   25  N7  UNL     1      20.018  24.006   8.078  1.00  0.00    -0.056 NA
HETATM   26  O3  UNL     1      20.688  25.733   6.671  1.00  0.00    -0.269 OA
ENDBRANCH  21  24
ENDBRANCH  15  16
ENDBRANCH  14  15
ENDBRANCH  10  14
ENDBRANCH   1   7
BRANCH   6  27
HETATM   27  O2  UNL     1      17.273  32.295  15.162  1.00  0.00    -0.350 OA
BRANCH  27  28
HETATM   28  C25 UNL     1      16.681  32.491  16.414  1.00  0.00     0.180 C
BRANCH  28  29
HETATM   29  C26 UNL     1      15.536  33.482  16.234  1.00  0.00     0.013 C
HETATM   30  C27 UNL     1      14.981  33.834  17.581  1.00  0.00     0.037 C
HETATM   31  C28 UNL     1      14.637  35.312  17.656  1.00  0.00     0.273 C
HETATM   32  N5  UNL     1      15.729  36.175  17.337  1.00  0.00     0.093 N
HETATM   33  C31 UNL     1      16.745  35.574  16.524  1.00  0.00     0.273 C
HETATM   34  C32 UNL     1      16.079  34.682  15.499  1.00  0.00     0.037 C
BRANCH  32  35
HETATM   35  C29 UNL     1      16.269  36.908  18.449  1.00  0.00     0.343 C
BRANCH  35  36
HETATM   36  C30 UNL     1      16.008  38.382  18.253  1.00  0.00     0.381 C
HETATM   37  F1  UNL     1      16.705  39.048  19.245  1.00  0.00    -0.213 F
HETATM   38  F2  UNL     1      16.572  38.737  17.044  1.00  0.00    -0.213 F
ENDBRANCH  35  36
ENDBRANCH  32  35
ENDBRANCH  28  29
ENDBRANCH  27  28
ENDBRANCH   6  27
BRANCH   4  39
HETATM   39  C12 UNL     1      21.432  34.717  16.008  1.00  0.00     0.252 C
HETATM   40  O1  UNL     1      22.544  34.466  16.519  1.00  0.00    -0.268 OA
HETATM   41  N4  UNL     1      20.950  36.055  16.158  1.00  0.00    -0.352 N
ATOM     42  H4  UNL     1      20.046  36.300  15.754  1.00  0.00     0.163 HD
BRANCH  41  43
HETATM   43  C13 UNL     1      21.686  37.060  16.851  1.00  0.00     0.093 C
HETATM   44  C14 UNL     1      21.528  36.918  18.348  1.00  0.00     0.009 C
HETATM   45  C15 UNL     1      20.138  37.308  18.765  1.00  0.00     0.011 C
HETATM   46  C19 UNL     1      22.567  37.808  19.011  1.00  0.00     0.011 C
HETATM   47  C16 UNL     1      19.887  38.755  18.438  1.00  0.00    -0.013 C
HETATM   48  C17 UNL     1      20.932  39.652  19.056  1.00  0.00     0.009 C
HETATM   49  C22 UNL     1      19.968  38.873  16.924  1.00  0.00     0.011 C
HETATM   50  C18 UNL     1      22.305  39.223  18.574  1.00  0.00    -0.013 C
HETATM   51  C20 UNL     1      22.369  39.377  17.080  1.00  0.00     0.011 C
HETATM   52  C21 UNL     1      21.345  38.456  16.451  1.00  0.00     0.009 C
ENDBRANCH  41  43
ENDBRANCH   4  39
TORSDOF 12
ENDMDL