MODEL 1
REMARK VINA RESULT: -7.155101161      0.000      0.000
REMARK  14 active torsions:
REMARK  status: ('A' for Active; 'I' for Inactive)
REMARK    1  A    between atoms: C4_6  and  C5_7
REMARK       I    between atoms: C5_7  and  N1_9
REMARK    2  A    between atoms: N1_9  and  C6_11
REMARK    3  A    between atoms: C6_11  and  C7_12
REMARK    4  A    between atoms: C7_12  and  C8_13
REMARK    5  A    between atoms: C8_13  and  C9_14
REMARK    6  A    between atoms: C9_14  and  C10_15
REMARK    7  A    between atoms: C10_15  and  N2_16
REMARK    8  A    between atoms: N2_16  and  C11_17
REMARK    9  A    between atoms: N2_16  and  C13_20
REMARK   10  A    between atoms: C11_17  and  C12_18
REMARK   11  A    between atoms: C13_20  and  C14_21
REMARK   12  A    between atoms: C15_23  and  O3_24
REMARK   13  A    between atoms: O3_24  and  C16_25
REMARK   14  A    between atoms: C28_42  and  O7_43
ROOT
HETATM    1  C1  UNL     1      18.135  25.642  10.811  1.00  0.00     0.024 C
HETATM    2  C2  UNL     1      18.189  26.670   9.939  1.00  0.00    -0.005 C
HETATM    3  C3  UNL     1      18.991  27.817  10.162  1.00  0.00     0.215 C
HETATM    4  O1  UNL     1      20.093  27.852   9.534  1.00  0.00    -0.280 OA
HETATM    5  S1  UNL     1      18.937  29.349  11.135  1.00  0.00    -0.070 SA
HETATM    6  C4  UNL     1      20.678  29.672  11.714  1.00  0.00     0.179 C
HETATM    7  C15 UNL     1      21.242  28.627  12.601  1.00  0.00     0.187 C
HETATM    8  C18 UNL     1      22.575  28.074  12.289  1.00  0.00     0.188 A
HETATM    9  O5  UNL     1      22.973  27.956  10.885  1.00  0.00    -0.367 OA
HETATM   10  C19 UNL     1      22.918  26.847  11.740  1.00  0.00     0.087 A
HETATM   11  C20 UNL     1      24.386  26.366  11.979  1.00  0.00     0.049 C
HETATM   12  C21 UNL     1      22.056  25.688  11.552  1.00  0.00     0.044 C
HETATM   13  C22 UNL     1      22.128  24.804  10.372  1.00  0.00     0.032 C
HETATM   14  C23 UNL     1      22.350  25.350   9.052  1.00  0.00    -0.002 C
HETATM   15  C24 UNL     1      21.667  25.249   7.917  1.00  0.00     0.004 C
HETATM   16  C25 UNL     1      22.335  26.029   6.776  1.00  0.00     0.068 C
HETATM   17  N3  UNL     1      20.495  24.592   7.566  1.00  0.00    -0.331 N
ATOM     18  H3  UNL     1      20.684  23.838   6.907  1.00  0.00     0.168 HD
HETATM   19  C26 UNL     1      19.104  24.669   7.862  1.00  0.00     0.229 C
HETATM   20  O6  UNL     1      18.722  23.593   8.479  1.00  0.00    -0.273 OA
HETATM   21  C27 UNL     1      18.083  25.653   7.617  1.00  0.00     0.115 C
HETATM   22  C28 UNL     1      16.693  25.108   7.231  1.00  0.00     0.132 C
HETATM   23  C29 UNL     1      16.398  25.246   8.753  1.00  0.00     0.043 C
HETATM   24  C30 UNL     1      17.354  26.346   8.712  1.00  0.00     0.040 C
ENDROOT
BRANCH   6  25
HETATM   25  C5  UNL     1      20.787  31.058  12.097  1.00  0.00     0.234 C
HETATM   26  O2  UNL     1      20.366  31.963  11.309  1.00  0.00    -0.272 OA
HETATM   27  N1  UNL     1      21.353  31.436  13.325  1.00  0.00    -0.360 N
ATOM     28  H1  UNL     1      21.686  30.727  13.978  1.00  0.00     0.162 HD
BRANCH  27  29
HETATM   29  C6  UNL     1      21.461  32.842  13.657  1.00  0.00     0.122 C
BRANCH  29  30
HETATM   30  C7  UNL     1      22.504  32.999  14.733  1.00  0.00     0.020 C
BRANCH  30  31
HETATM   31  C8  UNL     1      21.900  33.646  15.932  1.00  0.00     0.003 C
BRANCH  31  32
HETATM   32  C9  UNL     1      20.529  34.219  15.664  1.00  0.00     0.020 C
BRANCH  32  33
HETATM   33  C10 UNL     1      19.628  33.988  16.878  1.00  0.00     0.122 C
BRANCH  33  34
HETATM   34  N2  UNL     1      18.444  33.293  16.542  1.00  0.00    -0.391 N
BRANCH  34  35
HETATM   35  C11 UNL     1      18.550  31.909  16.429  1.00  0.00     0.073 C
BRANCH  35  36
HETATM   36  C12 UNL     1      17.569  31.251  15.525  1.00  0.00     0.159 C
HETATM   37 CL1  UNL     1      17.693  31.662  13.813  1.00  0.00    -0.125 Cl
ENDBRANCH  35  36
ENDBRANCH  34  35
BRANCH  34  38
HETATM   38  C13 UNL     1      17.294  33.813  17.189  1.00  0.00     0.137 C
BRANCH  38  39
HETATM   39  C14 UNL     1      16.769  35.082  16.540  1.00  0.00     0.134 C
HETATM   40 CL2  UNL     1      16.407  34.843  14.837  1.00  0.00    -0.129 Cl
ENDBRANCH  38  39
ENDBRANCH  34  38
ENDBRANCH  33  34
ENDBRANCH  32  33
ENDBRANCH  31  32
ENDBRANCH  30  31
ENDBRANCH  29  30
ENDBRANCH  27  29
ENDBRANCH   6  25
BRANCH   7  41
HETATM   41  O3  UNL     1      20.283  27.699  13.071  1.00  0.00    -0.312 OA
BRANCH  41  42
HETATM   42  C16 UNL     1      19.337  27.944  14.037  1.00  0.00     0.255 C
HETATM   43  C17 UNL     1      17.916  27.549  13.848  1.00  0.00     0.126 C
HETATM   44  O4  UNL     1      19.702  28.515  15.093  1.00  0.00    -0.266 OA
ENDBRANCH  41  42
ENDBRANCH   7  41
BRANCH  22  45
HETATM   45  O7  UNL     1      16.697  23.820   6.767  1.00  0.00    -0.395 OA
ATOM     46  H7  UNL     1      17.220  23.685   5.986  1.00  0.00     0.210 HD
ENDBRANCH  22  45
TORSDOF 14
ENDMDL