MODEL 2
REMARK VINA RESULT: -8.223122200      5.830     11.385
REMARK  14 active torsions:
REMARK  status: ('A' for Active; 'I' for Inactive)
REMARK    1  A    between atoms: C2_2  and  C3_4
REMARK       I    between atoms: C3_4  and  N1_6
REMARK    2  A    between atoms: N1_6  and  C4_8
REMARK    3  A    between atoms: C8_13  and  O2_14
REMARK    4  A    between atoms: O2_14  and  C9_15
REMARK    5  A    between atoms: C11_18  and  O4_19
REMARK    6  A    between atoms: O4_19  and  C12_20
REMARK       I    between atoms: C12_20  and  N2_22
REMARK    7  A    between atoms: N2_22  and  C13_24
REMARK    8  A    between atoms: C13_24  and  C14_25
REMARK    9  A    between atoms: C14_25  and  C15_26
REMARK   10  A    between atoms: C15_26  and  N3_27
REMARK   11  A    between atoms: N3_27  and  C17_29
REMARK   12  A    between atoms: C17_29  and  C18_30
REMARK   13  A    between atoms: N4_40  and  C26_41
REMARK   14  A    between atoms: C26_41  and  C27_42
ROOT
HETATM    1  C4  UNL     1      20.267  34.192  17.175  1.00  0.00     0.338 C
HETATM    2  C5  UNL     1      19.416  33.169  16.519  1.00  0.00     0.109 C
HETATM    3  S1  UNL     1      17.645  33.275  16.882  1.00  0.00    -0.153 SA
HETATM    4  C6  UNL     1      16.870  32.785  15.282  1.00  0.00     0.076 C
HETATM    5  C7  UNL     1      15.608  32.038  15.628  1.00  0.00     0.024 C
HETATM    6  C8  UNL     1      17.838  31.783  14.644  1.00  0.00     0.175 C
HETATM    7  C11 UNL     1      19.100  32.450  14.147  1.00  0.00     0.171 C
HETATM    8  C24 UNL     1      19.529  33.574  15.063  1.00  0.00     0.064 C
HETATM    9  C25 UNL     1      20.951  33.965  14.966  1.00  0.00     0.283 C
HETATM   10  N4  UNL     1      21.432  34.221  16.324  1.00  0.00     0.113 N
ENDROOT
BRANCH   7  11
HETATM   11  O4  UNL     1      20.104  31.513  13.933  1.00  0.00    -0.295 OA
BRANCH  11  12
HETATM   12  C12 UNL     1      20.540  31.131  12.660  1.00  0.00     0.361 C
HETATM   13  O5  UNL     1      20.372  31.985  11.757  1.00  0.00    -0.239 OA
HETATM   14  N2  UNL     1      21.130  29.872  12.413  1.00  0.00    -0.337 N
ATOM     15  H2  UNL     1      21.229  29.230  13.199  1.00  0.00     0.164 HD
BRANCH  14  16
HETATM   16  C13 UNL     1      21.598  29.439  11.137  1.00  0.00     0.126 C
BRANCH  16  17
HETATM   17  C14 UNL     1      22.200  28.078  11.164  1.00  0.00     0.039 C
BRANCH  17  18
HETATM   18  C15 UNL     1      21.375  27.201  12.109  1.00  0.00     0.123 C
BRANCH  18  19
HETATM   19  N3  UNL     1      20.575  26.275  11.434  1.00  0.00    -0.393 N
HETATM   20  C16 UNL     1      21.056  24.989  11.167  1.00  0.00     0.148 C
BRANCH  19  21
HETATM   21  C17 UNL     1      19.268  26.649  11.165  1.00  0.00     0.099 C
BRANCH  21  22
HETATM   22  C18 UNL     1      18.783  26.608   9.780  1.00  0.00     0.018 A
HETATM   23  C19 UNL     1      19.296  27.413   8.798  1.00  0.00     0.017 A
HETATM   24  C20 UNL     1      18.797  27.357   7.495  1.00  0.00     0.025 A
HETATM   25  C21 UNL     1      17.779  26.485   7.193  1.00  0.00     0.037 A
HETATM   26 CL1  UNL     1      17.145  26.402   5.581  1.00  0.00    -0.084 Cl
HETATM   27  C22 UNL     1      17.262  25.669   8.201  1.00  0.00     0.067 A
HETATM   28  C23 UNL     1      17.746  25.716   9.484  1.00  0.00     0.129 A
HETATM   29  F1  UNL     1      17.231  24.916  10.439  1.00  0.00    -0.205 F
ENDBRANCH  21  22
ENDBRANCH  19  21
ENDBRANCH  18  19
ENDBRANCH  17  18
ENDBRANCH  16  17
ENDBRANCH  14  16
ENDBRANCH  11  12
ENDBRANCH   7  11
BRANCH   6  30
HETATM   30  O2  UNL     1      17.174  31.247  13.518  1.00  0.00    -0.312 OA
BRANCH  30  31
HETATM   31  C9  UNL     1      17.361  29.960  13.063  1.00  0.00     0.255 C
HETATM   32  C10 UNL     1      17.081  29.682  11.627  1.00  0.00     0.126 C
HETATM   33  O3  UNL     1      17.753  29.093  13.870  1.00  0.00    -0.266 OA
ENDBRANCH  30  31
ENDBRANCH   6  30
BRANCH   1  34
HETATM   34  N1  UNL     1      19.658  35.516  17.080  1.00  0.00    -0.326 N
HETATM   35  C3  UNL     1      19.462  36.303  18.248  1.00  0.00     0.259 C
HETATM   36  O1  UNL     1      19.796  35.914  19.392  1.00  0.00    -0.267 OA
ATOM     37  H1  UNL     1      19.371  35.879  16.170  1.00  0.00     0.165 HD
BRANCH  35  38
HETATM   38  C2  UNL     1      18.850  37.613  18.119  1.00  0.00     0.069 C
HETATM   39  C1  UNL     1      19.506  38.710  18.418  1.00  0.00     0.037 C
HETATM   40 BR1  UNL     1      17.056  37.740  17.507  1.00  0.00    -0.046 Br
ENDBRANCH  35  38
ENDBRANCH   1  34
BRANCH  10  41
HETATM   41  C26 UNL     1      22.381  33.241  16.748  1.00  0.00     0.275 C
BRANCH  41  42
HETATM   42  C27 UNL     1      22.770  32.311  15.629  1.00  0.00     0.026 C
HETATM   43  C28 UNL     1      23.974  32.868  14.864  1.00  0.00     0.007 C
ENDBRANCH  41  42
ENDBRANCH  10  41
TORSDOF 14
ENDMDL