MODEL 4
REMARK VINA RESULT: -8.527043886      2.429      5.170
REMARK  18 active torsions:
REMARK  status: ('A' for Active; 'I' for Inactive)
REMARK    1  A    between atoms: C2_2  and  C3_3
REMARK    2  A    between atoms: C3_3  and  C4_4
REMARK    3  A    between atoms: C4_4  and  C5_5
REMARK    4  A    between atoms: C5_5  and  O1_6
REMARK    5  A    between atoms: O1_6  and  C6_7
REMARK       I    between atoms: C6_7  and  N1_9
REMARK    6  A    between atoms: C9_13  and  O3_14
REMARK    7  A    between atoms: C9_13  and  C10_16
REMARK    8  A    between atoms: C10_16  and  C11_17
REMARK    9  A    between atoms: C11_17  and  C12_18
REMARK   10  A    between atoms: C12_18  and  C13_19
REMARK   11  A    between atoms: C13_19  and  N3_20
REMARK       I    between atoms: N6_25  and  C15_27
REMARK   12  A    between atoms: C15_27  and  C16_29
REMARK   13  A    between atoms: C16_29  and  C23_40
REMARK       I    between atoms: N7_30  and  C17_32
REMARK   14  A    between atoms: C17_32  and  O6_34
REMARK   15  A    between atoms: O6_34  and  C18_35
REMARK   16  A    between atoms: C18_35  and  C19_36
REMARK   17  A    between atoms: C23_40  and  C24_41
REMARK   18  A    between atoms: C24_41  and  C25_42
ROOT
HETATM    1  C10 UNL     1      19.960  28.153  12.125  1.00  0.00     0.063 C
HETATM    2  N6  UNL     1      19.864  28.910  13.195  1.00  0.00    -0.321 N
ATOM      3  H6  UNL     1      20.767  29.136  13.610  1.00  0.00     0.169 HD
HETATM    4  C15 UNL     1      18.813  29.454  13.864  1.00  0.00     0.274 C
HETATM    5  O4  UNL     1      17.784  28.744  14.074  1.00  0.00    -0.266 OA
ENDROOT
BRANCH   1   6
HETATM    6  C9  UNL     1      21.279  27.765  11.706  1.00  0.00     0.161 C
HETATM    7  N2  UNL     1      21.853  26.584  11.347  1.00  0.00    -0.357 N
HETATM    8  C8  UNL     1      21.348  25.279  11.206  1.00  0.00     0.145 C
HETATM    9  C32 UNL     1      23.328  26.668  11.027  1.00  0.00     0.145 C
HETATM   10  C7  UNL     1      21.359  25.009   9.680  1.00  0.00     0.148 C
HETATM   11  N1  UNL     1      22.730  25.013   9.269  1.00  0.00    -0.325 N
HETATM   12  C6  UNL     1      23.041  24.313   8.065  1.00  0.00     0.362 C
HETATM   13  C33 UNL     1      23.748  25.676  10.020  1.00  0.00     0.148 C
HETATM   14  O2  UNL     1      24.232  24.321   7.674  1.00  0.00    -0.238 OA
BRANCH  12  15
HETATM   15  O1  UNL     1      22.120  23.640   7.317  1.00  0.00    -0.304 OA
BRANCH  15  16
HETATM   16  C5  UNL     1      21.581  24.047   6.078  1.00  0.00     0.180 C
BRANCH  16  17
HETATM   17  C4  UNL     1      21.451  25.522   5.906  1.00  0.00     0.027 C
BRANCH  17  18
HETATM   18  C3  UNL     1      20.079  25.949   6.368  1.00  0.00     0.002 C
BRANCH  18  19
HETATM   19  C2  UNL     1      19.355  26.757   5.346  1.00  0.00    -0.004 C
HETATM   20  C1  UNL     1      18.639  27.898   6.049  1.00  0.00     0.005 C
ENDBRANCH  18  19
ENDBRANCH  17  18
ENDBRANCH  16  17
ENDBRANCH  15  16
ENDBRANCH  12  15
BRANCH   6  21
HETATM   21  O3  UNL     1      22.083  28.855  11.681  1.00  0.00    -0.345 OA
ATOM     22  H3  UNL     1      21.859  29.557  12.280  1.00  0.00     0.219 HD
ENDBRANCH   6  21
ENDBRANCH   1   6
BRANCH   1  23
HETATM   23  C11 UNL     1      18.695  27.736  11.529  1.00  0.00     0.063 C
BRANCH  23  24
HETATM   24  C12 UNL     1      18.655  27.645  10.038  1.00  0.00     0.026 C
BRANCH  24  25
HETATM   25  C13 UNL     1      17.717  26.470   9.712  1.00  0.00     0.122 C
BRANCH  25  26
HETATM   26  N3  UNL     1      17.826  25.529  10.804  1.00  0.00    -0.367 N
HETATM   27  C14 UNL     1      17.924  24.254  10.529  1.00  0.00     0.196 C
HETATM   28  N4  UNL     1      17.921  23.845   9.187  1.00  0.00    -0.067 NA
HETATM   29  N5  UNL     1      18.032  23.300  11.602  1.00  0.00    -0.067 NA
ATOM     30  H3  UNL     1      17.825  25.854  11.770  1.00  0.00     0.161 HD
ENDBRANCH  25  26
ENDBRANCH  24  25
ENDBRANCH  23  24
ENDBRANCH   1  23
BRANCH   4  31
HETATM   31  C16 UNL     1      18.767  30.834  14.382  1.00  0.00     0.127 C
HETATM   32  N7  UNL     1      19.377  31.783  13.862  1.00  0.00    -0.296 N
HETATM   33  C17 UNL     1      20.197  32.108  12.840  1.00  0.00     0.365 C
ATOM     34  H7  UNL     1      19.188  32.626  14.405  1.00  0.00     0.171 HD
HETATM   35  O5  UNL     1      19.737  32.188  11.647  1.00  0.00    -0.238 OA
BRANCH  33  36
HETATM   36  O6  UNL     1      21.575  32.388  12.944  1.00  0.00    -0.303 OA
BRANCH  36  37
HETATM   37  C18 UNL     1      22.078  33.281  13.950  1.00  0.00     0.189 C
BRANCH  37  38
HETATM   38  C19 UNL     1      22.864  32.447  14.934  1.00  0.00    -0.029 C
HETATM   39  C20 UNL     1      22.827  30.976  14.562  1.00  0.00     0.016 C
HETATM   40  C21 UNL     1      22.264  32.618  16.327  1.00  0.00     0.016 C
HETATM   41  C22 UNL     1      24.280  32.921  14.948  1.00  0.00     0.016 C
ENDBRANCH  37  38
ENDBRANCH  36  37
ENDBRANCH  33  36
BRANCH  31  42
HETATM   42  C23 UNL     1      17.963  31.133  15.567  1.00  0.00     0.037 C
HETATM   43  N8  UNL     1      18.374  30.847  16.746  1.00  0.00    -0.396 N
HETATM   44  C31 UNL     1      19.565  30.243  17.199  1.00  0.00     0.146 C
ATOM     45  H8  UNL     1      17.724  31.102  17.489  1.00  0.00     0.159 HD
BRANCH  42  46
HETATM   46  C24 UNL     1      16.638  31.788  15.483  1.00  0.00     0.064 C
BRANCH  46  47
HETATM   47  C25 UNL     1      16.597  33.026  16.399  1.00  0.00    -0.009 C
HETATM   48  C26 UNL     1      17.186  34.234  15.753  1.00  0.00     0.005 C
HETATM   49  C27 UNL     1      16.190  35.372  15.817  1.00  0.00     0.000 C
HETATM   50  C28 UNL     1      15.623  35.604  17.177  1.00  0.00     0.000 C
HETATM   51  C29 UNL     1      15.035  34.351  17.783  1.00  0.00     0.000 C
HETATM   52  C30 UNL     1      15.142  33.235  16.743  1.00  0.00     0.005 C
ENDBRANCH  46  47
ENDBRANCH  42  46
ENDBRANCH  31  42
ENDBRANCH   4  31
TORSDOF 18
ENDMDL