MODEL 1
REMARK VINA RESULT: -7.435354964      0.000      0.000
REMARK  13 active torsions:
REMARK  status: ('A' for Active; 'I' for Inactive)
REMARK    1  A    between atoms: C2_2  and  C3_3
REMARK    2  A    between atoms: C3_3  and  C4_4
REMARK    3  A    between atoms: C4_4  and  S1_5
REMARK    4  A    between atoms: S1_5  and  N1_8
REMARK       I    between atoms: N1_8  and  C5_10
REMARK    5  A    between atoms: C5_10  and  C6_12
REMARK    6  A    between atoms: C8_14  and  C9_15
REMARK    7  A    between atoms: C8_14  and  C11_17
REMARK    8  A    between atoms: C11_17  and  S2_18
REMARK    9  A    between atoms: S2_18  and  C12_19
REMARK   10  A    between atoms: C16_29  and  C17_30
REMARK   11  A    between atoms: C16_29  and  N5_39
REMARK   12  A    between atoms: C17_30  and  S4_31
REMARK   13  A    between atoms: S4_31  and  N4_34
ROOT
HETATM    1  C6  UNL     1      19.845  26.464   8.498  1.00  0.00     0.119 C
HETATM    2  C7  UNL     1      19.738  26.298  10.019  1.00  0.00     0.027 C
HETATM    3  C8  UNL     1      18.738  27.251  10.569  1.00  0.00    -0.031 C
HETATM    4  C14 UNL     1      17.439  27.085   9.861  1.00  0.00     0.013 C
HETATM    5  C15 UNL     1      17.395  26.005   8.852  1.00  0.00     0.044 C
HETATM    6  C16 UNL     1      18.566  25.912   7.885  1.00  0.00     0.185 C
ENDROOT
BRANCH   6   7
HETATM    7  C17 UNL     1      18.780  24.449   7.636  1.00  0.00     0.200 C
BRANCH   7   8
HETATM    8  S4  UNL     1      17.409  23.400   7.583  1.00  0.00     0.214 S
HETATM    9  O5  UNL     1      16.186  23.992   6.993  1.00  0.00    -0.211 OA
HETATM   10  O6  UNL     1      17.022  22.783   8.887  1.00  0.00    -0.211 OA
BRANCH   8  11
HETATM   11  N4  UNL     1      17.839  22.046   6.547  1.00  0.00    -0.211 NA
HETATM   12  C18 UNL     1      16.684  21.503   5.911  1.00  0.00     0.107 C
HETATM   13  C19 UNL     1      16.990  21.281   4.469  1.00  0.00     0.017 C
HETATM   14  C20 UNL     1      18.353  21.839   4.258  1.00  0.00     0.017 C
HETATM   15  C21 UNL     1      18.794  22.433   5.557  1.00  0.00     0.107 C
ENDBRANCH   8  11
ENDBRANCH   7   8
ENDBRANCH   6   7
BRANCH   6  16
HETATM   16  N5  UNL     1      18.173  26.578   6.674  1.00  0.00     0.100 N
HETATM   17  C22 UNL     1      18.593  26.056   5.442  1.00  0.00     0.273 C
HETATM   18  C23 UNL     1      17.746  26.567   4.290  1.00  0.00     0.030 C
HETATM   19  C24 UNL     1      17.244  27.964   4.492  1.00  0.00     0.003 C
HETATM   20  C25 UNL     1      18.279  28.666   5.343  1.00  0.00     0.030 C
HETATM   21  C26 UNL     1      18.329  27.998   6.722  1.00  0.00     0.273 C
ENDBRANCH   6  16
BRANCH   1  22
HETATM   22  C5  UNL     1      21.071  25.684   8.190  1.00  0.00     0.237 C
HETATM   23  N1  UNL     1      21.925  26.029   7.131  1.00  0.00    -0.254 N
ATOM     24  H1  UNL     1      21.702  26.843   6.560  1.00  0.00     0.181 HD
HETATM   25  O3  UNL     1      21.405  24.673   8.864  1.00  0.00    -0.272 OA
BRANCH  23  26
HETATM   26  S1  UNL     1      23.359  25.100   6.767  1.00  0.00     0.233 S
HETATM   27  O1  UNL     1      23.904  25.604   5.479  1.00  0.00    -0.206 OA
HETATM   28  O2  UNL     1      23.009  23.639   6.697  1.00  0.00    -0.206 OA
BRANCH  26  29
HETATM   29  C4  UNL     1      24.467  25.365   8.124  1.00  0.00     0.163 C
BRANCH  29  30
HETATM   30  C3  UNL     1      24.316  26.687   8.790  1.00  0.00     0.016 C
BRANCH  30  31
HETATM   31  C2  UNL     1      24.808  26.768  10.198  1.00  0.00    -0.004 C
HETATM   32  C1  UNL     1      23.620  26.368  11.087  1.00  0.00     0.005 C
ENDBRANCH  30  31
ENDBRANCH  29  30
ENDBRANCH  26  29
ENDBRANCH  23  26
ENDBRANCH   1  22
BRANCH   3  33
HETATM   33  C9  UNL     1      19.297  28.647  10.539  1.00  0.00     0.006 C
HETATM   34  C10 UNL     1      20.649  28.806  11.175  1.00  0.00     0.006 C
ENDBRANCH   3  33
BRANCH   3  35
HETATM   35  C11 UNL     1      18.625  26.855  12.052  1.00  0.00     0.092 C
BRANCH  35  36
HETATM   36  S2  UNL     1      17.442  27.780  12.980  1.00  0.00    -0.092 SA
BRANCH  36  37
HETATM   37  C12 UNL     1      18.315  28.970  14.049  1.00  0.00     0.153 A
HETATM   38  N2  UNL     1      19.299  28.508  14.828  1.00  0.00    -0.302 N
HETATM   39  S3  UNL     1      19.833  29.879  15.633  1.00  0.00     0.050 SA
ATOM     40  H2  UNL     1      19.641  27.551  14.913  1.00  0.00     0.176 HD
HETATM   41  C13 UNL     1      18.765  31.006  14.933  1.00  0.00     0.306 A
HETATM   42  O4  UNL     1      18.649  32.269  15.125  1.00  0.00    -0.258 OA
HETATM   43  N3  UNL     1      18.045  30.247  14.105  1.00  0.00    -0.296 N
ATOM     44  H3  UNL     1      17.305  30.652  13.533  1.00  0.00     0.171 HD
ENDBRANCH  36  37
ENDBRANCH  35  36
ENDBRANCH   3  35
TORSDOF 13
ENDMDL