MODEL 2
REMARK VINA RESULT: -7.672660056      0.915      1.149
REMARK  15 active torsions:
REMARK  status: ('A' for Active; 'I' for Inactive)
REMARK    1  A    between atoms: C2_2  and  C3_3
REMARK    2  A    between atoms: C3_3  and  C4_4
REMARK    3  A    between atoms: C4_4  and  C5_5
REMARK    4  A    between atoms: C5_5  and  O1_6
REMARK    5  A    between atoms: O1_6  and  C6_7
REMARK       I    between atoms: C6_7  and  N1_9
REMARK       I    between atoms: N2_12  and  C9_13
REMARK    6  A    between atoms: C9_13  and  C10_15
REMARK    7  A    between atoms: C10_15  and  N3_16
REMARK    8  A    between atoms: C10_15  and  C17_27
REMARK       I    between atoms: N3_16  and  C11_18
REMARK    9  A    between atoms: C11_18  and  O5_20
REMARK   10  A    between atoms: O5_20  and  N4_21
REMARK   11  A    between atoms: C18_28  and  O6_29
REMARK   12  A    between atoms: O6_29  and  C19_30
REMARK   13  A    between atoms: C22_33  and  C23_34
REMARK       I    between atoms: C23_34  and  N5_36
REMARK       I    between atoms: N5_36  and  C24_38
REMARK   14  A    between atoms: C24_38  and  C25_40
REMARK   15  A    between atoms: C25_40  and  C27_42
ROOT
HETATM    1  C10 UNL     1      19.356  32.514  15.726  1.00  0.00     0.186 C
ENDROOT
BRANCH   1   2
HETATM    2  C9  UNL     1      20.483  32.775  16.697  1.00  0.00     0.243 C
HETATM    3  N2  UNL     1      20.974  34.019  17.056  1.00  0.00    -0.347 N
HETATM    4  C8  UNL     1      20.363  35.232  16.579  1.00  0.00     0.146 C
HETATM    5  C32 UNL     1      22.126  34.135  17.920  1.00  0.00     0.146 C
HETATM    6  C7  UNL     1      21.287  36.425  16.747  1.00  0.00     0.148 C
HETATM    7  N1  UNL     1      21.762  36.495  18.124  1.00  0.00    -0.325 N
HETATM    8  C6  UNL     1      21.982  37.776  18.697  1.00  0.00     0.362 C
HETATM    9  C33 UNL     1      21.999  35.294  18.888  1.00  0.00     0.148 C
HETATM   10  O2  UNL     1      22.402  37.893  19.897  1.00  0.00    -0.238 OA
HETATM   11  O3  UNL     1      20.996  31.737  17.209  1.00  0.00    -0.271 OA
BRANCH   8  12
HETATM   12  O1  UNL     1      21.754  38.934  17.989  1.00  0.00    -0.304 OA
BRANCH  12  13
HETATM   13  C5  UNL     1      20.577  39.707  18.026  1.00  0.00     0.180 C
BRANCH  13  14
HETATM   14  C4  UNL     1      19.853  39.809  16.727  1.00  0.00     0.027 C
BRANCH  14  15
HETATM   15  C3  UNL     1      20.581  40.834  15.879  1.00  0.00     0.002 C
BRANCH  15  16
HETATM   16  C2  UNL     1      21.302  40.204  14.716  1.00  0.00    -0.004 C
HETATM   17  C1  UNL     1      22.333  41.198  14.211  1.00  0.00     0.005 C
ENDBRANCH  15  16
ENDBRANCH  14  15
ENDBRANCH  13  14
ENDBRANCH  12  13
ENDBRANCH   8  12
ENDBRANCH   1   2
BRANCH   1  18
HETATM   18  N3  UNL     1      18.169  32.838  16.555  1.00  0.00    -0.322 N
HETATM   19  C11 UNL     1      17.199  33.770  16.147  1.00  0.00     0.383 C
HETATM   20  O4  UNL     1      17.262  34.396  15.050  1.00  0.00    -0.236 OA
ATOM     21  H3  UNL     1      18.053  32.368  17.452  1.00  0.00     0.165 HD
BRANCH  19  22
HETATM   22  O5  UNL     1      16.122  34.028  16.955  1.00  0.00    -0.175 OA
BRANCH  22  23
HETATM   23  N4  UNL     1      16.029  35.002  17.886  1.00  0.00    -0.242 N
HETATM   24  C12 UNL     1      15.026  35.940  17.650  1.00  0.00     0.096 C
HETATM   25  C13 UNL     1      15.370  37.379  17.883  1.00  0.00     0.047 C
HETATM   26  C14 UNL     1      16.305  37.569  19.057  1.00  0.00     0.010 C
HETATM   27  C15 UNL     1      17.547  36.760  18.716  1.00  0.00     0.047 C
HETATM   28  C16 UNL     1      17.163  35.329  18.619  1.00  0.00     0.096 C
ENDBRANCH  22  23
ENDBRANCH  19  22
ENDBRANCH   1  18
BRANCH   1  29
HETATM   29  C17 UNL     1      19.362  31.052  15.450  1.00  0.00     0.055 C
HETATM   30  C18 UNL     1      20.562  30.457  14.787  1.00  0.00     0.129 C
HETATM   31  C21 UNL     1      20.082  28.937  14.781  1.00  0.00     0.047 C
HETATM   32  C22 UNL     1      18.665  29.072  14.367  1.00  0.00     0.089 C
HETATM   33  C29 UNL     1      18.264  30.495  14.605  1.00  0.00    -0.027 C
HETATM   34  C30 UNL     1      18.127  31.263  13.303  1.00  0.00     0.016 C
HETATM   35  C31 UNL     1      16.934  30.475  15.353  1.00  0.00     0.016 C
BRANCH  30  36
HETATM   36  O6  UNL     1      20.792  30.795  13.486  1.00  0.00    -0.386 OA
BRANCH  36  37
HETATM   37  C19 UNL     1      21.689  31.797  13.243  1.00  0.00     0.163 C
HETATM   38  C20 UNL     1      22.800  31.884  14.298  1.00  0.00     0.033 C
ENDBRANCH  36  37
ENDBRANCH  30  36
BRANCH  32  39
HETATM   39  C23 UNL     1      18.424  28.591  12.979  1.00  0.00     0.229 C
HETATM   40  O7  UNL     1      17.228  28.325  12.690  1.00  0.00    -0.273 OA
HETATM   41  N5  UNL     1      19.410  28.423  12.008  1.00  0.00    -0.297 N
HETATM   42  C24 UNL     1      19.266  28.001  10.682  1.00  0.00     0.228 C
ATOM     43  H5  UNL     1      20.362  28.637  12.303  1.00  0.00     0.171 HD
HETATM   44  O8  UNL     1      20.326  27.959   9.950  1.00  0.00    -0.273 OA
BRANCH  42  45
HETATM   45  C25 UNL     1      18.027  27.585  10.004  1.00  0.00     0.074 C
HETATM   46  C26 UNL     1      18.021  28.129   8.557  1.00  0.00     0.020 C
BRANCH  45  47
HETATM   47  C27 UNL     1      18.117  26.064   9.793  1.00  0.00     0.009 C
HETATM   48  C28 UNL     1      17.865  25.328  11.070  1.00  0.00     0.006 C
ENDBRANCH  45  47
ENDBRANCH  42  45
ENDBRANCH  32  39
ENDBRANCH   1  29
TORSDOF 15
ENDMDL