MODEL 4
REMARK VINA RESULT: -8.786792184      2.227     10.238
REMARK  15 active torsions:
REMARK  status: ('A' for Active; 'I' for Inactive)
REMARK    1  A    between atoms: O1_2  and  C2_3
REMARK    2  A    between atoms: C2_3  and  C3_5
REMARK    3  A    between atoms: C3_5  and  N1_6
REMARK    4  A    between atoms: C3_5  and  C28_43
REMARK       I    between atoms: N1_6  and  C4_8
REMARK    5  A    between atoms: C4_8  and  C5_10
REMARK    6  A    between atoms: N2_11  and  C6_12
REMARK    7  A    between atoms: C6_12  and  C7_13
REMARK    8  A    between atoms: C7_13  and  C8_15
REMARK    9  A    between atoms: C8_15  and  C9_16
REMARK   10  A    between atoms: C8_15  and  N3_23
REMARK   11  A    between atoms: C9_16  and  C10_17
REMARK       I    between atoms: N3_23  and  C15_25
REMARK   12  A    between atoms: C15_25  and  O7_27
REMARK   13  A    between atoms: O7_27  and  C16_28
REMARK   14  A    between atoms: C16_28  and  C17_29
REMARK   15  A    between atoms: N4_37  and  C23_38
ROOT
HETATM    1  C5  UNL     1      19.999  30.100  13.989  1.00  0.00     0.289 C
HETATM    2  N2  UNL     1      19.043  31.141  13.690  1.00  0.00    -0.297 N
HETATM    3  C22 UNL     1      20.138  31.750  12.915  1.00  0.00     0.325 C
HETATM    4  O9  UNL     1      20.201  32.400  11.851  1.00  0.00    -0.247 OA
HETATM    5  N4  UNL     1      20.956  31.234  13.955  1.00  0.00    -0.299 N
ENDROOT
BRANCH   2   6
HETATM    6  C6  UNL     1      17.698  31.614  13.766  1.00  0.00     0.210 C
BRANCH   6   7
HETATM    7  C7  UNL     1      17.298  31.863  15.188  1.00  0.00     0.167 C
HETATM    8  O4  UNL     1      17.087  30.882  15.868  1.00  0.00    -0.294 OA
BRANCH   7   9
HETATM    9  C8  UNL     1      17.229  33.244  15.627  1.00  0.00     0.158 C
BRANCH   9  10
HETATM   10  C9  UNL     1      16.038  34.022  15.273  1.00  0.00     0.040 C
BRANCH  10  11
HETATM   11  C10 UNL     1      15.364  34.769  16.410  1.00  0.00     0.012 C
HETATM   12  C11 UNL     1      16.027  36.109  16.505  1.00  0.00     0.009 C
HETATM   13  C12 UNL     1      16.223  36.650  17.879  1.00  0.00     0.027 C
HETATM   14  C13 UNL     1      16.539  35.488  18.823  1.00  0.00     0.167 C
HETATM   15  O5  UNL     1      15.384  34.685  18.816  1.00  0.00    -0.391 OA
HETATM   16  C14 UNL     1      15.395  33.935  17.635  1.00  0.00     0.172 C
ENDBRANCH  10  11
ENDBRANCH   9  10
BRANCH   9  17
HETATM   17  N3  UNL     1      18.484  33.954  15.372  1.00  0.00    -0.325 N
HETATM   18  C15 UNL     1      19.377  34.430  16.323  1.00  0.00     0.361 C
HETATM   19  O6  UNL     1      19.230  34.323  17.585  1.00  0.00    -0.238 OA
ATOM     20  H3  UNL     1      18.727  34.115  14.395  1.00  0.00     0.165 HD
BRANCH  18  21
HETATM   21  O7  UNL     1      20.554  35.091  15.911  1.00  0.00    -0.301 OA
BRANCH  21  22
HETATM   22  C16 UNL     1      21.368  35.710  16.887  1.00  0.00     0.212 C
BRANCH  22  23
HETATM   23  C17 UNL     1      21.162  37.179  16.967  1.00  0.00     0.145 C
HETATM   24  C18 UNL     1      22.369  37.811  17.719  1.00  0.00     0.034 C
HETATM   25  C19 UNL     1      22.370  39.256  17.331  1.00  0.00     0.005 C
HETATM   26  C20 UNL     1      21.033  39.840  17.710  1.00  0.00     0.026 C
HETATM   27  C21 UNL     1      19.868  38.974  17.381  1.00  0.00     0.168 C
HETATM   28  O8  UNL     1      20.059  37.607  17.665  1.00  0.00    -0.384 OA
ENDBRANCH  22  23
ENDBRANCH  21  22
ENDBRANCH  18  21
ENDBRANCH   9  17
ENDBRANCH   7   9
ENDBRANCH   6   7
ENDBRANCH   2   6
BRANCH   1  29
HETATM   29  C4  UNL     1      20.184  29.256  12.772  1.00  0.00     0.261 C
HETATM   30  N1  UNL     1      21.241  28.370  12.547  1.00  0.00    -0.344 N
ATOM     31  H1  UNL     1      21.963  28.225  13.253  1.00  0.00     0.163 HD
HETATM   32  O3  UNL     1      19.319  29.334  11.844  1.00  0.00    -0.269 OA
BRANCH  30  33
HETATM   33  C3  UNL     1      21.284  27.669  11.295  1.00  0.00     0.188 C
BRANCH  33  34
HETATM   34  C2  UNL     1      20.672  26.327  11.300  1.00  0.00     0.281 C
HETATM   35  O2  UNL     1      21.222  25.322  11.840  1.00  0.00    -0.263 OA
BRANCH  34  36
HETATM   36  O1  UNL     1      19.442  26.158  10.690  1.00  0.00    -0.325 OA
HETATM   37  C1  UNL     1      18.233  26.027  11.395  1.00  0.00     0.213 C
ENDBRANCH  34  36
ENDBRANCH  33  34
BRANCH  33  38
HETATM   38  C28 UNL     1      22.636  27.571  10.658  1.00  0.00     0.018 C
HETATM   39  C29 UNL     1      22.759  26.427   9.680  1.00  0.00     0.007 C
HETATM   40  C30 UNL     1      24.038  26.553   8.907  1.00  0.00     0.000 C
HETATM   41  C31 UNL     1      25.249  26.622   9.811  1.00  0.00     0.000 C
HETATM   42  C32 UNL     1      25.063  27.554  10.989  1.00  0.00     0.000 C
HETATM   43  C33 UNL     1      23.758  27.378  11.691  1.00  0.00     0.007 C
ENDBRANCH  33  38
ENDBRANCH  30  33
ENDBRANCH   1  29
BRANCH   5  44
HETATM   44  C23 UNL     1      22.124  31.604  14.645  1.00  0.00     0.091 C
HETATM   45  C24 UNL     1      22.763  32.885  14.137  1.00  0.00     0.025 C
HETATM   46  C25 UNL     1      23.681  33.257  15.278  1.00  0.00     0.002 C
HETATM   47  C26 UNL     1      23.111  32.608  16.523  1.00  0.00     0.002 C
HETATM   48  C27 UNL     1      21.773  32.008  16.059  1.00  0.00     0.025 C
ENDBRANCH   5  44
TORSDOF 15
ENDMDL