MODEL 1
REMARK VINA RESULT: -9.746769056      0.000      0.000
REMARK  14 active torsions:
REMARK  status: ('A' for Active; 'I' for Inactive)
REMARK    1  A    between atoms: C2_2  and  C3_3
REMARK    2  A    between atoms: C3_3  and  C5_5
REMARK    3  A    between atoms: C3_3  and  C12_20
REMARK       I    between atoms: C5_5  and  N1_7
REMARK    4  A    between atoms: N1_7  and  C6_9
REMARK    5  A    between atoms: C6_9  and  C7_10
REMARK    6  A    between atoms: C9_13  and  C10_14
REMARK    7  A    between atoms: C10_14  and  O3_16
REMARK    8  A    between atoms: C12_20  and  C13_21
REMARK    9  A    between atoms: C12_20  and  N3_25
REMARK   10  A    between atoms: C13_21  and  C14_22
REMARK   11  A    between atoms: C14_22  and  C15_23
REMARK       I    between atoms: N3_25  and  C17_26
REMARK   12  A    between atoms: C17_26  and  C18_28
REMARK       I    between atoms: N4_34  and  C23_35
REMARK   13  A    between atoms: C23_35  and  C24_37
REMARK   14  A    between atoms: C31_44  and  O7_45
ROOT
HETATM    1  C12 UNL     1      19.727  28.479  11.780  1.00  0.00     0.087 C
ENDROOT
BRANCH   1   2
HETATM    2  C3  UNL     1      18.273  28.213  11.404  1.00  0.00     0.106 C
HETATM    3  C4  UNL     1      17.435  29.426  11.405  1.00  0.00     0.037 C
BRANCH   2   4
HETATM    4  C2  UNL     1      17.766  27.203  12.429  1.00  0.00    -0.011 C
HETATM    5  C1  UNL     1      17.484  27.829  13.648  1.00  0.00     0.008 C
ENDBRANCH   2   4
BRANCH   2   6
HETATM    6  C5  UNL     1      18.108  27.482  10.108  1.00  0.00     0.240 C
HETATM    7  O1  UNL     1      17.698  26.305  10.003  1.00  0.00    -0.272 OA
HETATM    8  N1  UNL     1      18.438  28.212   8.944  1.00  0.00    -0.334 N
ATOM      9  H1  UNL     1      18.784  29.158   9.102  1.00  0.00     0.168 HD
BRANCH   8  10
HETATM   10  C6  UNL     1      18.354  27.817   7.611  1.00  0.00     0.121 C
BRANCH  10  11
HETATM   11  C7  UNL     1      19.250  26.682   7.156  1.00  0.00     0.055 A
HETATM   12  C8  UNL     1      18.834  25.583   6.471  1.00  0.00     0.082 A
HETATM   13  S1  UNL     1      20.314  24.785   6.284  1.00  0.00    -0.076 SA
HETATM   14  C9  UNL     1      21.333  25.781   7.016  1.00  0.00     0.150 A
HETATM   15  N2  UNL     1      20.549  26.843   7.475  1.00  0.00    -0.344 N
ATOM     16  H2  UNL     1      20.916  27.644   7.989  1.00  0.00     0.167 HD
BRANCH  14  17
HETATM   17  C10 UNL     1      22.823  25.828   7.240  1.00  0.00     0.317 C
HETATM   18  O2  UNL     1      23.578  25.814   6.286  1.00  0.00    -0.257 OA
BRANCH  17  19
HETATM   19  O3  UNL     1      23.253  25.875   8.540  1.00  0.00    -0.321 OA
HETATM   20  C11 UNL     1      22.891  24.849   9.478  1.00  0.00     0.213 C
ENDBRANCH  17  19
ENDBRANCH  14  17
ENDBRANCH  10  11
ENDBRANCH   8  10
ENDBRANCH   2   6
ENDBRANCH   1   2
BRANCH   1  21
HETATM   21  C13 UNL     1      20.675  27.618  11.061  1.00  0.00     0.070 C
BRANCH  21  22
HETATM   22  C14 UNL     1      22.075  28.189  10.891  1.00  0.00     0.006 C
BRANCH  22  23
HETATM   23  C15 UNL     1      22.874  27.855  12.128  1.00  0.00    -0.004 C
HETATM   24  C16 UNL     1      24.262  27.467  11.750  1.00  0.00     0.005 C
ENDBRANCH  22  23
ENDBRANCH  21  22
ENDBRANCH   1  21
BRANCH   1  25
HETATM   25  N3  UNL     1      19.988  29.808  12.085  1.00  0.00    -0.376 NA
HETATM   26  C17 UNL     1      20.245  31.119  12.385  1.00  0.00     0.317 C
HETATM   27  O4  UNL     1      20.273  32.154  11.749  1.00  0.00    -0.255 OA
BRANCH  26  28
HETATM   28  C18 UNL     1      20.572  31.324  13.886  1.00  0.00     0.226 C
HETATM   29  C19 UNL     1      22.035  31.794  13.816  1.00  0.00     0.157 C
HETATM   30  C20 UNL     1      22.642  31.714  15.202  1.00  0.00     0.039 C
HETATM   31  O5  UNL     1      21.863  33.167  13.656  1.00  0.00    -0.359 OA
HETATM   32  C21 UNL     1      21.850  32.820  15.889  1.00  0.00     0.056 C
HETATM   33  C22 UNL     1      21.027  33.382  14.782  1.00  0.00     0.227 C
HETATM   34  N4  UNL     1      19.943  32.472  14.443  1.00  0.00    -0.308 N
HETATM   35  C23 UNL     1      18.558  32.733  14.654  1.00  0.00     0.227 C
HETATM   36  O6  UNL     1      17.759  31.832  14.260  1.00  0.00    -0.273 OA
BRANCH  35  37
HETATM   37  C24 UNL     1      18.056  33.948  15.286  1.00  0.00     0.086 C
HETATM   38  C25 UNL     1      18.109  33.985  16.776  1.00  0.00     0.002 C
HETATM   39  C26 UNL     1      17.009  33.157  17.417  1.00  0.00     0.010 C
HETATM   40  C34 UNL     1      17.867  35.437  17.208  1.00  0.00     0.043 C
HETATM   41  C27 UNL     1      15.661  33.631  16.932  1.00  0.00    -0.011 C
HETATM   42  C28 UNL     1      15.586  33.451  15.452  1.00  0.00     0.010 C
HETATM   43  C33 UNL     1      15.463  35.054  17.364  1.00  0.00     0.042 C
HETATM   44  C29 UNL     1      16.661  34.306  14.818  1.00  0.00     0.002 C
HETATM   45  C30 UNL     1      16.407  35.744  15.215  1.00  0.00     0.043 C
HETATM   46  C31 UNL     1      16.537  35.922  16.693  1.00  0.00     0.061 C
BRANCH  46  47
HETATM   47  O7  UNL     1      16.365  37.236  17.056  1.00  0.00    -0.385 OA
HETATM   48  C32 UNL     1      16.186  37.479  18.383  1.00  0.00     0.202 C
ENDBRANCH  46  47
ENDBRANCH  35  37
ENDBRANCH  26  28
ENDBRANCH   1  25
TORSDOF 14
ENDMDL