MODEL 1
REMARK VINA RESULT: -6.377083045      0.000      0.000
REMARK  17 active torsions:
REMARK  status: ('A' for Active; 'I' for Inactive)
REMARK    1  A    between atoms: C2_2  and  C3_3
REMARK    2  A    between atoms: C4_4  and  S1_5
REMARK    3  A    between atoms: S1_5  and  C5_6
REMARK    4  A    between atoms: C8_9  and  O1_10
REMARK    5  A    between atoms: O1_10  and  C9_11
REMARK    6  A    between atoms: C11_15  and  O3_16
REMARK    7  A    between atoms: O3_16  and  C12_17
REMARK       I    between atoms: C12_17  and  N2_19
REMARK    8  A    between atoms: N2_19  and  C14_21
REMARK    9  A    between atoms: C14_21  and  C15_22
REMARK       I    between atoms: C15_22  and  N3_24
REMARK   10  A    between atoms: N3_24  and  C16_26
REMARK   11  A    between atoms: C16_26  and  C17_27
REMARK   12  A    between atoms: C21_31  and  C22_32
REMARK   13  A    between atoms: C22_32  and  C23_33
REMARK   14  A    between atoms: C22_32  and  N4_36
REMARK   15  A    between atoms: N4_36  and  C26_38
REMARK   16  A    between atoms: C29_41  and  O7_42
REMARK   17  A    between atoms: O7_42  and  C30_43
ROOT
HETATM    1  C3  UNL     1      18.659  27.080   6.728  1.00  0.00     0.009 C
HETATM    2  C4  UNL     1      19.099  27.521   8.105  1.00  0.00     0.082 C
HETATM    3  C8  UNL     1      19.934  26.298   8.527  1.00  0.00     0.154 C
HETATM    4  C10 UNL     1      20.751  26.053   7.301  1.00  0.00     0.054 C
HETATM    5  C11 UNL     1      21.200  24.574   7.174  1.00  0.00     0.150 C
HETATM    6  C21 UNL     1      20.591  24.065   5.951  1.00  0.00     0.086 C
HETATM    7  C29 UNL     1      19.469  24.998   5.583  1.00  0.00     0.146 C
HETATM    8  C32 UNL     1      19.872  26.352   6.121  1.00  0.00     0.030 C
ENDROOT
BRANCH   5   9
HETATM    9  O3  UNL     1      22.583  24.540   7.330  1.00  0.00    -0.297 OA
BRANCH   9  10
HETATM   10  C12 UNL     1      23.344  25.605   7.822  1.00  0.00     0.363 C
HETATM   11  O4  UNL     1      23.843  26.387   6.979  1.00  0.00    -0.238 OA
HETATM   12  N2  UNL     1      23.560  25.817   9.199  1.00  0.00    -0.324 N
HETATM   13  C13 UNL     1      22.960  24.913  10.152  1.00  0.00     0.155 C
BRANCH  12  14
HETATM   14  C14 UNL     1      24.373  26.909   9.644  1.00  0.00     0.230 C
BRANCH  14  15
HETATM   15  C15 UNL     1      23.895  27.592  10.848  1.00  0.00     0.235 C
HETATM   16  O5  UNL     1      24.664  27.643  11.857  1.00  0.00    -0.272 OA
HETATM   17  N3  UNL     1      22.614  28.197  10.925  1.00  0.00    -0.356 N
ATOM     18  H3  UNL     1      21.986  28.162  10.122  1.00  0.00     0.162 HD
BRANCH  17  19
HETATM   19  C16 UNL     1      22.191  28.870  12.154  1.00  0.00     0.150 C
BRANCH  19  20
HETATM   20  C17 UNL     1      21.150  29.863  11.866  1.00  0.00    -0.005 C
HETATM   21  C18 UNL     1      20.986  30.934  12.619  1.00  0.00    -0.090 C
HETATM   22  C19 UNL     1      21.873  31.144  13.785  1.00  0.00     0.042 C
HETATM   23  C20 UNL     1      19.933  31.947  12.333  1.00  0.00     0.042 C
ENDBRANCH  19  20
ENDBRANCH  17  19
ENDBRANCH  14  15
ENDBRANCH  12  14
ENDBRANCH   9  10
ENDBRANCH   5   9
BRANCH   6  24
HETATM   24  C22 UNL     1      21.365  23.413   4.885  1.00  0.00     0.300 C
BRANCH  24  25
HETATM   25  C23 UNL     1      21.623  22.001   5.438  1.00  0.00     0.157 C
HETATM   26  C24 UNL     1      20.726  20.872   5.089  1.00  0.00     0.093 C
HETATM   27  O6  UNL     1      22.548  21.822   6.148  1.00  0.00    -0.296 OA
ENDBRANCH  24  25
BRANCH  24  28
HETATM   28  N4  UNL     1      22.704  23.888   4.618  1.00  0.00     0.100 N
HETATM   29  C25 UNL     1      22.818  25.193   4.045  1.00  0.00     0.311 C
BRANCH  28  30
HETATM   30  C26 UNL     1      23.356  23.018   3.621  1.00  0.00     0.215 C
HETATM   31  C27 UNL     1      22.926  23.501   2.261  1.00  0.00     0.042 C
HETATM   32  C28 UNL     1      24.853  23.168   3.747  1.00  0.00     0.042 C
ENDBRANCH  28  30
ENDBRANCH  24  28
ENDBRANCH   6  24
BRANCH   3  33
HETATM   33  O1  UNL     1      18.976  25.254   8.664  1.00  0.00    -0.299 OA
BRANCH  33  34
HETATM   34  C9  UNL     1      18.887  24.402   9.730  1.00  0.00     0.373 C
HETATM   35  N1  UNL     1      17.874  23.417   9.724  1.00  0.00    -0.032 NA
HETATM   36  O2  UNL     1      19.699  24.518  10.673  1.00  0.00    -0.242 OA
ENDBRANCH  33  34
ENDBRANCH   3  33
BRANCH   7  37
HETATM   37  O7  UNL     1      19.012  24.954   4.287  1.00  0.00    -0.315 OA
BRANCH  37  38
HETATM   38  C30 UNL     1      17.816  24.405   3.858  1.00  0.00     0.255 C
HETATM   39  C31 UNL     1      16.712  24.226   4.813  1.00  0.00     0.126 C
HETATM   40  O8  UNL     1      17.731  24.083   2.651  1.00  0.00    -0.266 OA
ENDBRANCH  37  38
ENDBRANCH   7  37
BRANCH   2  41
HETATM   41  S1  UNL     1      17.623  27.599   9.163  1.00  0.00    -0.157 SA
BRANCH  41  42
HETATM   42  C5  UNL     1      18.049  28.518  10.658  1.00  0.00     0.039 C
HETATM   43  C6  UNL     1      18.215  27.549  11.832  1.00  0.00     0.021 C
HETATM   44  C7  UNL     1      16.893  29.469  10.967  1.00  0.00     0.021 C
ENDBRANCH  41  42
ENDBRANCH   2  41
BRANCH   1  45
HETATM   45  C2  UNL     1      18.317  28.299   5.904  1.00  0.00     0.002 C
HETATM   46  C1  UNL     1      17.299  27.943   4.868  1.00  0.00     0.005 C
ENDBRANCH   1  45
TORSDOF 17
ENDMDL