MODEL 4
REMARK VINA RESULT: -9.114874113      2.462      3.646
REMARK  13 active torsions:
REMARK  status: ('A' for Active; 'I' for Inactive)
REMARK    1  A    between atoms: C2_2  and  N2_5
REMARK       I    between atoms: N2_5  and  C4_6
REMARK    2  A    between atoms: N2_5  and  N9_45
REMARK    3  A    between atoms: C4_6  and  C5_8
REMARK    4  A    between atoms: C5_8  and  N3_9
REMARK    5  A    between atoms: C13_17  and  C14_18
REMARK    6  A    between atoms: C14_18  and  C15_19
REMARK    7  A    between atoms: C15_19  and  N4_20
REMARK    8  A    between atoms: C17_24  and  C18_25
REMARK    9  A    between atoms: C18_25  and  C19_26
REMARK   10  A    between atoms: C19_26  and  C20_27
REMARK   11  A    between atoms: C20_27  and  N6_28
REMARK       I    between atoms: N6_28  and  C21_30
REMARK   12  A    between atoms: C21_30  and  C22_32
REMARK   13  A    between atoms: C24_35  and  C25_36
REMARK       I    between atoms: C25_36  and  N7_38
ROOT
HETATM    1  C1  UNL     1      20.447  35.996  17.168  1.00  0.00     0.050 C
HETATM    2  C2  UNL     1      19.880  34.673  17.663  1.00  0.00     0.208 C
HETATM    3  C3  UNL     1      18.671  34.962  18.431  1.00  0.00     0.086 C
HETATM    4  N1  UNL     1      17.731  35.183  19.052  1.00  0.00    -0.195 NA
ENDROOT
BRANCH   2   5
HETATM    5  N2  UNL     1      19.490  33.821  16.525  1.00  0.00    -0.258 N
HETATM    6  C4  UNL     1      20.461  33.138  15.764  1.00  0.00     0.269 C
HETATM    7  O1  UNL     1      21.674  33.311  16.194  1.00  0.00    -0.266 OA
BRANCH   6   8
HETATM    8  C5  UNL     1      20.286  32.288  14.604  1.00  0.00     0.135 C
BRANCH   8   9
HETATM    9  N3  UNL     1      21.017  31.059  14.519  1.00  0.00    -0.288 NA
HETATM   10  C6  UNL     1      21.463  30.962  13.118  1.00  0.00     0.096 C
HETATM   11  C7  UNL     1      20.367  30.875  12.133  1.00  0.00     0.025 C
HETATM   12  C8  UNL     1      19.688  29.522  12.255  1.00  0.00    -0.031 C
HETATM   13  C9  UNL     1      18.193  29.738  12.202  1.00  0.00     0.010 C
HETATM   14  C13 UNL     1      20.009  28.620  11.048  1.00  0.00     0.018 C
HETATM   15  C28 UNL     1      20.068  28.950  13.559  1.00  0.00     0.025 C
HETATM   16  C10 UNL     1      17.393  28.489  12.301  1.00  0.00     0.001 C
HETATM   17  C11 UNL     1      17.937  27.370  11.458  1.00  0.00     0.001 C
HETATM   18  C12 UNL     1      19.434  27.281  11.485  1.00  0.00     0.009 C
HETATM   19  C29 UNL     1      20.121  29.920  14.679  1.00  0.00     0.096 C
BRANCH  14  20
HETATM   20  C14 UNL     1      21.446  28.587  10.757  1.00  0.00    -0.002 C
BRANCH  20  21
HETATM   21  C15 UNL     1      22.271  27.397  10.979  1.00  0.00     0.112 C
BRANCH  21  22
HETATM   22  N4  UNL     1      23.255  26.946  10.072  1.00  0.00    -0.271 N
HETATM   23  N5  UNL     1      24.570  27.128   9.826  1.00  0.00    -0.304 N
HETATM   24  C16 UNL     1      24.559  26.229   8.851  1.00  0.00     0.134 A
ATOM     25  H5  UNL     1      25.291  27.725  10.232  1.00  0.00     0.186 HD
HETATM   26  C17 UNL     1      23.222  26.016   9.074  1.00  0.00     0.050 A
BRANCH  26  27
HETATM   27  C18 UNL     1      22.182  25.122   8.522  1.00  0.00     0.062 C
BRANCH  27  28
HETATM   28  C19 UNL     1      21.513  25.695   7.320  1.00  0.00     0.026 C
BRANCH  28  29
HETATM   29  C20 UNL     1      20.271  26.451   7.663  1.00  0.00     0.123 C
BRANCH  29  30
HETATM   30  N6  UNL     1      19.539  26.892   6.484  1.00  0.00    -0.356 N
HETATM   31  C21 UNL     1      18.531  27.881   6.628  1.00  0.00     0.268 C
HETATM   32  O2  UNL     1      18.300  28.329   7.775  1.00  0.00    -0.266 OA
ATOM     33  H6  UNL     1      19.748  26.496   5.568  1.00  0.00     0.162 HD
BRANCH  31  34
HETATM   34  C22 UNL     1      17.764  28.380   5.450  1.00  0.00     0.108 A
HETATM   35  C23 UNL     1      17.079  27.500   4.649  1.00  0.00     0.087 A
HETATM   36  S1  UNL     1      16.357  28.553   3.517  1.00  0.00    -0.076 SA
HETATM   37  C24 UNL     1      16.972  30.050   4.132  1.00  0.00     0.143 A
HETATM   38  N8  UNL     1      17.688  29.636   5.160  1.00  0.00    -0.341 N
ATOM     39  H8  UNL     1      18.186  30.316   5.734  1.00  0.00     0.167 HD
BRANCH  37  40
HETATM   40  C25 UNL     1      16.716  31.403   3.611  1.00  0.00     0.276 C
HETATM   41  O3  UNL     1      17.464  31.792   2.664  1.00  0.00    -0.265 OA
HETATM   42  N7  UNL     1      15.708  32.234   4.115  1.00  0.00    -0.355 N
HETATM   43  C26 UNL     1      14.861  31.802   5.195  1.00  0.00     0.152 C
HETATM   44  C27 UNL     1      15.496  33.548   3.546  1.00  0.00     0.152 C
ENDBRANCH  37  40
ENDBRANCH  31  34
ENDBRANCH  29  30
ENDBRANCH  28  29
ENDBRANCH  27  28
ENDBRANCH  26  27
ENDBRANCH  21  22
ENDBRANCH  20  21
ENDBRANCH  14  20
ENDBRANCH   8   9
ENDBRANCH   6   8
BRANCH   5  45
HETATM   45  N9  UNL     1      18.162  33.688  16.254  1.00  0.00    -0.225 NA
HETATM   46  C30 UNL     1      17.505  32.484  16.537  1.00  0.00     0.114 C
HETATM   47  C31 UNL     1      17.179  31.815  15.260  1.00  0.00     0.017 C
HETATM   48  C32 UNL     1      17.435  32.834  14.189  1.00  0.00     0.017 C
HETATM   49  C33 UNL     1      17.707  34.098  14.969  1.00  0.00     0.114 C
ENDBRANCH   5  45
ENDBRANCH   2   5
TORSDOF 13
ENDMDL