MODEL 4
REMARK VINA RESULT: -8.283684966      2.738     12.631
REMARK  17 active torsions:
REMARK  status: ('A' for Active; 'I' for Inactive)
REMARK    1  A    between atoms: C2_2  and  C3_3
REMARK    2  A    between atoms: C3_3  and  C4_4
REMARK    3  A    between atoms: C4_4  and  C5_5
REMARK    4  A    between atoms: C5_5  and  O1_6
REMARK    5  A    between atoms: O1_6  and  C6_7
REMARK       I    between atoms: C6_7  and  N1_9
REMARK    6  A    between atoms: N2_12  and  C9_13
REMARK    7  A    between atoms: C9_13  and  O3_14
REMARK    8  A    between atoms: C10_16  and  N3_17
REMARK    9  A    between atoms: C10_16  and  C29_47
REMARK       I    between atoms: N3_17  and  C11_19
REMARK       I    between atoms: C11_19  and  N4_21
REMARK   10  A    between atoms: N5_24  and  C14_25
REMARK   11  A    between atoms: C14_25  and  C15_26
REMARK   12  A    between atoms: C16_27  and  O5_28
REMARK   13  A    between atoms: O5_28  and  C17_29
REMARK   14  A    between atoms: C17_29  and  C18_30
REMARK   15  A    between atoms: C18_30  and  C19_31
REMARK   16  A    between atoms: C19_31  and  N6_32
REMARK   17  A    between atoms: C21_37  and  O6_38
ROOT
HETATM    1  C15 UNL     1      18.209  35.528  17.759  1.00  0.00     0.020 A
HETATM    2  C16 UNL     1      19.597  35.477  17.298  1.00  0.00     0.083 A
HETATM    3  C20 UNL     1      20.383  36.566  17.538  1.00  0.00     0.076 A
HETATM    4  C21 UNL     1      19.897  37.674  18.187  1.00  0.00     0.092 A
HETATM    5  C23 UNL     1      18.596  37.711  18.614  1.00  0.00     0.085 A
HETATM    6  C24 UNL     1      18.102  38.877  19.294  1.00  0.00     0.103 C
HETATM    7  N7  UNL     1      17.719  39.828  19.831  1.00  0.00    -0.191 NA
HETATM    8  C25 UNL     1      17.732  36.620  18.400  1.00  0.00    -0.024 A
HETATM    9  C26 UNL     1      16.343  36.724  18.947  1.00  0.00     0.051 C
ENDROOT
BRANCH   4  10
HETATM   10  O6  UNL     1      20.743  38.751  18.401  1.00  0.00    -0.354 OA
HETATM   11  C22 UNL     1      21.858  38.598  19.239  1.00  0.00     0.210 C
ENDBRANCH   4  10
BRANCH   1  12
HETATM   12  C14 UNL     1      17.506  34.291  17.483  1.00  0.00     0.100 C
BRANCH  12  13
HETATM   13  N5  UNL     1      16.384  34.176  16.682  1.00  0.00    -0.386 N
HETATM   14  C13 UNL     1      16.420  34.754  15.364  1.00  0.00     0.142 C
HETATM   15  C12 UNL     1      16.637  33.748  14.280  1.00  0.00     0.147 C
HETATM   16  N4  UNL     1      16.974  32.428  14.686  1.00  0.00    -0.331 N
HETATM   17  C11 UNL     1      17.942  31.640  13.944  1.00  0.00     0.322 C
HETATM   18  C28 UNL     1      16.340  31.867  15.871  1.00  0.00     0.147 C
HETATM   19  N3  UNL     1      18.246  30.344  14.311  1.00  0.00    -0.308 N
HETATM   20  O4  UNL     1      18.455  32.224  12.979  1.00  0.00    -0.247 OA
ATOM     21  H3  UNL     1      17.735  29.994  15.120  1.00  0.00     0.170 HD
HETATM   22  C27 UNL     1      15.657  32.948  16.678  1.00  0.00     0.142 C
BRANCH  19  23
HETATM   23  C10 UNL     1      19.190  29.397  13.715  1.00  0.00     0.072 C
HETATM   24  C9  UNL     1      18.509  28.716  12.644  1.00  0.00     0.162 C
BRANCH  24  25
HETATM   25  N2  UNL     1      18.781  28.111  11.429  1.00  0.00    -0.357 N
HETATM   26  C8  UNL     1      19.054  28.655  10.130  1.00  0.00     0.145 C
HETATM   27  C7  UNL     1      19.406  27.609   9.074  1.00  0.00     0.148 C
HETATM   28  N1  UNL     1      20.215  26.546   9.537  1.00  0.00    -0.325 N
HETATM   29  C6  UNL     1      21.006  25.795   8.638  1.00  0.00     0.362 C
HETATM   30  C34 UNL     1      20.205  26.245  10.974  1.00  0.00     0.148 C
HETATM   31  O2  UNL     1      20.994  26.096   7.412  1.00  0.00    -0.238 OA
HETATM   32  C33 UNL     1      18.792  26.600  11.415  1.00  0.00     0.145 C
BRANCH  29  33
HETATM   33  O1  UNL     1      21.800  24.739   9.024  1.00  0.00    -0.304 OA
BRANCH  33  34
HETATM   34  C5  UNL     1      23.192  24.660   8.909  1.00  0.00     0.180 C
BRANCH  34  35
HETATM   35  C4  UNL     1      23.946  25.296  10.037  1.00  0.00     0.027 C
BRANCH  35  36
HETATM   36  C3  UNL     1      24.714  26.505   9.517  1.00  0.00     0.002 C
BRANCH  36  37
HETATM   37  C2  UNL     1      25.443  27.157  10.661  1.00  0.00    -0.004 C
HETATM   38  C1  UNL     1      24.521  27.240  11.841  1.00  0.00     0.005 C
ENDBRANCH  36  37
ENDBRANCH  35  36
ENDBRANCH  34  35
ENDBRANCH  33  34
ENDBRANCH  29  33
ENDBRANCH  24  25
BRANCH  24  39
HETATM   39  O3  UNL     1      17.163  28.631  12.880  1.00  0.00    -0.345 OA
ATOM     40  H3  UNL     1      17.029  28.158  13.693  1.00  0.00     0.219 HD
ENDBRANCH  24  39
BRANCH  23  41
HETATM   41  C29 UNL     1      20.603  29.739  13.758  1.00  0.00    -0.004 C
HETATM   42  C30 UNL     1      20.983  30.223  15.171  1.00  0.00     0.021 C
HETATM   43  C31 UNL     1      21.163  30.717  12.782  1.00  0.00     0.021 C
HETATM   44  C32 UNL     1      21.414  28.421  13.648  1.00  0.00     0.021 C
ENDBRANCH  23  41
ENDBRANCH  19  23
ENDBRANCH  12  13
ENDBRANCH   1  12
BRANCH   2  45
HETATM   45  O5  UNL     1      20.027  34.410  16.688  1.00  0.00    -0.350 OA
BRANCH  45  46
HETATM   46  C17 UNL     1      20.507  33.730  15.686  1.00  0.00     0.177 C
BRANCH  46  47
HETATM   47  C18 UNL     1      21.973  33.610  15.393  1.00  0.00     0.054 C
BRANCH  47  48
HETATM   48  C19 UNL     1      22.874  33.220  16.496  1.00  0.00     0.231 C
BRANCH  48  49
HETATM   49  N6  UNL     1      22.155  32.452  17.533  1.00  0.00    -0.079 N
ATOM     50  H63 UNL     1      21.164  32.695  17.559  1.00  0.00     0.274 HD
ATOM     51  H62 UNL     1      22.069  31.469  17.278  1.00  0.00     0.274 HD
ATOM     52  H61 UNL     1      22.590  32.564  18.449  1.00  0.00     0.274 HD
ENDBRANCH  48  49
ENDBRANCH  47  48
ENDBRANCH  46  47
ENDBRANCH  45  46
ENDBRANCH   2  45
TORSDOF 17
ENDMDL