MODEL 5
REMARK VINA RESULT: -8.712530278      2.334     10.300
REMARK  16 active torsions:
REMARK  status: ('A' for Active; 'I' for Inactive)
REMARK    1  A    between atoms: C2_2  and  C3_3
REMARK    2  A    between atoms: C3_3  and  C4_5
REMARK    3  A    between atoms: C4_5  and  N1_6
REMARK    4  A    between atoms: C4_5  and  C19_27
REMARK       I    between atoms: N1_6  and  C5_8
REMARK    5  A    between atoms: C5_8  and  C6_10
REMARK    6  A    between atoms: C6_10  and  C7_11
REMARK    7  A    between atoms: C6_10  and  N2_18
REMARK    8  A    between atoms: C7_11  and  C8_12
REMARK       I    between atoms: N2_18  and  C14_20
REMARK    9  A    between atoms: C14_20  and  O4_22
REMARK   10  A    between atoms: O4_22  and  C15_23
REMARK   11  A    between atoms: C19_27  and  O5_28
REMARK   12  A    between atoms: C19_27  and  C31_44
REMARK   13  A    between atoms: O5_28  and  C20_29
REMARK       I    between atoms: C20_29  and  N3_31
REMARK   14  A    between atoms: N4_34  and  C23_35
REMARK   15  A    between atoms: C23_35  and  C24_36
REMARK       I    between atoms: C31_44  and  N5_46
REMARK   16  A    between atoms: N5_46  and  C32_48
ROOT
HETATM    1  C4  UNL     1      19.141  26.916  11.013  1.00  0.00     0.193 C
ENDROOT
BRANCH   1   2
HETATM    2  C3  UNL     1      17.939  26.470  10.185  1.00  0.00     0.152 C
HETATM    3  O1  UNL     1      17.085  27.300   9.836  1.00  0.00    -0.296 OA
BRANCH   2   4
HETATM    4  C2  UNL     1      17.736  25.067   9.771  1.00  0.00     0.076 C
HETATM    5  C1  UNL     1      17.518  24.245  11.055  1.00  0.00     0.013 C
ENDBRANCH   2   4
ENDBRANCH   1   2
BRANCH   1   6
HETATM    6  N1  UNL     1      19.061  28.330  11.236  1.00  0.00    -0.342 N
HETATM    7  C5  UNL     1      18.609  28.951  12.394  1.00  0.00     0.264 C
HETATM    8  O2  UNL     1      18.210  28.144  13.322  1.00  0.00    -0.266 OA
ATOM      9  H1  UNL     1      19.364  28.937  10.474  1.00  0.00     0.163 HD
BRANCH   7  10
HETATM   10  C6  UNL     1      18.500  30.360  12.739  1.00  0.00     0.082 C
BRANCH  10  11
HETATM   11  C7  UNL     1      17.336  30.847  13.486  1.00  0.00     0.067 C
BRANCH  11  12
HETATM   12  C8  UNL     1      17.573  31.912  14.517  1.00  0.00    -0.009 C
HETATM   13  C9  UNL     1      16.477  32.967  14.473  1.00  0.00     0.005 C
HETATM   14  C10 UNL     1      16.885  34.105  15.372  1.00  0.00     0.000 C
HETATM   15  C11 UNL     1      17.174  33.661  16.795  1.00  0.00     0.000 C
HETATM   16  C12 UNL     1      18.085  32.474  16.844  1.00  0.00     0.000 C
HETATM   17  C13 UNL     1      17.568  31.353  15.926  1.00  0.00     0.005 C
ENDBRANCH  11  12
ENDBRANCH  10  11
BRANCH  10  18
HETATM   18  N2  UNL     1      19.740  30.924  13.217  1.00  0.00    -0.301 N
HETATM   19  C14 UNL     1      20.473  31.936  12.554  1.00  0.00     0.365 C
HETATM   20  O3  UNL     1      20.145  32.467  11.473  1.00  0.00    -0.238 OA
ATOM     21  H2  UNL     1      20.114  30.566  14.096  1.00  0.00     0.171 HD
BRANCH  19  22
HETATM   22  O4  UNL     1      21.669  32.423  13.101  1.00  0.00    -0.294 OA
BRANCH  22  23
HETATM   23  C15 UNL     1      21.923  32.616  14.452  1.00  0.00     0.061 C
HETATM   24  C16 UNL     1      23.405  32.930  14.616  1.00  0.00     0.046 C
HETATM   25  C17 UNL     1      21.675  31.394  15.314  1.00  0.00     0.046 C
HETATM   26  C18 UNL     1      21.150  33.784  15.019  1.00  0.00     0.046 C
ENDBRANCH  22  23
ENDBRANCH  19  22
ENDBRANCH  10  18
ENDBRANCH   7  10
ENDBRANCH   1   6
BRANCH   1  27
HETATM   27  C19 UNL     1      20.386  26.505  10.280  1.00  0.00     0.255 C
BRANCH  27  28
HETATM   28  O5  UNL     1      20.373  27.050   8.969  1.00  0.00    -0.286 OA
BRANCH  28  29
HETATM   29  C20 UNL     1      20.626  26.415   7.782  1.00  0.00     0.363 C
HETATM   30  O6  UNL     1      21.650  25.692   7.718  1.00  0.00    -0.238 OA
HETATM   31  N3  UNL     1      19.795  26.536   6.655  1.00  0.00    -0.325 N
HETATM   32  C21 UNL     1      18.598  27.355   6.704  1.00  0.00     0.158 C
HETATM   33  C30 UNL     1      20.046  25.856   5.425  1.00  0.00     0.158 C
HETATM   34  C22 UNL     1      17.398  26.464   6.326  1.00  0.00     0.292 C
HETATM   35  N4  UNL     1      17.584  25.921   5.040  1.00  0.00     0.091 N
HETATM   36  C29 UNL     1      18.882  25.996   4.465  1.00  0.00     0.292 C
BRANCH  35  37
HETATM   37  C23 UNL     1      17.072  24.586   4.846  1.00  0.00     0.277 C
BRANCH  37  38
HETATM   38  C24 UNL     1      16.852  23.836   6.124  1.00  0.00     0.018 C
HETATM   39  C25 UNL     1      18.004  22.880   6.319  1.00  0.00     0.032 C
HETATM   40  C26 UNL     1      17.719  21.489   5.768  1.00  0.00     0.168 C
HETATM   41  O7  UNL     1      16.597  20.901   6.286  1.00  0.00    -0.391 OA
HETATM   42  C27 UNL     1      15.663  21.745   6.829  1.00  0.00     0.168 C
HETATM   43  C28 UNL     1      15.579  23.050   6.067  1.00  0.00     0.032 C
ENDBRANCH  37  38
ENDBRANCH  35  37
ENDBRANCH  28  29
ENDBRANCH  27  28
BRANCH  27  44
HETATM   44  C31 UNL     1      21.631  27.004  10.926  1.00  0.00     0.250 C
HETATM   45  O8  UNL     1      21.587  27.285  12.147  1.00  0.00    -0.271 OA
HETATM   46  N5  UNL     1      22.808  27.149  10.170  1.00  0.00    -0.354 N
ATOM     47  H5  UNL     1      22.799  26.909   9.179  1.00  0.00     0.162 HD
BRANCH  46  48
HETATM   48  C32 UNL     1      24.045  27.637  10.779  1.00  0.00     0.084 A
HETATM   49  C33 UNL     1      25.335  27.049  10.319  1.00  0.00     0.027 A
HETATM   50  C34 UNL     1      24.844  26.833  11.710  1.00  0.00     0.027 A
ENDBRANCH  46  48
ENDBRANCH  27  44
ENDBRANCH   1  27
TORSDOF 16
ENDMDL