MODEL 2
REMARK VINA RESULT: -6.997433510      2.950      7.920
REMARK  13 active torsions:
REMARK  status: ('A' for Active; 'I' for Inactive)
REMARK    1  A    between atoms: C2_2  and  C3_3
REMARK    2  A    between atoms: C3_3  and  C4_4
REMARK       I    between atoms: C4_4  and  N1_6
REMARK    3  A    between atoms: N1_6  and  C5_7
REMARK    4  A    between atoms: N1_6  and  C9_12
REMARK    5  A    between atoms: C5_7  and  C6_8
REMARK    6  A    between atoms: C6_8  and  N2_9
REMARK    7  A    between atoms: C10_13  and  C11_14
REMARK    8  A    between atoms: C11_14  and  C12_15
REMARK    9  A    between atoms: C12_15  and  O3_17
REMARK   10  A    between atoms: C23_29  and  S1_30
REMARK   11  A    between atoms: S1_30  and  C24_33
REMARK   12  A    between atoms: C24_33  and  C25_34
REMARK   13  A    between atoms: C25_34  and  N3_35
ROOT
HETATM    1  C11 UNL     1      18.716  26.738   6.850  1.00  0.00     0.134 C
HETATM    2  C14 UNL     1      17.618  25.964   7.597  1.00  0.00     0.045 C
HETATM    3  C15 UNL     1      17.334  24.621   7.011  1.00  0.00     0.003 C
HETATM    4  C16 UNL     1      15.882  24.246   7.216  1.00  0.00     0.000 C
HETATM    5  C17 UNL     1      15.440  23.077   6.409  1.00  0.00     0.000 C
HETATM    6  C18 UNL     1      15.825  23.112   4.973  1.00  0.00     0.000 C
HETATM    7  C19 UNL     1      16.862  22.037   4.731  1.00  0.00     0.002 C
HETATM    8  C20 UNL     1      17.694  22.311   3.497  1.00  0.00     0.026 C
HETATM    9  C21 UNL     1      18.942  21.458   3.498  1.00  0.00     0.167 C
HETATM   10  O4  UNL     1      20.109  22.177   3.446  1.00  0.00    -0.390 OA
HETATM   11  C22 UNL     1      20.323  22.818   4.690  1.00  0.00     0.187 C
HETATM   12  C23 UNL     1      21.497  23.756   4.646  1.00  0.00     0.133 C
HETATM   13  C32 UNL     1      21.170  25.187   4.444  1.00  0.00     0.041 C
HETATM   14  C33 UNL     1      20.691  25.978   5.610  1.00  0.00     0.116 C
HETATM   15  N5  UNL     1      19.376  25.683   6.036  1.00  0.00    -0.401 N
ATOM     16  H5  UNL     1      18.911  24.805   5.800  1.00  0.00     0.154 HD
ENDROOT
BRANCH   1  17
HETATM   17  C10 UNL     1      19.659  27.344   7.763  1.00  0.00     0.031 C
HETATM   18  C9  UNL     1      19.948  27.057   9.148  1.00  0.00     0.093 C
BRANCH  18  19
HETATM   19  N1  UNL     1      18.979  27.154  10.188  1.00  0.00    -0.327 N
HETATM   20  C4  UNL     1      18.486  26.113  11.011  1.00  0.00     0.223 C
HETATM   21  O1  UNL     1      17.519  26.344  11.800  1.00  0.00    -0.273 OA
BRANCH  20  22
HETATM   22  C3  UNL     1      19.102  24.773  10.951  1.00  0.00     0.103 C
BRANCH  22  23
HETATM   23  C2  UNL     1      18.204  23.726  11.597  1.00  0.00     0.005 C
HETATM   24  C1  UNL     1      17.111  23.266  10.679  1.00  0.00     0.005 C
ENDBRANCH  22  23
ENDBRANCH  20  22
BRANCH  19  25
HETATM   25  C5  UNL     1      18.393  28.517  10.359  1.00  0.00     0.161 C
BRANCH  25  26
HETATM   26  C6  UNL     1      19.406  29.290  11.133  1.00  0.00     0.291 C
BRANCH  26  27
HETATM   27  N2  UNL     1      18.973  29.797  12.393  1.00  0.00     0.081 N
HETATM   28  C7  UNL     1      19.284  28.896  13.484  1.00  0.00     0.309 C
HETATM   29  C8  UNL     1      17.535  29.981  12.357  1.00  0.00     0.309 C
ENDBRANCH  26  27
ENDBRANCH  25  26
ENDBRANCH  19  25
ENDBRANCH  18  19
ENDBRANCH   1  17
BRANCH   1  30
HETATM   30  C12 UNL     1      18.101  27.632   5.871  1.00  0.00     0.290 C
HETATM   31  O2  UNL     1      18.581  28.809   5.698  1.00  0.00    -0.262 OA
BRANCH  30  32
HETATM   32  O3  UNL     1      17.019  27.364   5.056  1.00  0.00    -0.324 OA
HETATM   33  C13 UNL     1      16.591  28.263   4.022  1.00  0.00     0.213 C
ENDBRANCH  30  32
ENDBRANCH   1  30
BRANCH  12  34
HETATM   34  S1  UNL     1      22.669  23.417   5.924  1.00  0.00     0.152 S
HETATM   35  O5  UNL     1      22.022  23.018   7.205  1.00  0.00    -0.227 OA
HETATM   36  O6  UNL     1      23.646  22.394   5.413  1.00  0.00    -0.227 OA
BRANCH  34  37
HETATM   37  C24 UNL     1      23.637  24.887   6.274  1.00  0.00     0.171 C
BRANCH  37  38
HETATM   38  C25 UNL     1      24.114  24.763   7.702  1.00  0.00     0.289 C
BRANCH  38  39
HETATM   39  N3  UNL     1      23.380  25.647   8.591  1.00  0.00     0.114 N
HETATM   40  C26 UNL     1      23.330  24.968   9.890  1.00  0.00     0.277 C
HETATM   41  C27 UNL     1      22.603  25.876  10.848  1.00  0.00     0.068 C
HETATM   42  C28 UNL     1      23.492  27.094  11.045  1.00  0.00     0.122 C
HETATM   43  C29 UNL     1      22.820  28.030  12.001  1.00  0.00     0.046 C
HETATM   44  C30 UNL     1      24.801  26.640  11.655  1.00  0.00     0.046 C
HETATM   45  N4  UNL     1      23.665  27.726   9.770  1.00  0.00    -0.041 N
HETATM   46  C31 UNL     1      24.156  26.857   8.739  1.00  0.00     0.503 C
ATOM     47  H42 UNL     1      22.797  28.174   9.475  1.00  0.00     0.280 HD
ATOM     48  H41 UNL     1      24.263  28.547   9.859  1.00  0.00     0.280 HD
ENDBRANCH  38  39
ENDBRANCH  37  38
ENDBRANCH  34  37
ENDBRANCH  12  34
TORSDOF 13
ENDMDL