MODEL 4
REMARK VINA RESULT: -9.320493284      3.004      5.225
REMARK  13 active torsions:
REMARK  status: ('A' for Active; 'I' for Inactive)
REMARK    1  A    between atoms: C4_6  and  C5_7
REMARK    2  A    between atoms: C5_7  and  C6_8
REMARK    3  A    between atoms: C6_8  and  N2_9
REMARK    4  A    between atoms: N3_12  and  C9_13
REMARK    5  A    between atoms: C9_13  and  C10_14
REMARK    6  A    between atoms: C10_14  and  C11_15
REMARK    7  A    between atoms: C11_15  and  C12_16
REMARK    8  A    between atoms: C12_16  and  C13_17
REMARK    9  A    between atoms: C13_17  and  N4_18
REMARK   10  A    between atoms: N5_21  and  C16_22
REMARK   11  A    between atoms: C16_22  and  C17_23
REMARK   12  A    between atoms: C17_23  and  C18_24
REMARK   13  A    between atoms: N6_25  and  C19_27
ROOT
HETATM    1  C13 UNL     1      19.956  34.111  16.038  1.00  0.00     0.272 C
ENDROOT
BRANCH   1   2
HETATM    2  C12 UNL     1      21.297  34.000  15.428  1.00  0.00     0.030 C
BRANCH   2   3
HETATM    3  C11 UNL     1      22.217  32.958  15.945  1.00  0.00     0.003 C
BRANCH   3   4
HETATM    4  C10 UNL     1      22.616  31.866  15.023  1.00  0.00     0.030 C
BRANCH   4   5
HETATM    5  C9  UNL     1      21.760  31.871  13.747  1.00  0.00     0.272 C
BRANCH   5   6
HETATM    6  N3  UNL     1      21.488  30.571  13.240  1.00  0.00     0.091 N
HETATM    7  C8  UNL     1      21.218  29.604  14.285  1.00  0.00     0.302 C
HETATM    8  C7  UNL     1      19.819  29.752  14.839  1.00  0.00     0.302 C
HETATM    9  N2  UNL     1      18.815  29.665  13.806  1.00  0.00     0.092 N
HETATM   10  C31 UNL     1      19.132  30.563  12.747  1.00  0.00     0.302 C
HETATM   11  C30 UNL     1      20.523  30.463  12.205  1.00  0.00     0.302 C
BRANCH   9  12
HETATM   12  C6  UNL     1      18.543  28.309  13.398  1.00  0.00     0.277 C
BRANCH  12  13
HETATM   13  C5  UNL     1      17.458  28.202  12.380  1.00  0.00     0.073 C
BRANCH  13  14
HETATM   14  C4  UNL     1      18.026  27.610  11.141  1.00  0.00    -0.005 C
HETATM   15  C3  UNL     1      17.683  28.201   9.934  1.00  0.00     0.180 C
HETATM   16  C2  UNL     1      18.015  27.832   8.645  1.00  0.00     0.083 C
HETATM   17  O1  UNL     1      16.960  29.228  10.049  1.00  0.00    -0.288 OA
HETATM   18  C1  UNL     1      19.028  26.999   8.202  1.00  0.00     0.073 C
HETATM   19  N1  UNL     1      19.212  26.928   6.797  1.00  0.00    -0.101 NA
HETATM   20  C34 UNL     1      19.866  26.237   9.010  1.00  0.00     0.080 C
HETATM   21  C33 UNL     1      19.801  26.006  10.366  1.00  0.00     0.058 C
HETATM   22 CL3  UNL     1      21.187  25.475   8.141  1.00  0.00    -0.081 Cl
HETATM   23  C32 UNL     1      18.856  26.513  11.257  1.00  0.00     0.036 C
HETATM   24 CL2  UNL     1      21.029  24.970  11.053  1.00  0.00    -0.082 Cl
ENDBRANCH  13  14
ENDBRANCH  12  13
ENDBRANCH   9  12
ENDBRANCH   5   6
ENDBRANCH   4   5
ENDBRANCH   3   4
ENDBRANCH   2   3
ENDBRANCH   1   2
BRANCH   1  25
HETATM   25  N4  UNL     1      18.957  33.194  15.611  1.00  0.00     0.091 N
HETATM   26  C14 UNL     1      18.145  32.722  16.733  1.00  0.00     0.302 C
HETATM   27  C15 UNL     1      17.461  33.889  17.420  1.00  0.00     0.302 C
HETATM   28  N5  UNL     1      16.861  34.783  16.451  1.00  0.00     0.092 N
HETATM   29  C28 UNL     1      16.737  34.193  15.161  1.00  0.00     0.302 C
HETATM   30  C29 UNL     1      18.044  33.716  14.607  1.00  0.00     0.302 C
BRANCH  28  31
HETATM   31  C16 UNL     1      15.661  35.327  17.016  1.00  0.00     0.277 C
BRANCH  31  32
HETATM   32  C17 UNL     1      15.753  35.613  18.483  1.00  0.00     0.074 C
BRANCH  32  33
HETATM   33  C18 UNL     1      15.676  37.156  18.610  1.00  0.00     0.063 C
HETATM   34  N6  UNL     1      16.588  37.833  17.895  1.00  0.00    -0.369 N
ATOM     35  H6  UNL     1      17.118  37.078  17.460  1.00  0.00     0.165 HD
BRANCH  34  36
HETATM   36  C19 UNL     1      17.156  38.828  17.458  1.00  0.00     0.045 A
HETATM   37  C20 UNL     1      16.408  39.967  17.094  1.00  0.00     0.047 A
HETATM   38  C21 UNL     1      17.013  41.068  16.616  1.00  0.00     0.090 A
HETATM   39  N7  UNL     1      18.345  41.149  16.459  1.00  0.00    -0.365 N
HETATM   40  C22 UNL     1      19.073  40.066  16.803  1.00  0.00     0.044 A
ATOM     41  H7  UNL     1      18.788  41.993  16.095  1.00  0.00     0.165 HD
HETATM   42  C23 UNL     1      20.449  40.179  16.629  1.00  0.00     0.032 A
HETATM   43  C27 UNL     1      18.528  38.908  17.297  1.00  0.00     0.019 A
HETATM   44  C24 UNL     1      21.272  39.125  16.952  1.00  0.00     0.026 A
HETATM   45  C25 UNL     1      20.744  37.959  17.446  1.00  0.00     0.035 A
HETATM   46 CL1  UNL     1      21.816  36.658  17.839  1.00  0.00    -0.084 Cl
HETATM   47  C26 UNL     1      19.368  37.836  17.625  1.00  0.00     0.040 A
ENDBRANCH  34  36
ENDBRANCH  32  33
ENDBRANCH  31  32
ENDBRANCH  28  31
ENDBRANCH   1  25
TORSDOF 13
ENDMDL