MODEL 5
REMARK VINA RESULT: -8.535310127      2.051      3.303
REMARK  16 active torsions:
REMARK  status: ('A' for Active; 'I' for Inactive)
REMARK    1  A    between atoms: C2_2  and  C3_3
REMARK    2  A    between atoms: C3_3  and  C4_4
REMARK    3  A    between atoms: C6_7  and  O1_8
REMARK    4  A    between atoms: O1_8  and  C7_9
REMARK    5  A    between atoms: C7_9  and  C8_10
REMARK    6  A    between atoms: C8_10  and  O2_11
REMARK    7  A    between atoms: C8_10  and  N1_13
REMARK    8  A    between atoms: N1_13  and  C9_14
REMARK    9  A    between atoms: N1_13  and  C12_18
REMARK   10  A    between atoms: C9_14  and  C10_15
REMARK   11  A    between atoms: C10_15  and  O3_16
REMARK   12  A    between atoms: C15_21  and  N2_22
REMARK   13  A    between atoms: N2_22  and  C16_24
REMARK   14  A    between atoms: C16_24  and  C17_25
REMARK   15  A    between atoms: C26_39  and  C27_40
REMARK       I    between atoms: C27_40  and  N5_42
REMARK   16  A    between atoms: N6_45  and  C30_46
ROOT
HETATM    1  C8  UNL     1      19.748  30.095  15.118  1.00  0.00     0.143 C
ENDROOT
BRANCH   1   2
HETATM    2  C7  UNL     1      19.529  28.799  14.479  1.00  0.00     0.260 C
BRANCH   2   3
HETATM    3  O1  UNL     1      18.967  28.800  13.212  1.00  0.00    -0.341 OA
BRANCH   3   4
HETATM    4  C6  UNL     1      19.281  27.822  12.283  1.00  0.00     0.094 A
HETATM    5  C5  UNL     1      20.547  27.624  11.806  1.00  0.00     0.074 A
HETATM    6  C4  UNL     1      20.833  26.623  10.865  1.00  0.00    -0.015 A
HETATM    7 CL1  UNL     1      21.858  28.658  12.361  1.00  0.00    -0.081 Cl
HETATM    8  C26 UNL     1      19.808  25.820  10.409  1.00  0.00     0.078 A
HETATM    9  C25 UNL     1      18.511  26.022  10.897  1.00  0.00     0.135 A
HETATM   10  C24 UNL     1      18.274  27.010  11.816  1.00  0.00     0.081 A
HETATM   11  F2  UNL     1      17.477  25.240  10.462  1.00  0.00    -0.205 F
BRANCH   6  12
HETATM   12  C3  UNL     1      22.196  26.444  10.335  1.00  0.00     0.041 C
BRANCH  12  13
HETATM   13  C2  UNL     1      23.105  25.557  11.102  1.00  0.00     0.000 C
HETATM   14  C1  UNL     1      24.381  26.251  11.469  1.00  0.00     0.005 C
ENDBRANCH  12  13
ENDBRANCH   6  12
BRANCH   8  15
HETATM   15  C27 UNL     1      19.942  24.772   9.412  1.00  0.00     0.257 C
HETATM   16  O4  UNL     1      20.096  23.590   9.732  1.00  0.00    -0.267 OA
HETATM   17  N5  UNL     1      19.890  25.141   8.049  1.00  0.00    -0.344 N
HETATM   18  C28 UNL     1      20.022  24.113   7.042  1.00  0.00     0.156 C
HETATM   19  C33 UNL     1      19.710  26.495   7.608  1.00  0.00     0.156 C
HETATM   20  C29 UNL     1      20.544  24.793   5.790  1.00  0.00     0.292 C
HETATM   21  N6  UNL     1      19.580  25.735   5.274  1.00  0.00     0.091 N
HETATM   22  C32 UNL     1      19.037  26.604   6.261  1.00  0.00     0.292 C
BRANCH  21  23
HETATM   23  C30 UNL     1      18.512  25.109   4.548  1.00  0.00     0.268 C
HETATM   24  C31 UNL     1      17.151  25.633   4.945  1.00  0.00     0.037 C
ENDBRANCH  21  23
ENDBRANCH   8  15
ENDBRANCH   3   4
ENDBRANCH   2   3
ENDBRANCH   1   2
BRANCH   1  25
HETATM   25  O2  UNL     1      20.476  30.071  16.197  1.00  0.00    -0.348 OA
ATOM     26  H2  UNL     1      21.123  30.763  16.269  1.00  0.00     0.219 HD
ENDBRANCH   1  25
BRANCH   1  27
HETATM   27  N1  UNL     1      19.282  31.345  14.726  1.00  0.00    -0.325 N
BRANCH  27  28
HETATM   28  C9  UNL     1      19.736  32.080  13.560  1.00  0.00     0.157 C
BRANCH  28  29
HETATM   29  C10 UNL     1      21.193  31.861  13.298  1.00  0.00     0.187 C
BRANCH  29  30
HETATM   30  O3  UNL     1      21.982  32.869  13.754  1.00  0.00    -0.394 OA
HETATM   31  C11 UNL     1      22.967  32.467  14.609  1.00  0.00     0.201 C
ENDBRANCH  29  30
ENDBRANCH  28  29
ENDBRANCH  27  28
BRANCH  27  32
HETATM   32  C12 UNL     1      18.253  32.009  15.498  1.00  0.00     0.078 A
HETATM   33  C13 UNL     1      16.925  31.771  15.277  1.00  0.00     0.037 A
HETATM   34  C14 UNL     1      15.945  32.437  16.039  1.00  0.00     0.050 A
HETATM   35  C15 UNL     1      16.341  33.325  17.002  1.00  0.00     0.102 A
HETATM   36  N3  UNL     1      17.646  33.546  17.206  1.00  0.00    -0.329 N
HETATM   37  C23 UNL     1      18.608  32.909  16.476  1.00  0.00     0.145 A
ATOM     38  H3  UNL     1      17.930  34.210  17.927  1.00  0.00     0.168 HD
HETATM   39  N4  UNL     1      19.965  33.175  16.728  1.00  0.00    -0.080 NA
BRANCH  35  40
HETATM   40  N2  UNL     1      15.511  33.963  17.717  1.00  0.00    -0.373 N
ATOM     41  H2  UNL     1      14.533  33.673  17.732  1.00  0.00     0.161 HD
BRANCH  40  42
HETATM   42  C16 UNL     1      15.929  35.092  18.508  1.00  0.00     0.164 C
BRANCH  42  43
HETATM   43  C17 UNL     1      15.306  36.381  17.995  1.00  0.00     0.119 C
HETATM   44  F1  UNL     1      14.047  36.109  17.474  1.00  0.00    -0.241 F
HETATM   45  C18 UNL     1      15.226  37.375  19.133  1.00  0.00     0.045 C
HETATM   46  C19 UNL     1      16.301  38.410  19.115  1.00  0.00     0.003 C
HETATM   47  C20 UNL     1      17.623  37.922  18.616  1.00  0.00     0.000 C
HETATM   48  C21 UNL     1      17.552  37.147  17.335  1.00  0.00     0.003 C
HETATM   49  C22 UNL     1      16.149  36.886  16.861  1.00  0.00     0.045 C
ENDBRANCH  42  43
ENDBRANCH  40  42
ENDBRANCH  35  40
ENDBRANCH  27  32
ENDBRANCH   1  27
TORSDOF 16
ENDMDL