MODEL 2
REMARK VINA RESULT: -8.474657013      2.398      3.092
REMARK  15 active torsions:
REMARK  status: ('A' for Active; 'I' for Inactive)
REMARK    1  A    between atoms: C2_2  and  C3_3
REMARK    2  A    between atoms: C3_3  and  C4_4
REMARK    3  A    between atoms: C5_5  and  C6_6
REMARK    4  A    between atoms: C6_6  and  C7_7
REMARK    5  A    between atoms: C7_7  and  C8_8
REMARK       I    between atoms: N1_12  and  C11_13
REMARK    6  A    between atoms: C11_13  and  C12_15
REMARK    7  A    between atoms: C12_15  and  C13_16
REMARK    8  A    between atoms: C12_15  and  N2_20
REMARK    9  A    between atoms: C13_16  and  C14_17
REMARK   10  A    between atoms: C14_17  and  S1_18
REMARK       I    between atoms: N2_20  and  C16_22
REMARK   11  A    between atoms: C16_22  and  C17_24
REMARK   12  A    between atoms: C17_24  and  N3_25
REMARK       I    between atoms: N3_25  and  C18_27
REMARK   13  A    between atoms: C18_27  and  C19_29
REMARK       I    between atoms: N4_42  and  C29_43
REMARK   14  A    between atoms: C29_43  and  O6_45
REMARK   15  A    between atoms: O6_45  and  C30_46
ROOT
HETATM    1  C12 UNL     1      20.578  26.847  11.034  1.00  0.00     0.178 C
ENDROOT
BRANCH   1   2
HETATM    2  C11 UNL     1      21.116  28.196  11.455  1.00  0.00     0.249 C
HETATM    3  N1  UNL     1      20.465  29.211  12.108  1.00  0.00    -0.285 N
HETATM    4  C10 UNL     1      19.055  29.199  12.398  1.00  0.00     0.228 C
HETATM    5  C27 UNL     1      21.245  30.410  12.484  1.00  0.00     0.155 C
HETATM    6  C9  UNL     1      18.075  30.287  12.395  1.00  0.00     0.128 C
HETATM    7  O1  UNL     1      18.599  28.078  12.700  1.00  0.00    -0.273 OA
HETATM    8  C8  UNL     1      18.260  31.171  13.682  1.00  0.00     0.099 C
HETATM    9  N4  UNL     1      19.532  31.797  13.482  1.00  0.00    -0.321 N
HETATM   10  C28 UNL     1      20.423  31.649  12.294  1.00  0.00     0.149 C
HETATM   11  C29 UNL     1      20.117  32.719  14.378  1.00  0.00     0.363 C
HETATM   12  O5  UNL     1      19.650  33.188  15.431  1.00  0.00    -0.238 OA
HETATM   13  O2  UNL     1      22.350  28.443  11.174  1.00  0.00    -0.271 OA
BRANCH   8  14
HETATM   14  C7  UNL     1      18.036  30.240  14.799  1.00  0.00     0.038 C
BRANCH  14  15
HETATM   15  C6  UNL     1      16.898  30.358  15.743  1.00  0.00     0.096 C
BRANCH  15  16
HETATM   16  C5  UNL     1      16.524  31.802  15.865  1.00  0.00    -0.107 C
HETATM   17  C4  UNL     1      16.202  32.953  16.009  1.00  0.00    -0.107 C
BRANCH  17  18
HETATM   18  C3  UNL     1      15.769  34.357  16.221  1.00  0.00     0.093 C
BRANCH  18  19
HETATM   19  C2  UNL     1      15.055  34.366  17.586  1.00  0.00     0.007 C
HETATM   20  C1  UNL     1      14.483  35.734  17.790  1.00  0.00     0.006 C
ENDBRANCH  18  19
ENDBRANCH  17  18
ENDBRANCH  15  16
ENDBRANCH  14  15
ENDBRANCH   8  14
BRANCH  11  21
HETATM   21  O6  UNL     1      21.403  33.185  14.074  1.00  0.00    -0.304 OA
BRANCH  21  22
HETATM   22  C30 UNL     1      22.456  33.298  14.995  1.00  0.00     0.176 C
HETATM   23  C31 UNL     1      23.668  32.537  14.554  1.00  0.00     0.034 C
ENDBRANCH  21  22
ENDBRANCH  11  21
ENDBRANCH   1   2
BRANCH   1  24
HETATM   24  C13 UNL     1      21.527  25.765  11.417  1.00  0.00     0.045 C
BRANCH  24  25
HETATM   25  C14 UNL     1      22.190  25.134  10.192  1.00  0.00     0.076 C
BRANCH  25  26
HETATM   26  S1  UNL     1      23.982  25.291  10.393  1.00  0.00    -0.173 SA
HETATM   27  C15 UNL     1      24.596  26.675   9.406  1.00  0.00     0.089 C
ENDBRANCH  25  26
ENDBRANCH  24  25
ENDBRANCH   1  24
BRANCH   1  28
HETATM   28  N2  UNL     1      20.345  26.778   9.597  1.00  0.00    -0.346 N
HETATM   29  C16 UNL     1      19.101  26.963   8.969  1.00  0.00     0.246 C
HETATM   30  O3  UNL     1      18.088  27.231   9.640  1.00  0.00    -0.271 OA
ATOM     31  H2  UNL     1      21.148  26.581   8.999  1.00  0.00     0.163 HD
BRANCH  29  32
HETATM   32  C17 UNL     1      18.977  26.866   7.501  1.00  0.00     0.114 A
HETATM   33  C25 UNL     1      18.045  27.853   6.847  1.00  0.00     0.044 A
HETATM   34  C26 UNL     1      17.652  26.393   6.884  1.00  0.00     0.044 A
BRANCH  32  35
HETATM   35  N3  UNL     1      20.208  26.657   6.759  1.00  0.00    -0.339 N
HETATM   36  C18 UNL     1      20.805  25.406   6.632  1.00  0.00     0.255 C
HETATM   37  O4  UNL     1      20.218  24.428   7.213  1.00  0.00    -0.268 OA
ATOM     38  H3  UNL     1      20.653  27.459   6.312  1.00  0.00     0.164 HD
BRANCH  36  39
HETATM   39  C19 UNL     1      22.026  25.142   5.885  1.00  0.00     0.075 A
HETATM   40  C20 UNL     1      23.233  24.949   6.620  1.00  0.00     0.062 A
HETATM   41  C21 UNL     1      24.393  24.617   5.994  1.00  0.00     0.119 A
HETATM   42  F1  UNL     1      25.546  24.407   6.716  1.00  0.00    -0.206 F
HETATM   43  C22 UNL     1      24.453  24.459   4.627  1.00  0.00     0.069 A
HETATM   44  C23 UNL     1      23.302  24.641   3.862  1.00  0.00     0.076 A
HETATM   45 CL1  UNL     1      23.334  24.451   2.142  1.00  0.00    -0.081 Cl
HETATM   46  C24 UNL     1      22.145  24.973   4.543  1.00  0.00     0.153 A
HETATM   47  F2  UNL     1      21.033  25.158   3.767  1.00  0.00    -0.203 F
ENDBRANCH  36  39
ENDBRANCH  32  35
ENDBRANCH  29  32
ENDBRANCH   1  28
TORSDOF 15
ENDMDL