MODEL 3
REMARK VINA RESULT: -8.910381107      3.285      5.222
REMARK  16 active torsions:
REMARK  status: ('A' for Active; 'I' for Inactive)
REMARK    1  A    between atoms: C2_5  and  C3_6
REMARK    2  A    between atoms: C5_11  and  C6_12
REMARK    3  A    between atoms: C6_12  and  C7_13
REMARK    4  A    between atoms: C6_12  and  N4_35
REMARK    5  A    between atoms: C6_12  and  C28_45
REMARK    6  A    between atoms: C7_13  and  C8_14
REMARK    7  A    between atoms: C8_14  and  C9_15
REMARK    8  A    between atoms: C9_15  and  C10_16
REMARK    9  A    between atoms: N3_18  and  S1_19
REMARK   10  A    between atoms: S1_19  and  C12_22
REMARK   11  A    between atoms: C12_22  and  C13_23
REMARK   12  A    between atoms: N4_35  and  S2_37
REMARK   13  A    between atoms: S2_37  and  C25_40
REMARK   14  A    between atoms: C25_40  and  C26_41
REMARK   15  A    between atoms: C26_41  and  C27_42
REMARK   16  A    between atoms: C27_42  and  O5_43
ROOT
HETATM    1  C6  UNL     1      20.341  29.159  12.952  1.00  0.00     0.087 C
ENDROOT
BRANCH   1   2
HETATM    2  C5  UNL     1      21.294  28.391  12.108  1.00  0.00     0.059 A
HETATM    3  N1  UNL     1      21.105  27.833  10.911  1.00  0.00    -0.298 N
HETATM    4  C1  UNL     1      19.931  27.783  10.051  1.00  0.00     0.177 C
HETATM    5  N2  UNL     1      22.263  27.252  10.523  1.00  0.00    -0.294 N
HETATM    6  C2  UNL     1      23.196  27.422  11.437  1.00  0.00     0.134 A
ATOM      7  H2  UNL     1      22.397  26.751   9.644  1.00  0.00     0.187 HD
HETATM    8  C4  UNL     1      22.626  28.139  12.464  1.00  0.00     0.065 A
BRANCH   6   9
HETATM    9  C3  UNL     1      24.625  26.963  11.412  1.00  0.00     0.434 C
HETATM   10  F1  UNL     1      24.609  25.561  11.343  1.00  0.00    -0.165 F
HETATM   11  F2  UNL     1      25.301  27.383  12.521  1.00  0.00    -0.165 F
HETATM   12  F3  UNL     1      25.223  27.425  10.250  1.00  0.00    -0.165 F
ENDBRANCH   6   9
ENDBRANCH   1   2
BRANCH   1  13
HETATM   13  C7  UNL     1      20.985  29.547  14.232  1.00  0.00     0.038 C
BRANCH  13  14
HETATM   14  C8  UNL     1      20.145  29.425  15.496  1.00  0.00     0.004 C
BRANCH  14  15
HETATM   15  C9  UNL     1      20.307  30.656  16.313  1.00  0.00     0.011 C
BRANCH  15  16
HETATM   16  C10 UNL     1      20.561  31.977  15.707  1.00  0.00     0.033 C
HETATM   17  C11 UNL     1      19.773  32.983  16.521  1.00  0.00     0.081 C
HETATM   18  N3  UNL     1      20.291  33.644  17.616  1.00  0.00    -0.290 N
HETATM   19  C19 UNL     1      21.654  33.704  17.915  1.00  0.00     0.141 C
HETATM   20  C20 UNL     1      22.401  32.489  17.360  1.00  0.00     0.031 C
HETATM   21  C21 UNL     1      22.040  32.398  15.908  1.00  0.00    -0.031 C
HETATM   22  C22 UNL     1      22.182  33.804  15.269  1.00  0.00     0.010 C
HETATM   23  C24 UNL     1      23.090  31.969  14.991  1.00  0.00     0.010 C
HETATM   24  C23 UNL     1      22.726  33.104  14.009  1.00  0.00     0.002 C
BRANCH  18  25
HETATM   25  S1  UNL     1      19.398  35.072  17.992  1.00  0.00     0.232 S
HETATM   26  O1  UNL     1      19.971  36.202  17.178  1.00  0.00    -0.205 OA
HETATM   27  O2  UNL     1      19.696  35.396  19.452  1.00  0.00    -0.205 OA
BRANCH  25  28
HETATM   28  C12 UNL     1      17.688  34.888  17.831  1.00  0.00     0.168 C
BRANCH  28  29
HETATM   29  C13 UNL     1      17.004  35.322  16.599  1.00  0.00     0.001 C
HETATM   30  C14 UNL     1      15.706  34.499  16.488  1.00  0.00     0.005 C
HETATM   31  C15 UNL     1      14.855  34.652  17.687  1.00  0.00     0.000 C
HETATM   32  C16 UNL     1      14.564  36.067  18.103  1.00  0.00     0.000 C
HETATM   33  C17 UNL     1      15.770  36.959  18.018  1.00  0.00     0.000 C
HETATM   34  C18 UNL     1      16.484  36.768  16.727  1.00  0.00     0.005 C
ENDBRANCH  28  29
ENDBRANCH  25  28
ENDBRANCH  18  25
ENDBRANCH  15  16
ENDBRANCH  14  15
ENDBRANCH  13  14
ENDBRANCH   1  13
BRANCH   1  35
HETATM   35  N4  UNL     1      19.326  28.152  13.350  1.00  0.00    -0.303 N
ATOM     36  H4  UNL     1      19.608  27.275  13.789  1.00  0.00     0.173 HD
BRANCH  35  37
HETATM   37  S2  UNL     1      17.731  28.478  13.070  1.00  0.00     0.227 S
HETATM   38  O3  UNL     1      17.053  29.250  14.191  1.00  0.00    -0.206 OA
HETATM   39  O4  UNL     1      17.457  29.304  11.843  1.00  0.00    -0.206 OA
BRANCH  37  40
HETATM   40  C25 UNL     1      16.777  26.992  12.897  1.00  0.00     0.165 C
BRANCH  40  41
HETATM   41  C26 UNL     1      16.795  26.398  11.537  1.00  0.00     0.043 C
BRANCH  41  42
HETATM   42  C27 UNL     1      17.584  25.150  11.357  1.00  0.00     0.165 C
BRANCH  42  43
HETATM   43  O5  UNL     1      18.725  25.274  12.200  1.00  0.00    -0.401 OA
ATOM     44  H5  UNL     1      19.371  24.664  11.865  1.00  0.00     0.209 HD
ENDBRANCH  42  43
ENDBRANCH  41  42
ENDBRANCH  40  41
ENDBRANCH  37  40
ENDBRANCH  35  37
ENDBRANCH   1  35
BRANCH   1  45
HETATM   45  C28 UNL     1      19.693  30.281  12.247  1.00  0.00     0.020 A
HETATM   46  C29 UNL     1      19.615  31.650  12.847  1.00  0.00     0.008 A
HETATM   47  C30 UNL     1      20.508  31.403  11.688  1.00  0.00     0.008 A
ENDBRANCH   1  45
TORSDOF 16
ENDMDL