MODEL 1
REMARK VINA RESULT: -8.795244040      0.000      0.000
REMARK  16 active torsions:
REMARK  status: ('A' for Active; 'I' for Inactive)
REMARK    1  A    between atoms: C2_2  and  O1_3
REMARK    2  A    between atoms: C2_2  and  N1_5
REMARK    3  A    between atoms: C6_9  and  C7_10
REMARK       I    between atoms: C7_10  and  N2_12
REMARK    4  A    between atoms: N2_12  and  C8_14
REMARK    5  A    between atoms: C10_16  and  O3_17
REMARK    6  A    between atoms: O3_17  and  C11_18
REMARK    7  A    between atoms: C11_18  and  C12_19
REMARK    8  A    between atoms: C12_19  and  O4_20
REMARK    9  A    between atoms: O4_20  and  C13_21
REMARK   10  A    between atoms: C13_21  and  C14_22
REMARK   11  A    between atoms: C14_22  and  O5_23
REMARK   12  A    between atoms: O5_23  and  C15_24
REMARK   13  A    between atoms: C15_24  and  C16_25
REMARK   14  A    between atoms: C16_25  and  N3_26
REMARK   15  A    between atoms: C23_34  and  N4_35
REMARK   16  A    between atoms: N4_35  and  C24_37
ROOT
HETATM    1  C8  UNL     1      20.458  29.043  12.445  1.00  0.00     0.132 C
HETATM    2  C9  UNL     1      21.240  30.269  12.919  1.00  0.00     0.063 C
HETATM    3  C10 UNL     1      20.578  31.207  13.817  1.00  0.00     0.124 C
HETATM    4  C21 UNL     1      19.128  30.899  14.006  1.00  0.00     0.037 C
HETATM    5  C22 UNL     1      18.598  30.708  12.571  1.00  0.00     0.057 C
HETATM    6  C23 UNL     1      19.060  29.283  12.174  1.00  0.00     0.006 C
ENDROOT
BRANCH   1   7
HETATM    7  N2  UNL     1      21.286  28.529  11.318  1.00  0.00    -0.351 N
HETATM    8  C7  UNL     1      22.086  27.343  11.561  1.00  0.00     0.228 C
HETATM    9  O2  UNL     1      21.998  26.858  12.717  1.00  0.00    -0.273 OA
ATOM     10  H2  UNL     1      21.291  28.993  10.410  1.00  0.00     0.163 HD
BRANCH   8  11
HETATM   11  C6  UNL     1      22.902  26.781  10.529  1.00  0.00     0.129 C
HETATM   12  C5  UNL     1      24.299  26.410  10.970  1.00  0.00     0.022 C
HETATM   13  C4  UNL     1      25.239  26.550   9.748  1.00  0.00     0.021 C
HETATM   14  C3  UNL     1      24.427  26.466   8.458  1.00  0.00     0.131 C
HETATM   15  N1  UNL     1      23.408  25.390   8.627  1.00  0.00    -0.334 N
HETATM   16  C28 UNL     1      22.425  25.692   9.643  1.00  0.00     0.040 C
HETATM   17  C29 UNL     1      21.101  25.193   9.604  1.00  0.00     0.032 A
HETATM   18  C30 UNL     1      20.460  24.584  10.712  1.00  0.00     0.059 A
HETATM   19  C34 UNL     1      20.378  25.078   8.438  1.00  0.00     0.167 A
HETATM   20  C31 UNL     1      19.239  23.954  10.579  1.00  0.00     0.120 A
HETATM   21  F1  UNL     1      18.639  23.374  11.677  1.00  0.00    -0.206 F
HETATM   22  C32 UNL     1      18.582  23.877   9.398  1.00  0.00     0.087 A
HETATM   23  C33 UNL     1      19.177  24.459   8.299  1.00  0.00     0.158 A
HETATM   24  F2  UNL     1      18.553  24.398   7.081  1.00  0.00    -0.203 F
HETATM   25  F3  UNL     1      20.854  25.717   7.327  1.00  0.00    -0.202 F
BRANCH  15  26
HETATM   26  C2  UNL     1      23.576  24.279   7.846  1.00  0.00     0.113 C
HETATM   27  C1  UNL     1      23.518  24.070   6.429  1.00  0.00     0.097 C
BRANCH  26  28
HETATM   28  O1  UNL     1      23.838  23.167   8.520  1.00  0.00    -0.349 OA
ATOM     29  H1  UNL     1      24.558  23.268   9.132  1.00  0.00     0.219 HD
ENDBRANCH  26  28
ENDBRANCH  15  26
ENDBRANCH   8  11
ENDBRANCH   1   7
BRANCH   6  30
HETATM   30  N4  UNL     1      18.397  28.888  11.040  1.00  0.00    -0.387 N
ATOM     31  H4  UNL     1      18.761  29.285  10.174  1.00  0.00     0.160 HD
BRANCH  30  32
HETATM   32  C24 UNL     1      17.331  28.050  10.879  1.00  0.00     0.019 C
HETATM   33  C25 UNL     1      17.179  26.882  11.781  1.00  0.00     0.037 C
HETATM   34  C26 UNL     1      17.439  27.446   9.430  1.00  0.00     0.037 C
HETATM   35  C27 UNL     1      15.966  28.744  10.823  1.00  0.00     0.037 C
ENDBRANCH  30  32
ENDBRANCH   6  30
BRANCH   3  36
HETATM   36  O3  UNL     1      21.278  31.409  15.015  1.00  0.00    -0.384 OA
BRANCH  36  37
HETATM   37  C11 UNL     1      22.585  31.720  14.808  1.00  0.00     0.194 C
BRANCH  37  38
HETATM   38  C12 UNL     1      23.124  32.903  15.584  1.00  0.00     0.193 C
BRANCH  38  39
HETATM   39  O4  UNL     1      22.645  32.777  16.867  1.00  0.00    -0.387 OA
BRANCH  39  40
HETATM   40  C13 UNL     1      22.015  33.888  17.403  1.00  0.00     0.193 C
BRANCH  40  41
HETATM   41  C14 UNL     1      21.372  34.802  16.426  1.00  0.00     0.193 C
BRANCH  41  42
HETATM   42  O5  UNL     1      20.192  34.514  15.942  1.00  0.00    -0.387 OA
BRANCH  42  43
HETATM   43  C15 UNL     1      19.233  33.759  16.394  1.00  0.00     0.198 C
BRANCH  43  44
HETATM   44  C16 UNL     1      17.798  33.986  15.966  1.00  0.00     0.298 C
BRANCH  44  45
HETATM   45  N3  UNL     1      16.924  33.970  17.169  1.00  0.00     0.094 N
HETATM   46  C17 UNL     1      17.514  34.710  18.245  1.00  0.00     0.298 C
HETATM   47  C18 UNL     1      16.546  35.814  18.642  1.00  0.00     0.198 C
HETATM   48  O6  UNL     1      15.350  35.222  18.990  1.00  0.00    -0.388 OA
HETATM   49  C19 UNL     1      14.699  34.645  17.925  1.00  0.00     0.198 C
HETATM   50  C20 UNL     1      15.626  34.411  16.755  1.00  0.00     0.298 C
ENDBRANCH  44  45
ENDBRANCH  43  44
ENDBRANCH  42  43
ENDBRANCH  41  42
ENDBRANCH  40  41
ENDBRANCH  39  40
ENDBRANCH  38  39
ENDBRANCH  37  38
ENDBRANCH  36  37
ENDBRANCH   3  36
TORSDOF 16
ENDMDL