MODEL 3
REMARK VINA RESULT: -8.685920806      2.732      4.124
REMARK  13 active torsions:
REMARK  status: ('A' for Active; 'I' for Inactive)
REMARK    1  A    between atoms: C7_8  and  N1_9
REMARK    2  A    between atoms: N1_9  and  C8_10
REMARK       I    between atoms: N1_9  and  C22_31
REMARK    3  A    between atoms: C8_10  and  C9_11
REMARK    4  A    between atoms: C9_11  and  N2_12
REMARK    5  A    between atoms: C12_15  and  C13_16
REMARK    6  A    between atoms: C13_16  and  N3_17
REMARK    7  A    between atoms: N3_17  and  C14_19
REMARK    8  A    between atoms: C14_19  and  C15_20
REMARK    9  A    between atoms: C14_19  and  C17_24
REMARK   10  A    between atoms: C15_20  and  S1_21
REMARK   11  A    between atoms: C22_31  and  C23_33
REMARK   12  A    between atoms: C23_33  and  C24_34
REMARK   13  A    between atoms: C24_34  and  C25_35
REMARK       I    between atoms: C25_35  and  N5_37
ROOT
HETATM    1  S1  UNL     1      19.345  35.554  18.598  1.00  0.00    -0.049 SA
HETATM    2  C16 UNL     1      20.473  34.796  17.449  1.00  0.00     0.133 C
HETATM    3  N4  UNL     1      21.197  34.303  16.678  1.00  0.00    -0.184 NA
ENDROOT
BRANCH   1   4
HETATM    4  C15 UNL     1      18.885  37.158  17.966  1.00  0.00     0.115 C
BRANCH   4   5
HETATM    5  C14 UNL     1      17.385  37.341  17.728  1.00  0.00     0.095 C
BRANCH   5   6
HETATM    6  N3  UNL     1      17.119  36.479  16.576  1.00  0.00    -0.415 N
ATOM      7  H3  UNL     1      17.741  36.438  15.768  1.00  0.00     0.153 HD
BRANCH   6   8
HETATM    8  C13 UNL     1      15.933  35.702  16.664  1.00  0.00     0.118 C
BRANCH   8   9
HETATM    9  C12 UNL     1      16.227  34.411  15.881  1.00  0.00     0.006 C
HETATM   10  C11 UNL     1      17.532  34.694  15.165  1.00  0.00     0.026 C
HETATM   11  C10 UNL     1      18.066  33.484  14.457  1.00  0.00     0.122 C
HETATM   12  N2  UNL     1      17.969  32.337  15.297  1.00  0.00    -0.392 N
HETATM   13  C21 UNL     1      17.732  32.646  16.687  1.00  0.00     0.122 C
HETATM   14  C20 UNL     1      16.322  33.233  16.787  1.00  0.00     0.026 C
BRANCH  12  15
HETATM   15  C9  UNL     1      17.249  31.240  14.805  1.00  0.00     0.078 C
BRANCH  15  16
HETATM   16  C8  UNL     1      17.129  30.981  13.373  1.00  0.00     0.176 C
BRANCH  16  17
HETATM   17  N1  UNL     1      18.032  30.059  12.733  1.00  0.00    -0.311 N
HETATM   18  C22 UNL     1      17.624  29.364  11.530  1.00  0.00     0.225 C
HETATM   19  O1  UNL     1      16.380  29.435  11.260  1.00  0.00    -0.273 OA
BRANCH  17  20
HETATM   20  C7  UNL     1      19.368  29.848  13.152  1.00  0.00     0.065 A
HETATM   21  C2  UNL     1      20.429  30.620  12.793  1.00  0.00    -0.033 A
HETATM   22  C1  UNL     1      20.340  31.803  11.912  1.00  0.00     0.050 C
HETATM   23  C3  UNL     1      21.722  30.336  13.255  1.00  0.00     0.009 A
HETATM   24  C4  UNL     1      21.974  29.272  14.085  1.00  0.00     0.002 A
HETATM   25  C5  UNL     1      20.906  28.478  14.460  1.00  0.00     0.026 A
HETATM   26  C6  UNL     1      19.649  28.772  13.998  1.00  0.00     0.061 A
HETATM   27 CL1  UNL     1      18.338  27.734  14.514  1.00  0.00    -0.082 Cl
ENDBRANCH  17  20
BRANCH  18  28
HETATM   28  C23 UNL     1      18.505  28.625  10.647  1.00  0.00     0.112 C
BRANCH  28  29
HETATM   29  C24 UNL     1      18.594  27.185  11.030  1.00  0.00     0.112 C
BRANCH  29  30
HETATM   30  C25 UNL     1      19.152  26.368   9.924  1.00  0.00     0.220 C
HETATM   31  O2  UNL     1      18.341  25.746   9.186  1.00  0.00    -0.273 OA
HETATM   32  N5  UNL     1      20.560  26.300   9.719  1.00  0.00    -0.349 N
HETATM   33  C26 UNL     1      21.135  25.501   8.691  1.00  0.00     0.145 C
HETATM   34  C32 UNL     1      21.423  27.070  10.560  1.00  0.00     0.150 C
HETATM   35  C27 UNL     1      22.243  24.667   9.294  1.00  0.00     0.137 C
HETATM   36  N6  UNL     1      23.035  25.312  10.271  1.00  0.00    -0.405 N
HETATM   37  C28 UNL     1      24.259  25.882   9.830  1.00  0.00     0.117 C
HETATM   38  C31 UNL     1      22.389  26.140  11.219  1.00  0.00     0.097 C
HETATM   39  C29 UNL     1      24.418  27.178  10.627  1.00  0.00     0.021 C
HETATM   40  C30 UNL     1      23.521  26.937  11.842  1.00  0.00     0.028 C
ENDBRANCH  29  30
ENDBRANCH  28  29
ENDBRANCH  18  28
ENDBRANCH  16  17
ENDBRANCH  15  16
ENDBRANCH  12  15
ENDBRANCH   8   9
ENDBRANCH   6   8
ENDBRANCH   5   6
BRANCH   5  41
HETATM   41  C17 UNL     1      17.037  38.756  17.420  1.00  0.00     0.068 A
HETATM   42  C18 UNL     1      17.743  39.936  18.012  1.00  0.00     0.072 A
HETATM   43  C19 UNL     1      16.407  39.572  18.561  1.00  0.00     0.185 A
HETATM   44  F1  UNL     1      16.384  38.996  19.816  1.00  0.00    -0.225 F
HETATM   45 CL2  UNL     1      14.981  40.538  18.179  1.00  0.00    -0.082 Cl
ENDBRANCH   5  41
ENDBRANCH   4   5
ENDBRANCH   1   4
TORSDOF 13
ENDMDL