MODEL 4
REMARK VINA RESULT: -8.297282836      2.355      3.296
REMARK  15 active torsions:
REMARK  status: ('A' for Active; 'I' for Inactive)
REMARK    1  A    between atoms: C7_9  and  C8_10
REMARK    2  A    between atoms: C8_10  and  C9_11
REMARK    3  A    between atoms: C9_11  and  C10_12
REMARK    4  A    between atoms: C10_12  and  N2_13
REMARK    5  A    between atoms: C10_12  and  C11_17
REMARK    6  A    between atoms: C10_12  and  C17_27
REMARK    7  A    between atoms: C11_17  and  C12_18
REMARK    8  A    between atoms: C17_27  and  O1_28
REMARK    9  A    between atoms: C17_27  and  N4_30
REMARK   10  A    between atoms: N5_33  and  C20_34
REMARK   11  A    between atoms: C20_34  and  C21_35
REMARK   12  A    between atoms: C21_35  and  C22_36
REMARK   13  A    between atoms: N6_41  and  C25_42
REMARK   14  A    between atoms: C25_42  and  C26_43
REMARK   15  A    between atoms: C26_43  and  O4_44
ROOT
HETATM    1  C1  UNL     1      18.270  28.026   5.786  1.00  0.00     0.229 C
HETATM    2  N1  UNL     1      17.907  26.985   6.156  1.00  0.00    -0.429 NA
HETATM    3  C2  UNL     1      17.498  25.750   6.601  1.00  0.00     0.113 A
HETATM    4  C3  UNL     1      16.540  25.077   5.833  1.00  0.00     0.069 A
HETATM    5  C4  UNL     1      16.078  23.838   6.207  1.00  0.00     0.037 A
HETATM    6 CL1  UNL     1      14.882  22.961   5.279  1.00  0.00    -0.084 Cl
HETATM    7  C5  UNL     1      16.566  23.260   7.346  1.00  0.00     0.024 A
HETATM    8  C6  UNL     1      17.527  23.943   8.109  1.00  0.00     0.012 A
HETATM    9  C7  UNL     1      17.990  25.168   7.750  1.00  0.00    -0.017 A
ENDROOT
BRANCH   9  10
HETATM   10  C8  UNL     1      18.995  25.910   8.526  1.00  0.00     0.045 C
BRANCH  10  11
HETATM   11  C9  UNL     1      19.354  25.154   9.753  1.00  0.00     0.056 C
BRANCH  11  12
HETATM   12  C10 UNL     1      19.989  25.946  10.867  1.00  0.00     0.206 C
BRANCH  12  13
HETATM   13  N2  UNL     1      20.414  24.896  11.840  1.00  0.00    -0.059 N
ATOM     14  H23 UNL     1      20.610  23.986  11.423  1.00  0.00     0.276 HD
ATOM     15  H22 UNL     1      21.344  25.034  12.233  1.00  0.00     0.276 HD
ATOM     16  H21 UNL     1      19.660  24.892  12.527  1.00  0.00     0.276 HD
ENDBRANCH  12  13
BRANCH  12  17
HETATM   17  C11 UNL     1      20.995  26.953  10.565  1.00  0.00     0.035 C
BRANCH  17  18
HETATM   18  C12 UNL     1      22.422  26.790  10.771  1.00  0.00     0.009 A
HETATM   19  C13 UNL     1      23.220  26.028   9.960  1.00  0.00     0.061 A
HETATM   20 CL2  UNL     1      22.629  25.118   8.581  1.00  0.00    -0.082 Cl
HETATM   21  C14 UNL     1      24.586  25.893  10.238  1.00  0.00     0.112 A
HETATM   22  N3  UNL     1      25.107  26.514  11.305  1.00  0.00    -0.372 N
HETATM   23  C15 UNL     1      24.338  27.265  12.113  1.00  0.00     0.112 A
ATOM     24  H3  UNL     1      26.102  26.416  11.507  1.00  0.00     0.164 HD
HETATM   25  C16 UNL     1      23.001  27.432  11.888  1.00  0.00     0.061 A
HETATM   26 CL3  UNL     1      22.011  28.417  12.973  1.00  0.00    -0.082 Cl
ENDBRANCH  17  18
ENDBRANCH  12  17
BRANCH  12  27
HETATM   27  C17 UNL     1      18.794  26.532  11.595  1.00  0.00     0.154 C
BRANCH  27  28
HETATM   28  O1  UNL     1      17.772  25.717  11.705  1.00  0.00    -0.347 OA
ATOM     29  H1  UNL     1      17.140  25.967  12.368  1.00  0.00     0.219 HD
ENDBRANCH  27  28
BRANCH  27  30
HETATM   30  N4  UNL     1      18.562  27.755  12.170  1.00  0.00    -0.360 N
HETATM   31  C18 UNL     1      18.457  27.820  13.639  1.00  0.00     0.144 C
HETATM   32  C19 UNL     1      19.003  29.091  14.187  1.00  0.00     0.137 C
HETATM   33  N5  UNL     1      18.526  30.228  13.491  1.00  0.00    -0.400 N
HETATM   34  C30 UNL     1      17.638  29.931  12.446  1.00  0.00     0.137 C
HETATM   35  C31 UNL     1      18.412  28.999  11.473  1.00  0.00     0.144 C
BRANCH  33  36
HETATM   36  C20 UNL     1      18.403  31.429  14.216  1.00  0.00     0.040 C
HETATM   37  C23 UNL     1      19.070  31.424  15.570  1.00  0.00     0.061 C
HETATM   38  C24 UNL     1      18.112  31.508  16.725  1.00  0.00     0.275 C
HETATM   39  N6  UNL     1      17.394  32.765  16.695  1.00  0.00     0.090 N
HETATM   40  C28 UNL     1      16.872  33.022  15.368  1.00  0.00     0.275 C
HETATM   41  C29 UNL     1      16.959  31.761  14.476  1.00  0.00     0.061 C
BRANCH  36  42
HETATM   42  C21 UNL     1      19.083  32.506  13.386  1.00  0.00     0.144 C
BRANCH  42  43
HETATM   43  C22 UNL     1      20.372  32.149  12.826  1.00  0.00     0.174 C
HETATM   44  O2  UNL     1      21.427  32.147  13.480  1.00  0.00    -0.648 OA
HETATM   45  O3  UNL     1      20.468  31.783  11.484  1.00  0.00    -0.648 OA
ENDBRANCH  42  43
ENDBRANCH  36  42
BRANCH  39  46
HETATM   46  C25 UNL     1      18.268  33.847  17.050  1.00  0.00     0.298 C
BRANCH  46  47
HETATM   47  C26 UNL     1      17.747  34.727  18.145  1.00  0.00     0.197 C
BRANCH  47  48
HETATM   48  O4  UNL     1      16.499  34.552  18.598  1.00  0.00    -0.394 OA
HETATM   49  C27 UNL     1      15.653  35.600  18.585  1.00  0.00     0.201 C
ENDBRANCH  47  48
ENDBRANCH  46  47
ENDBRANCH  39  46
ENDBRANCH  33  36
ENDBRANCH  27  30
ENDBRANCH  12  27
ENDBRANCH  11  12
ENDBRANCH  10  11
ENDBRANCH   9  10
TORSDOF 15
ENDMDL