MODEL 3
REMARK VINA RESULT: -7.814762463      3.146      5.352
REMARK  15 active torsions:
REMARK  status: ('A' for Active; 'I' for Inactive)
REMARK    1  A    between atoms: C2_2  and  C3_3
REMARK    2  A    between atoms: N1_5  and  C5_6
REMARK    3  A    between atoms: C7_11  and  N3_12
REMARK    4  A    between atoms: N4_15  and  C10_16
REMARK    5  A    between atoms: C10_16  and  N5_18
REMARK    6  A    between atoms: N5_18  and  C11_20
REMARK    7  A    between atoms: C11_20  and  C12_21
REMARK    8  A    between atoms: C12_21  and  C13_22
REMARK    9  A    between atoms: C13_22  and  C14_23
REMARK   10  A    between atoms: C14_23  and  N6_24
REMARK   11  A    between atoms: N6_24  and  S2_26
REMARK   12  A    between atoms: S2_26  and  C15_29
REMARK   13  A    between atoms: C23_38  and  C24_39
REMARK   14  A    between atoms: C24_39  and  O3_40
REMARK   15  A    between atoms: O3_40  and  C25_41
ROOT
HETATM    1  C5  UNL     1      18.540  33.282  15.699  1.00  0.00     0.126 A
HETATM    2  N2  UNL     1      19.835  33.608  15.420  1.00  0.00    -0.330 N
ATOM      3  H2  UNL     1      20.188  34.506  15.752  1.00  0.00     0.168 HD
HETATM    4  C6  UNL     1      20.671  32.811  14.732  1.00  0.00     0.132 A
HETATM    5 CL1  UNL     1      22.344  33.320  14.435  1.00  0.00    -0.062 Cl
HETATM    6  C7  UNL     1      20.231  31.603  14.271  1.00  0.00     0.071 A
HETATM    7  C19 UNL     1      18.907  31.241  14.545  1.00  0.00     0.060 A
HETATM    8  C20 UNL     1      18.052  32.085  15.264  1.00  0.00     0.080 A
HETATM    9 CL2  UNL     1      16.411  31.605  15.625  1.00  0.00    -0.080 Cl
ENDROOT
BRANCH   6  10
HETATM   10  N3  UNL     1      21.040  30.694  13.489  1.00  0.00    -0.375 N
HETATM   11  C8  UNL     1      21.916  29.766  14.155  1.00  0.00     0.143 C
HETATM   12  C9  UNL     1      21.813  28.405  13.665  1.00  0.00     0.145 C
HETATM   13  N4  UNL     1      21.444  28.262  12.251  1.00  0.00    -0.355 N
HETATM   14  C17 UNL     1      21.172  29.359  11.403  1.00  0.00     0.145 C
HETATM   15  C18 UNL     1      21.014  30.702  12.067  1.00  0.00     0.143 C
BRANCH  13  16
HETATM   16  C10 UNL     1      21.397  26.920  11.808  1.00  0.00     0.169 C
HETATM   17  S1  UNL     1      22.906  26.271  11.342  1.00  0.00    -0.041 SA
BRANCH  16  18
HETATM   18  N5  UNL     1      20.328  26.054  11.689  1.00  0.00    -0.367 N
ATOM     19  H5  UNL     1      19.912  25.747  12.569  1.00  0.00     0.161 HD
BRANCH  18  20
HETATM   20  C11 UNL     1      19.730  25.536  10.522  1.00  0.00     0.122 C
BRANCH  20  21
HETATM   21  C12 UNL     1      19.809  26.543   9.355  1.00  0.00     0.021 C
BRANCH  21  22
HETATM   22  C13 UNL     1      18.635  26.404   8.443  1.00  0.00     0.022 C
BRANCH  22  23
HETATM   23  C14 UNL     1      17.355  26.954   9.059  1.00  0.00     0.132 C
BRANCH  23  24
HETATM   24  N6  UNL     1      17.468  28.313   9.427  1.00  0.00    -0.320 N
ATOM     25  H6  UNL     1      17.878  29.010   8.806  1.00  0.00     0.172 HD
BRANCH  24  26
HETATM   26  S2  UNL     1      16.881  28.710  10.963  1.00  0.00     0.226 S
HETATM   27  O1  UNL     1      15.456  29.263  10.869  1.00  0.00    -0.206 OA
HETATM   28  O2  UNL     1      17.714  29.881  11.501  1.00  0.00    -0.206 OA
BRANCH  26  29
HETATM   29  C15 UNL     1      16.858  27.411  12.128  1.00  0.00     0.158 C
HETATM   30  C16 UNL     1      17.618  27.733  13.368  1.00  0.00     0.023 C
ENDBRANCH  26  29
ENDBRANCH  24  26
ENDBRANCH  23  24
ENDBRANCH  22  23
ENDBRANCH  21  22
ENDBRANCH  20  21
ENDBRANCH  18  20
ENDBRANCH  16  18
ENDBRANCH  13  16
ENDBRANCH   6  10
BRANCH   1  31
HETATM   31  N1  UNL     1      17.758  34.277  16.401  1.00  0.00    -0.365 N
HETATM   32  C4  UNL     1      18.317  34.728  17.632  1.00  0.00     0.129 C
HETATM   33  C3  UNL     1      17.766  35.912  18.292  1.00  0.00     0.009 C
HETATM   34  C23 UNL     1      16.551  36.540  17.672  1.00  0.00     0.016 C
HETATM   35  C22 UNL     1      16.548  36.322  16.166  1.00  0.00     0.027 C
HETATM   36  C21 UNL     1      16.536  34.808  15.895  1.00  0.00     0.125 C
BRANCH  33  37
HETATM   37  C2  UNL     1      18.868  36.872  18.660  1.00  0.00     0.002 C
HETATM   38  C1  UNL     1      20.085  36.816  17.814  1.00  0.00     0.005 C
ENDBRANCH  33  37
BRANCH  34  39
HETATM   39  C24 UNL     1      16.448  37.996  17.912  1.00  0.00     0.173 C
BRANCH  39  40
HETATM   40  O3  UNL     1      16.727  38.816  16.835  1.00  0.00    -0.386 OA
BRANCH  40  41
HETATM   41  C25 UNL     1      17.249  40.009  17.258  1.00  0.00     0.113 C
HETATM   42  C26 UNL     1      16.510  41.226  16.825  1.00  0.00     0.039 C
HETATM   43  C27 UNL     1      18.644  40.096  16.592  1.00  0.00     0.039 C
ENDBRANCH  40  41
ENDBRANCH  39  40
ENDBRANCH  34  39
ENDBRANCH   1  31
TORSDOF 15
ENDMDL