MODEL 1
REMARK VINA RESULT: -8.154463194      0.000      0.000
REMARK  15 active torsions:
REMARK  status: ('A' for Active; 'I' for Inactive)
REMARK    1  A    between atoms: C2_2  and  C4_4
REMARK    2  A    between atoms: C4_4  and  O1_5
REMARK    3  A    between atoms: O1_5  and  C5_6
REMARK       I    between atoms: C5_6  and  N1_8
REMARK    4  A    between atoms: N1_8  and  C6_10
REMARK    5  A    between atoms: C6_10  and  C7_11
REMARK    6  A    between atoms: C7_11  and  C8_12
REMARK    7  A    between atoms: C8_12  and  C9_13
REMARK    8  A    between atoms: C9_13  and  C10_14
REMARK    9  A    between atoms: C11_15  and  C12_16
REMARK   10  A    between atoms: C12_16  and  C13_17
REMARK       I    between atoms: C13_17  and  N2_19
REMARK       I    between atoms: N3_22  and  C16_23
REMARK   11  A    between atoms: C16_23  and  C17_25
REMARK   12  A    between atoms: C17_25  and  C18_26
REMARK   13  A    between atoms: C20_29  and  C21_30
REMARK   14  A    between atoms: C20_29  and  C23_38
REMARK       I    between atoms: C21_30  and  N4_32
REMARK   15  A    between atoms: N4_32  and  C22_34
ROOT
HETATM    1  C13 UNL     1      17.326  33.039  14.534  1.00  0.00     0.223 C
HETATM    2  O3  UNL     1      17.954  34.125  14.710  1.00  0.00    -0.273 OA
HETATM    3  N2  UNL     1      18.061  32.025  13.819  1.00  0.00    -0.349 N
HETATM    4  C14 UNL     1      19.335  32.414  13.302  1.00  0.00     0.145 C
HETATM    5  C15 UNL     1      19.958  31.491  12.334  1.00  0.00     0.145 C
HETATM    6  N3  UNL     1      19.658  30.109  12.583  1.00  0.00    -0.349 N
HETATM    7  C16 UNL     1      20.570  29.136  12.031  1.00  0.00     0.220 C
HETATM    8  O4  UNL     1      21.585  29.548  11.435  1.00  0.00    -0.273 OA
HETATM    9  C27 UNL     1      18.548  29.708  13.367  1.00  0.00     0.145 C
HETATM   10  C28 UNL     1      17.507  30.711  13.708  1.00  0.00     0.145 C
ENDROOT
BRANCH   7  11
HETATM   11  C17 UNL     1      20.369  27.664  12.143  1.00  0.00     0.113 C
BRANCH  11  12
HETATM   12  C18 UNL     1      20.536  26.942  10.828  1.00  0.00     0.068 C
HETATM   13  C19 UNL     1      20.742  25.443  11.028  1.00  0.00     0.179 C
HETATM   14  O5  UNL     1      19.344  25.327  11.060  1.00  0.00    -0.364 OA
HETATM   15  C20 UNL     1      19.323  26.439  10.183  1.00  0.00     0.180 C
BRANCH  15  16
HETATM   16  C21 UNL     1      19.415  25.884   8.803  1.00  0.00     0.261 C
HETATM   17  O6  UNL     1      20.177  26.302   7.920  1.00  0.00    -0.270 OA
HETATM   18  N4  UNL     1      18.550  24.766   8.443  1.00  0.00    -0.310 N
ATOM     19  H4  UNL     1      17.903  24.406   9.145  1.00  0.00     0.166 HD
BRANCH  18  20
HETATM   20  C22 UNL     1      18.567  24.154   7.156  1.00  0.00     0.269 C
HETATM   21 CL1  UNL     1      17.458  22.765   7.153  1.00  0.00    -0.060 Cl
HETATM   22 CL2  UNL     1      20.181  23.527   6.725  1.00  0.00    -0.060 Cl
HETATM   23 CL3  UNL     1      18.036  25.240   5.847  1.00  0.00    -0.060 Cl
ENDBRANCH  18  20
ENDBRANCH  15  16
BRANCH  15  24
HETATM   24  C23 UNL     1      18.062  27.218  10.457  1.00  0.00     0.027 A
HETATM   25  C24 UNL     1      17.627  28.377   9.906  1.00  0.00     0.019 A
HETATM   26  C25 UNL     1      16.444  28.871  10.317  1.00  0.00     0.008 A
HETATM   27  C26 UNL     1      15.767  28.156  11.270  1.00  0.00     0.050 A
HETATM   28  S1  UNL     1      16.789  26.830  11.560  1.00  0.00    -0.103 SA
ENDBRANCH  15  24
ENDBRANCH  11  12
ENDBRANCH   7  11
BRANCH   1  29
HETATM   29  C12 UNL     1      15.967  32.781  14.987  1.00  0.00     0.129 C
BRANCH  29  30
HETATM   30  C11 UNL     1      15.822  32.583  16.421  1.00  0.00    -0.022 C
HETATM   31  C10 UNL     1      15.875  33.652  17.395  1.00  0.00    -0.030 C
BRANCH  31  32
HETATM   32  C9  UNL     1      14.901  34.720  17.450  1.00  0.00     0.027 C
BRANCH  32  33
HETATM   33  C8  UNL     1      15.307  36.119  17.753  1.00  0.00     0.005 C
BRANCH  33  34
HETATM   34  C7  UNL     1      16.478  36.489  16.779  1.00  0.00     0.020 C
BRANCH  34  35
HETATM   35  C6  UNL     1      17.721  36.702  17.587  1.00  0.00     0.125 C
BRANCH  35  36
HETATM   36  N1  UNL     1      18.787  35.809  17.181  1.00  0.00    -0.337 N
HETATM   37  C5  UNL     1      19.750  35.415  18.126  1.00  0.00     0.360 C
HETATM   38  O2  UNL     1      19.754  35.785  19.333  1.00  0.00    -0.239 OA
ATOM     39  H1  UNL     1      18.839  35.470  16.220  1.00  0.00     0.164 HD
BRANCH  37  40
HETATM   40  O1  UNL     1      20.818  34.543  17.752  1.00  0.00    -0.304 OA
BRANCH  40  41
HETATM   41  C4  UNL     1      21.059  34.419  16.342  1.00  0.00     0.184 C
BRANCH  41  42
HETATM   42  C2  UNL     1      21.573  33.039  16.060  1.00  0.00     0.002 C
HETATM   43  C1  UNL     1      22.539  33.106  14.880  1.00  0.00     0.011 C
HETATM   44  C3  UNL     1      22.353  32.606  17.301  1.00  0.00     0.011 C
ENDBRANCH  41  42
ENDBRANCH  40  41
ENDBRANCH  37  40
ENDBRANCH  35  36
ENDBRANCH  34  35
ENDBRANCH  33  34
ENDBRANCH  32  33
ENDBRANCH  31  32
ENDBRANCH  29  30
ENDBRANCH   1  29
TORSDOF 15
ENDMDL