MODEL 2
REMARK VINA RESULT: -9.015810015      3.552     10.932
REMARK  13 active torsions:
REMARK  status: ('A' for Active; 'I' for Inactive)
REMARK    1  A    between atoms: C2_2  and  C3_3
REMARK    2  A    between atoms: C3_3  and  C4_4
REMARK    3  A    between atoms: C3_3  and  N6_27
REMARK    4  A    between atoms: N1_7  and  C7_8
REMARK    5  A    between atoms: C8_11  and  N3_12
REMARK    6  A    between atoms: N3_12  and  C9_14
REMARK    7  A    between atoms: C9_14  and  C10_15
REMARK    8  A    between atoms: C10_15  and  N4_16
REMARK    9  A    between atoms: C19_30  and  O2_31
REMARK   10  A    between atoms: O2_31  and  C20_32
REMARK   11  A    between atoms: C20_32  and  C21_33
REMARK   12  A    between atoms: C23_36  and  C24_37
REMARK   13  A    between atoms: C24_37  and  C25_38
ROOT
HETATM    1  C3  UNL     1      20.985  31.335  14.525  1.00  0.00    -0.008 C
ENDROOT
BRANCH   1   2
HETATM    2  C2  UNL     1      21.899  32.404  14.068  1.00  0.00     0.048 C
HETATM    3  C1  UNL     1      23.226  32.523  14.738  1.00  0.00     0.011 C
ENDBRANCH   1   2
BRANCH   1   4
HETATM    4  C4  UNL     1      20.813  30.093  13.758  1.00  0.00     0.034 C
HETATM    5  C5  UNL     1      21.596  28.889  14.207  1.00  0.00     0.030 C
HETATM    6  C6  UNL     1      22.431  28.227  13.164  1.00  0.00     0.125 C
HETATM    7  N1  UNL     1      21.650  27.971  11.983  1.00  0.00    -0.365 N
HETATM    8  C15 UNL     1      20.705  28.996  11.581  1.00  0.00     0.125 C
HETATM    9  C16 UNL     1      21.161  30.275  12.267  1.00  0.00     0.030 C
BRANCH   7  10
HETATM   10  C7  UNL     1      21.817  26.771  11.258  1.00  0.00     0.146 A
HETATM   11  N2  UNL     1      20.919  25.751  11.406  1.00  0.00    -0.175 N
HETATM   12  C8  UNL     1      21.061  24.600  10.741  1.00  0.00     0.682 A
ATOM     13  H2  UNL     1      20.126  25.871  12.036  1.00  0.00     0.186 HD
HETATM   14  N5  UNL     1      22.109  24.399   9.888  1.00  0.00    -0.155 N
HETATM   15  C13 UNL     1      23.012  25.364   9.708  1.00  0.00     0.285 A
ATOM     16  H5  UNL     1      22.201  23.513   9.390  1.00  0.00     0.187 HD
HETATM   17  O1  UNL     1      23.995  25.224   8.931  1.00  0.00    -0.266 OA
HETATM   18  C14 UNL     1      22.862  26.569  10.406  1.00  0.00     0.146 A
HETATM   19 CL1  UNL     1      24.038  27.844  10.187  1.00  0.00    -0.074 Cl
BRANCH  12  20
HETATM   20  N3  UNL     1      20.228  23.635  10.878  1.00  0.00    -0.224 N
ATOM     21  H3  UNL     1      20.596  22.684  10.842  1.00  0.00     0.177 HD
BRANCH  20  22
HETATM   22  C9  UNL     1      18.833  23.792  11.075  1.00  0.00     0.168 C
BRANCH  22  23
HETATM   23  C10 UNL     1      18.214  24.216   9.746  1.00  0.00     0.291 C
BRANCH  23  24
HETATM   24  N4  UNL     1      17.491  25.490   9.884  1.00  0.00     0.081 N
HETATM   25  C11 UNL     1      18.217  26.550   9.202  1.00  0.00     0.309 C
HETATM   26  C12 UNL     1      17.375  25.776  11.307  1.00  0.00     0.309 C
ENDBRANCH  23  24
ENDBRANCH  22  23
ENDBRANCH  20  22
ENDBRANCH  12  20
ENDBRANCH   7  10
ENDBRANCH   1   4
BRANCH   1  27
HETATM   27  N6  UNL     1      19.827  31.806  15.274  1.00  0.00    -0.367 N
HETATM   28  C17 UNL     1      19.503  33.105  14.823  1.00  0.00     0.130 C
HETATM   29  C18 UNL     1      18.035  33.296  14.601  1.00  0.00     0.052 C
HETATM   30  C19 UNL     1      17.412  32.951  15.973  1.00  0.00     0.127 C
HETATM   31  C31 UNL     1      17.563  31.460  16.085  1.00  0.00     0.076 C
HETATM   32  C32 UNL     1      18.840  30.883  15.598  1.00  0.00     0.066 C
BRANCH  30  33
HETATM   33  O2  UNL     1      18.196  33.616  16.893  1.00  0.00    -0.383 OA
BRANCH  33  34
HETATM   34  C20 UNL     1      17.564  34.400  17.813  1.00  0.00     0.200 C
BRANCH  34  35
HETATM   35  C21 UNL     1      16.115  34.607  17.669  1.00  0.00     0.151 C
HETATM   36  O3  UNL     1      15.242  34.416  18.719  1.00  0.00    -0.383 OA
HETATM   37  C22 UNL     1      14.351  35.288  18.043  1.00  0.00     0.175 C
HETATM   38  C23 UNL     1      15.639  36.017  17.598  1.00  0.00     0.045 C
BRANCH  38  39
HETATM   39  C24 UNL     1      16.091  37.043  18.551  1.00  0.00     0.048 C
BRANCH  39  40
HETATM   40  C25 UNL     1      16.380  38.398  18.065  1.00  0.00    -0.056 A
HETATM   41  C26 UNL     1      15.461  39.443  18.284  1.00  0.00     0.009 A
HETATM   42  C27 UNL     1      15.671  40.722  17.829  1.00  0.00     0.026 A
HETATM   43  C28 UNL     1      16.808  41.038  17.129  1.00  0.00     0.055 A
HETATM   44 CL2  UNL     1      17.116  42.662  16.529  1.00  0.00    -0.083 Cl
HETATM   45  C29 UNL     1      17.723  40.061  16.895  1.00  0.00     0.056 A
HETATM   46 CL3  UNL     1      19.194  40.373  16.012  1.00  0.00    -0.083 Cl
HETATM   47  C30 UNL     1      17.495  38.777  17.361  1.00  0.00     0.032 A
ENDBRANCH  39  40
ENDBRANCH  38  39
ENDBRANCH  34  35
ENDBRANCH  33  34
ENDBRANCH  30  33
ENDBRANCH   1  27
TORSDOF 13
ENDMDL