MODEL 4
REMARK VINA RESULT: -7.605704331      1.093      1.860
REMARK  3 active torsions:
REMARK  status: ('A' for Active; 'I' for Inactive)
REMARK       I    between atoms: C1_2  and  N1_3
REMARK       I    between atoms: C1_2  and  N2_19
REMARK       I    between atoms: N1_3  and  C2_5
REMARK    1  A    between atoms: C2_5  and  C3_7
REMARK    2  A    between atoms: C12_16  and  O3_17
REMARK    3  A    between atoms: N2_19  and  C13_21
ROOT
HETATM    1  C3  UNL     1      47.028  52.054   8.807  1.00  0.00     0.107 C
HETATM    2  C4  UNL     1      45.659  52.419   9.258  1.00  0.00     0.021 C
HETATM    3  C5  UNL     1      44.650  51.485   8.706  1.00  0.00    -0.013 C
HETATM    4  C6  UNL     1      45.167  50.090   8.759  1.00  0.00     0.010 C
HETATM    5  C7  UNL     1      45.904  49.705   7.515  1.00  0.00    -0.007 C
HETATM    6  C8  UNL     1      44.806  49.541   6.442  1.00  0.00     0.010 C
HETATM    7  C9  UNL     1      44.964  51.062   6.261  1.00  0.00    -0.007 C
HETATM    8  C10 UNL     1      44.200  51.811   7.311  1.00  0.00     0.010 C
HETATM    9  C11 UNL     1      46.378  50.843   6.687  1.00  0.00     0.023 C
HETATM   10  C12 UNL     1      47.071  51.962   7.336  1.00  0.00     0.136 C
ENDROOT
BRANCH   1  11
HETATM   11  C2  UNL     1      48.040  53.076   9.292  1.00  0.00     0.232 C
HETATM   12  N1  UNL     1      47.799  53.839  10.437  1.00  0.00    -0.279 N
HETATM   13  C1  UNL     1      48.637  54.793  10.970  1.00  0.00     0.323 C
ATOM     14  H1  UNL     1      46.919  53.674  10.925  1.00  0.00     0.173 HD
HETATM   15  O1  UNL     1      48.220  55.385  12.041  1.00  0.00    -0.247 OA
HETATM   16  N2  UNL     1      49.882  55.167  10.455  1.00  0.00    -0.338 N
ATOM     17  H2  UNL     1      50.261  54.734   9.613  1.00  0.00     0.164 HD
HETATM   18  O2  UNL     1      49.072  53.193   8.624  1.00  0.00    -0.273 OA
BRANCH  16  19
HETATM   19  C13 UNL     1      50.627  56.221  11.187  1.00  0.00     0.086 A
HETATM   20  C14 UNL     1      50.548  57.595  10.537  1.00  0.00     0.027 A
HETATM   21  C15 UNL     1      51.857  56.767  10.545  1.00  0.00     0.027 A
ENDBRANCH  16  19
ENDBRANCH   1  11
BRANCH  10  22
HETATM   22  O3  UNL     1      48.434  51.974   6.929  1.00  0.00    -0.394 OA
ATOM     23  H3  UNL     1      48.463  51.871   5.985  1.00  0.00     0.210 HD
ENDBRANCH  10  22
TORSDOF 3
ENDMDL