MODEL 5
REMARK VINA RESULT: -7.094878078      2.510      6.815
REMARK  4 active torsions:
REMARK  status: ('A' for Active; 'I' for Inactive)
REMARK    1  A    between atoms: C2_2  and  C3_3
REMARK    2  A    between atoms: C2_2  and  C6_6
REMARK    3  A    between atoms: C7_7  and  O1_8
REMARK       I    between atoms: N1_15  and  C13_16
REMARK       I    between atoms: C13_16  and  N2_18
REMARK    4  A    between atoms: N2_18  and  C14_20
ROOT
HETATM    1  C3  UNL     1      50.687  48.960   3.755  1.00  0.00    -0.070 C
HETATM    2  C4  UNL     1      50.696  47.958   3.080  1.00  0.00    -0.106 C
HETATM    3  C5  UNL     1      50.690  46.740   2.265  1.00  0.00     0.112 C
ENDROOT
BRANCH   1   4
HETATM    4  C2  UNL     1      50.670  50.163   4.585  1.00  0.00     0.011 C
HETATM    5  C1  UNL     1      49.628  50.937   4.481  1.00  0.00     0.031 C
BRANCH   4   6
HETATM    6  C6  UNL     1      51.839  50.420   5.476  1.00  0.00     0.159 C
HETATM    7  C7  UNL     1      52.822  51.347   4.894  1.00  0.00     0.156 C
HETATM    8  C8  UNL     1      53.351  52.118   6.072  1.00  0.00     0.062 C
HETATM    9  C9  UNL     1      53.548  53.545   5.781  1.00  0.00    -0.021 C
HETATM   10  C12 UNL     1      52.186  52.089   7.050  1.00  0.00     0.103 C
HETATM   11  C10 UNL     1      52.483  54.214   6.110  1.00  0.00    -0.028 C
HETATM   12  C11 UNL     1      51.449  53.313   6.657  1.00  0.00     0.053 C
HETATM   13  N1  UNL     1      51.538  50.830   6.784  1.00  0.00    -0.317 N
HETATM   14  C13 UNL     1      50.754  50.143   7.766  1.00  0.00     0.319 C
HETATM   15  O2  UNL     1      50.277  49.030   7.464  1.00  0.00    -0.247 OA
HETATM   16  N2  UNL     1      50.502  50.673   9.048  1.00  0.00    -0.339 N
ATOM     17  H2  UNL     1      50.897  51.584   9.282  1.00  0.00     0.164 HD
BRANCH   7  18
HETATM   18  O1  UNL     1      52.156  52.173   3.986  1.00  0.00    -0.392 OA
ATOM     19  H1  UNL     1      51.250  52.244   4.262  1.00  0.00     0.210 HD
ENDBRANCH   7  18
BRANCH  16  20
HETATM   20  C14 UNL     1      49.723  49.999  10.037  1.00  0.00     0.078 C
HETATM   21  C15 UNL     1      48.372  50.591  10.278  1.00  0.00     0.032 C
HETATM   22  C16 UNL     1      50.482  49.968  11.358  1.00  0.00     0.032 C
ENDBRANCH  16  20
ENDBRANCH   4   6
ENDBRANCH   1   4
TORSDOF 4
ENDMDL