MODEL 1
REMARK VINA RESULT: -6.726122297      0.000      0.000
REMARK  4 active torsions:
REMARK  status: ('A' for Active; 'I' for Inactive)
REMARK       I    between atoms: N1_2  and  C2_4
REMARK       I    between atoms: C2_4  and  N4_13
REMARK    1  A    between atoms: N2_5  and  C3_7
REMARK    2  A    between atoms: C3_7  and  N3_9
REMARK    3  A    between atoms: C5_14  and  C6_15
REMARK    4  A    between atoms: C10_22  and  C11_23
ROOT
HETATM    1  C1  UNL     1      46.337  50.117  10.591  1.00  0.00     0.136 C
HETATM    2  N1  UNL     1      46.265  48.893  10.874  1.00  0.00    -0.212 N
ATOM      3  H1  UNL     1      45.820  48.695  11.771  1.00  0.00     0.182 HD
HETATM    4  C2  UNL     1      46.682  47.763  10.183  1.00  0.00     0.679 C
HETATM    5  N2  UNL     1      46.048  47.403   9.092  1.00  0.00    -0.197 N
ATOM      6  H2  UNL     1      46.348  46.574   8.578  1.00  0.00     0.180 HD
HETATM    7  N4  UNL     1      47.757  46.919  10.537  1.00  0.00    -0.182 N
HETATM    8  C5  UNL     1      47.663  45.734  11.327  1.00  0.00     0.208 A
HETATM    9  N5  UNL     1      49.029  45.183  11.381  1.00  0.00    -0.337 N
ATOM     10  H5  UNL     1      49.297  44.333  11.878  1.00  0.00     0.164 HD
HETATM   11  C9  UNL     1      49.903  45.992  10.654  1.00  0.00     0.243 A
HETATM   12  O1  UNL     1      51.118  45.812  10.478  1.00  0.00    -0.271 OA
HETATM   13  C10 UNL     1      49.117  47.118  10.123  1.00  0.00     0.199 A
ENDROOT
BRANCH   8  14
HETATM   14  C6  UNL     1      47.215  45.861  12.731  1.00  0.00     0.021 C
HETATM   15  C7  UNL     1      47.527  47.120  13.448  1.00  0.00     0.013 C
HETATM   16  C8  UNL     1      45.682  45.703  12.693  1.00  0.00     0.013 C
ENDBRANCH   8  14
BRANCH  13  17
HETATM   17  C11 UNL     1      49.732  48.422  10.509  1.00  0.00     0.010 C
HETATM   18  C12 UNL     1      50.314  48.428  11.902  1.00  0.00     0.012 C
HETATM   19  C13 UNL     1      50.901  48.766   9.585  1.00  0.00     0.012 C
ENDBRANCH  13  17
BRANCH   5  20
HETATM   20  C3  UNL     1      44.933  48.175   8.621  1.00  0.00     0.293 C
HETATM   21  C4  UNL     1      45.297  48.697   7.218  1.00  0.00     0.063 C
BRANCH  20  22
HETATM   22  N3  UNL     1      43.746  47.356   8.495  1.00  0.00    -0.058 N
ATOM     23  H33 UNL     1      43.822  46.499   9.043  1.00  0.00     0.276 HD
ATOM     24  H32 UNL     1      42.948  47.777   8.973  1.00  0.00     0.276 HD
ATOM     25  H31 UNL     1      43.535  47.159   7.517  1.00  0.00     0.276 HD
ENDBRANCH  20  22
ENDBRANCH   5  20
TORSDOF 4
ENDMDL