MODEL 3
REMARK VINA RESULT: -6.360988094      8.156      9.710
REMARK  3 active torsions:
REMARK  status: ('A' for Active; 'I' for Inactive)
REMARK    1  A    between atoms: C11_11  and  N1_12
REMARK    2  A    between atoms: N1_12  and  S1_14
REMARK    3  A    between atoms: S1_14  and  N2_15
ROOT
HETATM    1  C1  UNL     1      44.730  42.556  10.257  1.00  0.00     0.015 C
HETATM    2  C2  UNL     1      46.024  42.893  10.929  1.00  0.00    -0.040 C
HETATM    3  C3  UNL     1      46.220  41.901  12.025  1.00  0.00     0.015 C
HETATM    4  C4  UNL     1      46.082  44.333  11.406  1.00  0.00    -0.005 C
HETATM    5  C5  UNL     1      47.393  44.585  12.067  1.00  0.00     0.012 C
HETATM    6  C6  UNL     1      48.595  44.238  11.245  1.00  0.00     0.010 C
HETATM    7  C7  UNL     1      48.485  42.803  10.705  1.00  0.00     0.012 C
HETATM    8  C8  UNL     1      47.195  42.911   9.946  1.00  0.00     0.000 C
HETATM    9  C9  UNL     1      47.236  44.346   9.388  1.00  0.00     0.014 C
HETATM   10  C10 UNL     1      46.085  45.050  10.069  1.00  0.00     0.012 C
HETATM   11  C11 UNL     1      48.515  44.929   9.873  1.00  0.00     0.100 C
ENDROOT
BRANCH  11  12
HETATM   12  N1  UNL     1      48.659  46.322   9.903  1.00  0.00    -0.322 N
ATOM     13  H1  UNL     1      47.888  46.982   9.803  1.00  0.00     0.171 HD
BRANCH  12  14
HETATM   14  S1  UNL     1      50.337  46.784  10.134  1.00  0.00     0.169 S
HETATM   15  O1  UNL     1      51.249  45.720   9.626  1.00  0.00    -0.216 OA
HETATM   16  S2  UNL     1      50.629  48.204   9.218  1.00  0.00     0.051 SA
BRANCH  14  17
HETATM   17  N2  UNL     1      50.630  47.164  11.795  1.00  0.00    -0.336 N
ATOM     18  H22 UNL     1      51.208  47.943  12.108  1.00  0.00     0.168 HD
ATOM     19  H21 UNL     1      50.145  46.501  12.400  1.00  0.00     0.168 HD
ENDBRANCH  14  17
ENDBRANCH  12  14
ENDBRANCH  11  12
TORSDOF 3
ENDMDL