MODEL 1
REMARK VINA RESULT: -7.358084396      0.000      0.000
REMARK  3 active torsions:
REMARK  status: ('A' for Active; 'I' for Inactive)
REMARK       I    between atoms: C2_4  and  N2_5
REMARK       I    between atoms: C2_4  and  N3_11
REMARK    1  A    between atoms: N2_5  and  C3_7
REMARK    2  A    between atoms: C11_16  and  C12_17
REMARK    3  A    between atoms: C13_18  and  C14_19
ROOT
HETATM    1  C1  UNL     1      48.500  51.396   6.193  1.00  0.00     0.165 C
HETATM    2  N1  UNL     1      49.548  52.336   5.957  1.00  0.00    -0.231 N
ATOM      3  H1  UNL     1      49.706  52.635   4.995  1.00  0.00     0.177 HD
HETATM    4  C2  UNL     1      50.310  52.835   6.871  1.00  0.00     0.672 C
HETATM    5  N2  UNL     1      51.307  53.759   6.457  1.00  0.00    -0.218 N
ATOM      6  H2  UNL     1      51.177  54.750   6.661  1.00  0.00     0.178 HD
HETATM    7  N3  UNL     1      50.102  52.430   8.216  1.00  0.00    -0.210 N
HETATM    8  C7  UNL     1      50.627  51.193   8.802  1.00  0.00     0.146 C
HETATM    9  C8  UNL     1      49.718  50.955   9.997  1.00  0.00     0.002 C
HETATM   10  C9  UNL     1      50.422  50.128  11.060  1.00  0.00     0.011 C
HETATM   11  C10 UNL     1      49.477  52.357  10.475  1.00  0.00     0.036 C
HETATM   12  C11 UNL     1      49.350  53.156   9.219  1.00  0.00     0.125 C
ENDROOT
BRANCH  12  13
HETATM   13  C12 UNL     1      49.904  54.504   9.468  1.00  0.00     0.004 C
HETATM   14  C13 UNL     1      49.776  55.120  10.624  1.00  0.00     0.069 C
BRANCH  14  15
HETATM   15  C14 UNL     1      50.317  56.442  10.871  1.00  0.00     0.254 C
HETATM   16  N4  UNL     1      50.118  57.137  12.098  1.00  0.00    -0.058 NA
HETATM   17  O1  UNL     1      50.995  57.032   9.995  1.00  0.00    -0.272 OA
ENDBRANCH  14  15
ENDBRANCH  12  13
BRANCH   5  18
HETATM   18  C3  UNL     1      52.508  53.335   5.748  1.00  0.00     0.036 C
HETATM   19  C4  UNL     1      52.281  53.328   4.249  1.00  0.00     0.038 C
HETATM   20  C5  UNL     1      52.910  51.980   6.257  1.00  0.00     0.038 C
HETATM   21  C6  UNL     1      53.599  54.349   6.020  1.00  0.00     0.038 C
ENDBRANCH   5  18
TORSDOF 3
ENDMDL