MODEL 2
REMARK VINA RESULT: -6.190164513      2.003      4.833
REMARK  4 active torsions:
REMARK  status: ('A' for Active; 'I' for Inactive)
REMARK    1  A    between atoms: C3_4  and  N2_5
REMARK    2  A    between atoms: N2_5  and  N3_6
REMARK       I    between atoms: N2_5  and  C5_11
REMARK    3  A    between atoms: N3_6  and  C4_8
REMARK    4  A    between atoms: C5_11  and  C6_13
ROOT
HETATM    1  N2  UNL     1      46.453  50.857   9.582  1.00  0.00    -0.249 N
HETATM    2  C5  UNL     1      47.781  50.783  10.052  1.00  0.00     0.243 C
HETATM    3  O1  UNL     1      47.973  50.053  11.089  1.00  0.00    -0.271 OA
ENDROOT
BRANCH   1   4
HETATM    4  C3  UNL     1      46.008  51.619   8.437  1.00  0.00     0.151 C
HETATM    5  C2  UNL     1      45.807  50.741   7.223  1.00  0.00     0.085 C
HETATM    6  N1  UNL     1      44.794  51.159   6.569  1.00  0.00    -0.395 N
HETATM    7  C1  UNL     1      44.296  50.578   5.358  1.00  0.00     0.148 C
HETATM    8  C12 UNL     1      44.186  52.304   7.191  1.00  0.00     0.123 C
HETATM    9  C11 UNL     1      44.550  52.027   8.658  1.00  0.00     0.052 C
ENDBRANCH   1   4
BRANCH   1  10
HETATM   10  N3  UNL     1      45.455  50.127  10.278  1.00  0.00    -0.273 N
ATOM     11  H3  UNL     1      44.979  50.582  11.057  1.00  0.00     0.189 HD
BRANCH  10  12
HETATM   12  C4  UNL     1      45.084  48.806   9.950  1.00  0.00     0.199 C
HETATM   13  N4  UNL     1      43.952  48.578   9.127  1.00  0.00    -0.068 NA
HETATM   14  S1  UNL     1      45.904  47.499  10.480  1.00  0.00    -0.043 SA
ENDBRANCH  10  12
ENDBRANCH   1  10
BRANCH   2  15
HETATM   15  C6  UNL     1      48.899  51.487   9.415  1.00  0.00     0.088 A
HETATM   16  C7  UNL     1      50.021  52.009  10.368  1.00  0.00     0.024 A
HETATM   17  C8  UNL     1      49.119  52.934   9.572  1.00  0.00    -0.035 A
HETATM   18  C9  UNL     1      49.875  53.682   8.474  1.00  0.00     0.015 C
HETATM   19  C10 UNL     1      48.279  53.826  10.428  1.00  0.00     0.015 C
ENDBRANCH   2  15
TORSDOF 4
ENDMDL