MODEL 5
REMARK VINA RESULT: -7.075931364      3.647      4.796
REMARK  3 active torsions:
REMARK  status: ('A' for Active; 'I' for Inactive)
REMARK    1  A    between atoms: C2_2  and  N1_4
REMARK       I    between atoms: N1_4  and  C4_6
REMARK    2  A    between atoms: C4_6  and  C5_8
REMARK       I    between atoms: C5_8  and  N2_10
REMARK    3  A    between atoms: N2_10  and  C6_12
ROOT
HETATM    1  C5  UNL     1      49.172  53.477  10.135  1.00  0.00     0.309 C
HETATM    2  O2  UNL     1      48.197  52.795  10.555  1.00  0.00    -0.262 OA
HETATM    3  N2  UNL     1      49.955  53.013   9.048  1.00  0.00    -0.348 N
ATOM      4  H2  UNL     1      50.742  53.571   8.717  1.00  0.00     0.163 HD
ENDROOT
BRANCH   3   5
HETATM    5  C6  UNL     1      49.650  51.767   8.411  1.00  0.00     0.089 C
HETATM    6  C7  UNL     1      48.773  51.935   7.221  1.00  0.00     0.030 C
HETATM    7  C8  UNL     1      48.763  50.851   6.241  1.00  0.00    -0.008 C
HETATM    8  C9  UNL     1      49.472  51.247   4.936  1.00  0.00     0.010 C
HETATM    9  C15 UNL     1      49.746  49.766   6.371  1.00  0.00    -0.005 C
HETATM   10  C10 UNL     1      50.728  50.626   5.565  1.00  0.00    -0.006 C
HETATM   11  C11 UNL     1      51.358  51.517   6.584  1.00  0.00    -0.008 C
HETATM   12  C12 UNL     1      52.872  51.477   6.544  1.00  0.00     0.011 C
HETATM   13  C13 UNL     1      50.916  51.043   7.948  1.00  0.00     0.013 C
HETATM   14  C14 UNL     1      50.427  49.615   7.672  1.00  0.00     0.012 C
ENDBRANCH   3   5
BRANCH   1  15
HETATM   15  C4  UNL     1      49.476  54.740  10.786  1.00  0.00     0.309 C
HETATM   16  N1  UNL     1      50.531  55.577  10.337  1.00  0.00    -0.349 N
ATOM     17  H1  UNL     1      51.098  55.297   9.538  1.00  0.00     0.163 HD
HETATM   18  O1  UNL     1      48.752  55.066  11.784  1.00  0.00    -0.262 OA
BRANCH  16  19
HETATM   19  C2  UNL     1      50.800  56.822  11.011  1.00  0.00     0.076 C
HETATM   20  C1  UNL     1      52.118  57.429  10.570  1.00  0.00     0.032 C
HETATM   21  C3  UNL     1      49.708  57.831  10.640  1.00  0.00     0.032 C
ENDBRANCH  16  19
ENDBRANCH   1  15
TORSDOF 3
ENDMDL