MODEL 2
REMARK VINA RESULT: -6.911988917      2.700      4.072
REMARK  3 active torsions:
REMARK  status: ('A' for Active; 'I' for Inactive)
REMARK    1  A    between atoms: C2_2  and  C4_4
REMARK    2  A    between atoms: C4_4  and  N1_6
REMARK       I    between atoms: N1_6  and  C6_8
REMARK       I    between atoms: C6_8  and  N2_10
REMARK    3  A    between atoms: N3_13  and  C9_14
ROOT
HETATM    1  N1  UNL     1      49.607  53.661  10.704  1.00  0.00    -0.338 N
ATOM      2  H1  UNL     1      50.371  53.286  11.266  1.00  0.00     0.164 HD
HETATM    3  C6  UNL     1      48.722  52.771  10.078  1.00  0.00     0.318 C
HETATM    4  O1  UNL     1      47.788  53.298   9.389  1.00  0.00    -0.247 OA
HETATM    5  N2  UNL     1      48.779  51.350  10.148  1.00  0.00    -0.331 N
HETATM    6  C7  UNL     1      47.839  50.530   9.468  1.00  0.00     0.147 C
HETATM    7  C8  UNL     1      48.283  49.130   9.200  1.00  0.00     0.145 C
HETATM    8  N3  UNL     1      49.184  48.614  10.220  1.00  0.00    -0.353 N
HETATM    9  C10 UNL     1      49.298  49.418  11.395  1.00  0.00     0.100 C
HETATM   10  C11 UNL     1      50.171  48.923  12.478  1.00  0.00     0.034 C
HETATM   11  C12 UNL     1      49.829  50.768  10.934  1.00  0.00     0.152 C
ENDROOT
BRANCH   1  12
HETATM   12  C4  UNL     1      49.469  55.092  10.577  1.00  0.00     0.085 C
HETATM   13  C5  UNL     1      48.747  55.661  11.796  1.00  0.00     0.032 C
BRANCH  12  14
HETATM   14  C2  UNL     1      50.816  55.771  10.510  1.00  0.00    -0.000 C
HETATM   15  C1  UNL     1      51.369  55.794   9.108  1.00  0.00     0.011 C
HETATM   16  C3  UNL     1      50.647  57.212  10.952  1.00  0.00     0.011 C
ENDBRANCH  12  14
ENDBRANCH   1  12
BRANCH   8  17
HETATM   17  C9  UNL     1      49.841  47.395   9.954  1.00  0.00     0.183 C
HETATM   18  N4  UNL     1      51.115  47.311   9.304  1.00  0.00    -0.070 NA
HETATM   19  S1  UNL     1      49.186  45.959  10.375  1.00  0.00    -0.044 SA
ENDBRANCH   8  17
TORSDOF 3
ENDMDL