MODEL 5
REMARK VINA RESULT: -5.915456485      1.609      7.525
REMARK  4 active torsions:
REMARK  status: ('A' for Active; 'I' for Inactive)
REMARK    1  A    between atoms: C2_2  and  C4_4
REMARK    2  A    between atoms: C7_12  and  N3_13
REMARK    3  A    between atoms: N3_13  and  C8_15
REMARK    4  A    between atoms: C8_15  and  C9_16
ROOT
HETATM    1  C4  UNL     1       3.396   5.639  14.182  1.00  0.00     0.086 A
HETATM    2  N1  UNL     1       4.657   5.589  14.645  1.00  0.00    -0.338 N
ATOM      3  H1  UNL     1       4.946   5.089  15.487  1.00  0.00     0.167 HD
HETATM    4  C5  UNL     1       5.482   6.283  13.854  1.00  0.00     0.148 A
HETATM    5  C6  UNL     1       6.835   6.570  13.840  1.00  0.00     0.290 A
HETATM    6  O1  UNL     1       7.558   6.110  14.753  1.00  0.00    -0.265 OA
HETATM    7  N2  UNL     1       7.403   7.322  12.883  1.00  0.00    -0.154 N
ATOM      8  H2  UNL     1       8.404   7.513  12.903  1.00  0.00     0.187 HD
HETATM    9  C7  UNL     1       6.638   7.820  11.899  1.00  0.00     0.682 A
HETATM   10  N4  UNL     1       5.299   7.551  11.891  1.00  0.00    -0.174 N
ATOM     11  H4  UNL     1       4.724   7.932  11.140  1.00  0.00     0.186 HD
HETATM   12  C14 UNL     1       4.718   6.804  12.837  1.00  0.00     0.155 A
HETATM   13  N5  UNL     1       3.442   6.389  13.067  1.00  0.00    -0.329 N
ATOM     14  H5  UNL     1       2.638   6.615  12.481  1.00  0.00     0.168 HD
ENDROOT
BRANCH   9  15
HETATM   15  N3  UNL     1       7.168   8.542  10.975  1.00  0.00    -0.226 N
ATOM     16  H3  UNL     1       6.891   9.516  10.853  1.00  0.00     0.177 HD
BRANCH  15  17
HETATM   17  C8  UNL     1       8.161   7.946  10.115  1.00  0.00     0.142 C
BRANCH  17  18
HETATM   18  C9  UNL     1       9.442   8.756  10.089  1.00  0.00     0.004 C
HETATM   19  C10 UNL     1       9.739   9.095   8.663  1.00  0.00     0.006 C
HETATM   20  C11 UNL     1      11.050   8.469   8.294  1.00  0.00     0.000 C
HETATM   21  C12 UNL     1      11.471   7.597   9.431  1.00  0.00     0.000 C
HETATM   22  C13 UNL     1      10.567   7.881  10.594  1.00  0.00     0.006 C
ENDBRANCH  17  18
ENDBRANCH  15  17
ENDBRANCH   9  15
BRANCH   1  23
HETATM   23  C2  UNL     1       2.168   5.006  14.756  1.00  0.00     0.045 C
HETATM   24  C1  UNL     1       1.052   4.993  13.759  1.00  0.00     0.017 C
HETATM   25  C3  UNL     1       1.745   5.753  16.026  1.00  0.00     0.017 C
ENDBRANCH   1  23
TORSDOF 4
ENDMDL