MODEL 5
REMARK VINA RESULT: -5.648492797      6.592     11.382
REMARK  5 active torsions:
REMARK  status: ('A' for Active; 'I' for Inactive)
REMARK    1  A    between atoms: N1_1  and  C1_4
REMARK    2  A    between atoms: C3_6  and  N2_7
REMARK    3  A    between atoms: C8_14  and  N4_15
REMARK    4  A    between atoms: N4_15  and  C9_17
REMARK    5  A    between atoms: C9_17  and  C10_18
ROOT
HETATM    1  C1  UNL     1       1.002   5.922  16.263  1.00  0.00     0.118 A
HETATM    2  C2  UNL     1      -0.020   5.489  15.451  1.00  0.00     0.097 A
HETATM    3  C3  UNL     1       0.212   4.906  14.229  1.00  0.00     0.122 A
HETATM    4  N3  UNL     1       1.508   4.782  13.872  1.00  0.00    -0.177 N
ATOM      5  H3  UNL     1       1.733   4.354  12.973  1.00  0.00     0.185 HD
HETATM    6  C8  UNL     1       2.512   5.201  14.660  1.00  0.00     0.681 A
HETATM    7  N5  UNL     1       2.263   5.766  15.846  1.00  0.00    -0.177 N
ATOM      8  H5  UNL     1       3.036   6.079  16.433  1.00  0.00     0.185 HD
ENDROOT
BRANCH   6   9
HETATM    9  N4  UNL     1       3.729   5.030  14.211  1.00  0.00    -0.226 N
ATOM     10  H4  UNL     1       3.994   4.186  13.704  1.00  0.00     0.177 HD
BRANCH   9  11
HETATM   11  C9  UNL     1       4.685   6.088  14.463  1.00  0.00     0.142 C
BRANCH  11  12
HETATM   12  C10 UNL     1       4.751   6.974  13.209  1.00  0.00     0.004 C
HETATM   13  C11 UNL     1       4.681   6.140  12.000  1.00  0.00     0.006 C
HETATM   14  C12 UNL     1       5.511   6.508  10.844  1.00  0.00     0.000 C
HETATM   15  C13 UNL     1       6.311   7.769  10.992  1.00  0.00     0.000 C
HETATM   16  C14 UNL     1       7.011   7.661  12.349  1.00  0.00     0.000 C
HETATM   17  C15 UNL     1       5.921   7.863  13.362  1.00  0.00     0.006 C
ENDBRANCH  11  12
ENDBRANCH   9  11
ENDBRANCH   6   9
BRANCH   3  18
HETATM   18  N2  UNL     1      -0.850   4.454  13.377  1.00  0.00    -0.367 N
HETATM   19  C4  UNL     1      -0.913   3.205  12.673  1.00  0.00     0.124 C
HETATM   20  C5  UNL     1      -2.065   3.330  11.733  1.00  0.00     0.021 C
HETATM   21  C6  UNL     1      -2.536   4.751  11.766  1.00  0.00     0.021 C
HETATM   22  C7  UNL     1      -2.044   5.231  13.107  1.00  0.00     0.124 C
ENDBRANCH   3  18
BRANCH   1  23
HETATM   23  N1  UNL     1       0.739   6.474  17.425  1.00  0.00    -0.385 N
ATOM     24  H12 UNL     1      -0.184   6.389  17.849  1.00  0.00     0.157 HD
ATOM     25  H11 UNL     1       1.458   7.000  17.921  1.00  0.00     0.157 HD
ENDBRANCH   1  23
TORSDOF 5
ENDMDL