MODEL 1
REMARK VINA RESULT: -5.966413841      0.000      0.000
REMARK  4 active torsions:
REMARK  status: ('A' for Active; 'I' for Inactive)
REMARK    1  A    between atoms: C2_2  and  O1_3
REMARK    2  A    between atoms: C2_2  and  C3_5
REMARK       I    between atoms: N1_7  and  C5_8
REMARK       I    between atoms: C5_8  and  N2_10
REMARK    3  A    between atoms: N2_10  and  C6_12
REMARK    4  A    between atoms: C6_12  and  C7_13
ROOT
HETATM    1  C3  UNL     1       9.043   8.160  10.826  1.00  0.00     0.231 C
HETATM    2  C4  UNL     1       7.558   8.017  10.729  1.00  0.00     0.163 C
HETATM    3  N1  UNL     1       6.969   7.641  12.012  1.00  0.00    -0.332 N
HETATM    4  C5  UNL     1       5.785   6.875  11.889  1.00  0.00     0.318 C
HETATM    5  O2  UNL     1       5.336   6.581  10.760  1.00  0.00    -0.247 OA
HETATM    6  N2  UNL     1       5.118   6.448  13.062  1.00  0.00    -0.343 N
ATOM      7  H2  UNL     1       5.505   6.699  13.972  1.00  0.00     0.164 HD
HETATM    8  C13 UNL     1       7.382   7.914  13.361  1.00  0.00     0.129 C
HETATM    9  C14 UNL     1       8.618   8.741  13.468  1.00  0.00     0.047 C
HETATM   10  C15 UNL     1       8.710   9.864  12.488  1.00  0.00     0.234 C
HETATM   11  N3  UNL     1       9.338   9.510  11.245  1.00  0.00    -0.067 N
ATOM     12  H31 UNL     1       9.097  10.178  10.513  1.00  0.00     0.277 HD
ATOM     13  H32 UNL     1      10.345   9.666  11.289  1.00  0.00     0.277 HD
ENDROOT
BRANCH   1  14
HETATM   14  C2  UNL     1       9.741   7.919   9.507  1.00  0.00     0.146 C
HETATM   15  C1  UNL     1      11.157   7.471   9.791  1.00  0.00     0.041 C
BRANCH  14  16
HETATM   16  O1  UNL     1       9.788   9.064   8.726  1.00  0.00    -0.394 OA
ATOM     17  H1  UNL     1       8.902   9.386   8.608  1.00  0.00     0.210 HD
ENDBRANCH  14  16
ENDBRANCH   1  14
BRANCH   6  18
HETATM   18  C6  UNL     1       3.919   5.677  13.009  1.00  0.00     0.129 C
BRANCH  18  19
HETATM   19  C7  UNL     1       2.812   6.160  13.918  1.00  0.00     0.003 C
HETATM   20  C8  UNL     1       1.756   5.044  13.901  1.00  0.00     0.006 C
HETATM   21  C9  UNL     1       0.627   5.388  14.844  1.00  0.00     0.000 C
HETATM   22  C10 UNL     1       1.081   5.651  16.241  1.00  0.00     0.000 C
HETATM   23  C11 UNL     1       2.307   6.491  16.353  1.00  0.00     0.000 C
HETATM   24  C12 UNL     1       3.364   6.179  15.327  1.00  0.00     0.006 C
ENDBRANCH  18  19
ENDBRANCH   6  18
TORSDOF 4
ENDMDL