MODEL 1
REMARK VINA RESULT: -5.668145926      0.000      0.000
REMARK  5 active torsions:
REMARK  status: ('A' for Active; 'I' for Inactive)
REMARK    1  A    between atoms: C3_3  and  C4_4
REMARK    2  A    between atoms: C10_13  and  N3_14
REMARK    3  A    between atoms: C11_19  and  N5_20
REMARK    4  A    between atoms: N5_20  and  C12_22
REMARK    5  A    between atoms: C12_22  and  C13_23
ROOT
HETATM    1  C1  UNL     1       5.674   6.446  11.071  1.00  0.00     0.054 C
HETATM    2  C2  UNL     1       6.022   7.475  12.073  1.00  0.00     0.006 A
HETATM    3  C3  UNL     1       5.215   7.711  13.196  1.00  0.00     0.040 A
HETATM    4  N2  UNL     1       5.559   8.664  14.086  1.00  0.00    -0.195 N
ATOM      5  H2  UNL     1       4.985   8.850  14.908  1.00  0.00     0.184 HD
HETATM    6  C10 UNL     1       6.685   9.359  13.850  1.00  0.00     0.677 A
HETATM    7  N4  UNL     1       7.479   9.143  12.770  1.00  0.00    -0.177 N
ATOM      8  H4  UNL     1       8.322   9.702  12.647  1.00  0.00     0.186 HD
HETATM    9  C11 UNL     1       7.171   8.203  11.859  1.00  0.00     0.124 A
ENDROOT
BRANCH   3  10
HETATM   10  C4  UNL     1       4.015   6.903  13.363  1.00  0.00     0.040 C
HETATM   11  C5  UNL     1       2.839   7.838  13.737  1.00  0.00     0.041 C
HETATM   12  C6  UNL     1       1.611   6.995  14.020  1.00  0.00     0.272 C
HETATM   13  N1  UNL     1       1.805   5.609  13.726  1.00  0.00     0.084 N
HETATM   14  C7  UNL     1       0.593   4.911  14.188  1.00  0.00     0.309 C
HETATM   15  C8  UNL     1       2.908   4.964  14.338  1.00  0.00     0.272 C
HETATM   16  C9  UNL     1       4.038   5.946  14.537  1.00  0.00     0.041 C
ENDBRANCH   3  10
BRANCH   9  17
HETATM   17  N5  UNL     1       7.887   7.971  10.837  1.00  0.00    -0.375 N
ATOM     18  H5  UNL     1       7.439   7.421  10.105  1.00  0.00     0.161 HD
BRANCH  17  19
HETATM   19  C12 UNL     1       9.222   8.368  10.567  1.00  0.00     0.126 C
BRANCH  19  20
HETATM   20  C13 UNL     1       9.836   7.687   9.376  1.00  0.00     0.003 A
HETATM   21  C14 UNL     1      11.349   7.579   9.458  1.00  0.00     0.007 A
HETATM   22  C15 UNL     1      10.669   8.374   8.391  1.00  0.00     0.007 A
ENDBRANCH  19  20
ENDBRANCH  17  19
ENDBRANCH   9  17
BRANCH   6  23
HETATM   23  N3  UNL     1       7.065  10.277  14.659  1.00  0.00    -0.234 N
ATOM     24  H32 UNL     1       6.768  11.227  14.437  1.00  0.00     0.174 HD
ATOM     25  H31 UNL     1       7.633  10.046  15.474  1.00  0.00     0.174 HD
ENDBRANCH   6  23
TORSDOF 5
ENDMDL