MODEL 4
REMARK VINA RESULT: -5.904215330      2.854      7.270
REMARK  3 active torsions:
REMARK  status: ('A' for Active; 'I' for Inactive)
REMARK    1  A    between atoms: C2_7  and  C3_8
REMARK    2  A    between atoms: C3_8  and  C4_9
REMARK    3  A    between atoms: C4_9  and  C5_10
ROOT
HETATM    1  C3  UNL     1       6.314   6.410  11.379  1.00  0.00     0.069 C
ENDROOT
BRANCH   1   2
HETATM    2  C2  UNL     1       5.463   6.120  12.517  1.00  0.00     0.094 A
HETATM    3  N2  UNL     1       4.131   5.987  12.241  1.00  0.00    -0.295 N
HETATM    4  N1  UNL     1       3.253   5.724  13.185  1.00  0.00    -0.251 N
ATOM      5  H2  UNL     1       3.810   6.095  11.279  1.00  0.00     0.187 HD
HETATM    6  C1  UNL     1       3.649   5.578  14.451  1.00  0.00     0.341 A
ATOM      7  H1  UNL     1       2.264   5.631  12.948  1.00  0.00     0.191 HD
HETATM    8  O1  UNL     1       2.782   5.325  15.337  1.00  0.00    -0.245 OA
HETATM    9  N4  UNL     1       4.946   5.699  14.770  1.00  0.00    -0.273 N
HETATM   10  C14 UNL     1       5.860   5.967  13.825  1.00  0.00     0.273 A
ATOM     11  H4  UNL     1       5.240   5.586  15.740  1.00  0.00     0.173 HD
HETATM   12  O2  UNL     1       7.082   6.092  14.059  1.00  0.00    -0.266 OA
ENDBRANCH   1   2
BRANCH   1  13
HETATM   13  C4  UNL     1       6.283   7.771  10.818  1.00  0.00     0.047 C
BRANCH  13  14
HETATM   14  C5  UNL     1       7.492   8.498  11.357  1.00  0.00    -0.034 A
HETATM   15  C6  UNL     1       7.615   9.187  12.545  1.00  0.00     0.095 A
HETATM   16  N3  UNL     1       8.866   9.666  12.599  1.00  0.00    -0.368 N
HETATM   17  C7  UNL     1       9.575   9.334  11.518  1.00  0.00     0.016 A
ATOM     18  H3  UNL     1       9.232  10.220  13.374  1.00  0.00     0.165 HD
HETATM   19  C8  UNL     1       8.705   8.592  10.729  1.00  0.00    -0.024 A
HETATM   20  C12 UNL     1      10.959   9.570  11.039  1.00  0.00     0.062 C
HETATM   21  C9  UNL     1       9.252   8.091   9.443  1.00  0.00     0.022 C
HETATM   22  C10 UNL     1      10.002   9.223   8.776  1.00  0.00     0.014 C
HETATM   23  C13 UNL     1      10.620   7.483   9.776  1.00  0.00     0.014 C
HETATM   24  C11 UNL     1      11.162   8.914   9.698  1.00  0.00    -0.008 C
ENDBRANCH  13  14
ENDBRANCH   1  13
TORSDOF 3
ENDMDL