MODEL 5
REMARK VINA RESULT: -4.974258857      3.511      7.621
REMARK  4 active torsions:
REMARK  status: ('A' for Active; 'I' for Inactive)
REMARK    1  A    between atoms: N1_1  and  C1_5
REMARK    2  A    between atoms: C1_5  and  C2_6
REMARK    3  A    between atoms: C5_10  and  N2_11
REMARK       I    between atoms: N2_11  and  C6_13
REMARK       I    between atoms: C6_13  and  N3_15
REMARK    4  A    between atoms: N3_15  and  C7_17
ROOT
HETATM    1  N2  UNL     1       1.859   7.596  13.917  1.00  0.00    -0.337 N
ATOM      2  H2  UNL     1       1.522   8.342  13.308  1.00  0.00     0.164 HD
HETATM    3  C6  UNL     1       3.172   7.099  13.731  1.00  0.00     0.317 C
HETATM    4  O1  UNL     1       3.566   6.181  14.495  1.00  0.00    -0.247 OA
HETATM    5  N3  UNL     1       4.062   7.574  12.741  1.00  0.00    -0.329 N
ATOM      6  H3  UNL     1       3.738   8.317  12.122  1.00  0.00     0.165 HD
ENDROOT
BRANCH   1   7
HETATM    7  C5  UNL     1       0.987   7.081  14.937  1.00  0.00     0.101 C
HETATM    8  C2  UNL     1      -0.002   6.122  14.347  1.00  0.00     0.044 C
HETATM    9  C3  UNL     1      -0.863   5.652  15.508  1.00  0.00     0.082 C
HETATM   10  S1  UNL     1      -1.162   7.265  16.341  1.00  0.00    -0.167 SA
HETATM   11  C4  UNL     1       0.161   8.237  15.515  1.00  0.00     0.099 C
BRANCH   8  12
HETATM   12  C1  UNL     1      -0.925   6.788  13.350  1.00  0.00     0.237 C
BRANCH  12  13
HETATM   13  N1  UNL     1      -1.912   5.817  12.909  1.00  0.00    -0.079 N
ATOM     14  H13 UNL     1      -1.898   5.678  11.898  1.00  0.00     0.274 HD
ATOM     15  H12 UNL     1      -1.673   4.865  13.186  1.00  0.00     0.274 HD
ATOM     16  H11 UNL     1      -2.828   6.104  13.251  1.00  0.00     0.274 HD
ENDBRANCH  12  13
ENDBRANCH   8  12
ENDBRANCH   1   7
BRANCH   5  17
HETATM   17  C7  UNL     1       5.413   7.067  12.552  1.00  0.00     0.156 C
HETATM   18  C8  UNL     1       5.547   6.757  11.016  1.00  0.00     0.064 C
HETATM   19  C9  UNL     1       6.470   7.769  10.334  1.00  0.00    -0.028 C
HETATM   20  C10 UNL     1       7.851   7.918  10.704  1.00  0.00    -0.030 C
HETATM   21  C11 UNL     1       8.321   8.927  11.744  1.00  0.00     0.038 C
HETATM   22  C12 UNL     1       7.621   8.710  13.127  1.00  0.00     0.086 C
HETATM   23  C13 UNL     1       6.512   7.876  12.885  1.00  0.00    -0.157 C
ENDBRANCH   5  17
TORSDOF 4
ENDMDL