MODEL 1
REMARK VINA RESULT: -6.014172961      0.000      0.000
REMARK  5 active torsions:
REMARK  status: ('A' for Active; 'I' for Inactive)
REMARK    1  A    between atoms: C3_5  and  N2_6
REMARK    2  A    between atoms: N2_6  and  C4_8
REMARK    3  A    between atoms: C10_18  and  N5_19
REMARK    4  A    between atoms: N5_19  and  C11_21
REMARK    5  A    between atoms: C11_21  and  C12_22
ROOT
HETATM    1  C1  UNL     1       8.077   6.503  14.702  1.00  0.00     0.182 A
HETATM    2  N1  UNL     1       6.892   5.873  14.615  1.00  0.00    -0.347 N
ATOM      3  H1  UNL     1       6.687   5.093  15.240  1.00  0.00     0.167 HD
HETATM    4  C2  UNL     1       5.971   6.266  13.709  1.00  0.00     0.111 A
HETATM    5  C3  UNL     1       4.694   5.826  13.389  1.00  0.00     0.146 A
HETATM    6  N3  UNL     1       4.291   6.632  12.389  1.00  0.00    -0.283 N
ATOM      7  H3  UNL     1       3.386   6.572  11.921  1.00  0.00     0.188 HD
HETATM    8  N4  UNL     1       5.238   7.517  12.095  1.00  0.00    -0.293 N
ATOM      9  H4  UNL     1       5.168   8.234  11.372  1.00  0.00     0.187 HD
HETATM   10  C9  UNL     1       6.302   7.326  12.893  1.00  0.00     0.122 A
HETATM   11  C10 UNL     1       7.519   7.985  12.969  1.00  0.00     0.133 A
HETATM   12  N6  UNL     1       8.383   7.539  13.894  1.00  0.00    -0.337 N
ATOM     13  H6  UNL     1       9.291   7.995  13.989  1.00  0.00     0.168 HD
ENDROOT
BRANCH   5  14
HETATM   14  N2  UNL     1       4.123   4.860  13.977  1.00  0.00    -0.369 N
ATOM     15  H2  UNL     1       4.585   3.953  13.911  1.00  0.00     0.161 HD
BRANCH  14  16
HETATM   16  C4  UNL     1       2.910   4.898  14.717  1.00  0.00     0.083 C
HETATM   17  C5  UNL     1       2.985   6.116  15.647  1.00  0.00     0.025 C
HETATM   18  C6  UNL     1       1.525   6.271  16.020  1.00  0.00     0.002 C
HETATM   19  C7  UNL     1       0.855   6.185  14.671  1.00  0.00     0.002 C
HETATM   20  C8  UNL     1       1.682   5.163  13.915  1.00  0.00     0.025 C
ENDBRANCH  14  16
ENDBRANCH   5  14
BRANCH  11  21
HETATM   21  N5  UNL     1       7.814   8.975  12.201  1.00  0.00    -0.374 N
ATOM     22  H5  UNL     1       7.173   9.760  12.092  1.00  0.00     0.161 HD
BRANCH  21  23
HETATM   23  C11 UNL     1       9.070   8.947  11.498  1.00  0.00     0.126 C
BRANCH  23  24
HETATM   24  C12 UNL     1       8.982   8.266  10.166  1.00  0.00     0.003 A
HETATM   25  C13 UNL     1      10.190   7.607   9.574  1.00  0.00     0.007 A
HETATM   26  C14 UNL     1       9.752   8.914   9.011  1.00  0.00     0.007 A
ENDBRANCH  23  24
ENDBRANCH  21  23
ENDBRANCH  11  21
TORSDOF 5
ENDMDL