MODEL 1
REMARK VINA RESULT: -5.767360980      0.000      0.000
REMARK  4 active torsions:
REMARK  status: ('A' for Active; 'I' for Inactive)
REMARK    1  A    between atoms: N1_1  and  C1_5
REMARK    2  A    between atoms: C1_5  and  C2_6
REMARK    3  A    between atoms: C1_5  and  C9_16
REMARK       I    between atoms: C2_6  and  N2_8
REMARK    4  A    between atoms: N2_8  and  C3_10
ROOT
HETATM    1  C1  UNL     1      12.202   9.587   9.074  1.00  0.00     0.280 C
ENDROOT
BRANCH   1   2
HETATM    2  N1  UNL     1      13.190  10.064   9.992  1.00  0.00    -0.066 N
ATOM      3  H13 UNL     1      14.064   9.549   9.888  1.00  0.00     0.275 HD
ATOM      4  H12 UNL     1      13.513  10.994   9.729  1.00  0.00     0.275 HD
ATOM      5  H11 UNL     1      12.872  10.048  10.962  1.00  0.00     0.275 HD
ENDBRANCH   1   2
BRANCH   1   6
HETATM    6  C2  UNL     1      11.246   8.642   9.693  1.00  0.00     0.249 C
HETATM    7  O1  UNL     1      11.430   7.398   9.663  1.00  0.00    -0.271 OA
HETATM    8  N2  UNL     1      10.088   9.111  10.342  1.00  0.00    -0.355 N
ATOM      9  H2  UNL     1       9.928  10.118  10.372  1.00  0.00     0.162 HD
BRANCH   8  10
HETATM   10  C3  UNL     1       9.109   8.245  10.970  1.00  0.00     0.084 C
HETATM   11  C4  UNL     1       7.973   8.068  10.029  1.00  0.00     0.025 C
HETATM   12  C5  UNL     1       6.693   7.604  10.624  1.00  0.00     0.002 C
HETATM   13  C6  UNL     1       6.745   7.492  12.139  1.00  0.00     0.000 C
HETATM   14  C7  UNL     1       7.293   8.846  12.599  1.00  0.00     0.002 C
HETATM   15  C8  UNL     1       8.771   8.822  12.305  1.00  0.00     0.025 C
ENDBRANCH   8  10
ENDBRANCH   1   6
BRANCH   1  16
HETATM   16  C9  UNL     1      11.464  10.731   8.372  1.00  0.00     0.052 C
HETATM   17  C10 UNL     1      11.428  11.963   9.229  1.00  0.00     0.239 C
HETATM   18  N3  UNL     1      10.311  12.811   8.934  1.00  0.00    -0.075 N
HETATM   19  C11 UNL     1       9.929  12.804   7.555  1.00  0.00     0.233 C
ATOM     20  H32 UNL     1       9.515  12.577   9.528  1.00  0.00     0.277 HD
ATOM     21  H31 UNL     1      10.489  13.763   9.253  1.00  0.00     0.277 HD
HETATM   22  C12 UNL     1      11.024  13.254   6.640  1.00  0.00     0.037 C
HETATM   23  C13 UNL     1      12.268  12.445   6.720  1.00  0.00    -0.038 A
HETATM   24  C14 UNL     1      13.223  12.671   5.537  1.00  0.00     0.010 A
HETATM   25  C15 UNL     1      13.574  13.107   6.915  1.00  0.00     0.010 A
HETATM   26  C16 UNL     1      12.051  10.993   7.026  1.00  0.00     0.018 C
ENDBRANCH   1  16
TORSDOF 4
ENDMDL