MODEL 3
REMARK VINA RESULT: -6.029373300      2.092      3.566
REMARK  4 active torsions:
REMARK  status: ('A' for Active; 'I' for Inactive)
REMARK    1  A    between atoms: C4_7  and  N3_8
REMARK    2  A    between atoms: N3_8  and  C5_10
REMARK    3  A    between atoms: C5_10  and  C6_11
REMARK    4  A    between atoms: N5_20  and  C13_22
ROOT
HETATM    1  N1  UNL     1       8.777   8.234   9.803  1.00  0.00    -0.191 NA
HETATM    2  C1  UNL     1       7.862   7.957  10.458  1.00  0.00     0.104 C
HETATM    3  C2  UNL     1       6.723   7.580  11.240  1.00  0.00     0.104 A
HETATM    4  C3  UNL     1       5.986   6.470  10.803  1.00  0.00     0.132 A
HETATM    5  N2  UNL     1       4.917   6.084  11.502  1.00  0.00    -0.200 N
ATOM      6  H2  UNL     1       4.377   5.277  11.189  1.00  0.00     0.183 HD
HETATM    7  C4  UNL     1       4.539   6.742  12.616  1.00  0.00     0.679 A
HETATM    8  N4  UNL     1       5.223   7.787  13.037  1.00  0.00    -0.175 N
ATOM      9  H4  UNL     1       4.916   8.269  13.883  1.00  0.00     0.186 HD
HETATM   10  C12 UNL     1       6.349   8.256  12.370  1.00  0.00     0.139 A
HETATM   11  N5  UNL     1       6.929   9.243  12.836  1.00  0.00    -0.370 N
ATOM     12  H5  UNL     1       6.442   9.548  13.679  1.00  0.00     0.161 HD
ENDROOT
BRANCH  11  13
HETATM   13  C13 UNL     1       7.988  10.060  12.617  1.00  0.00     0.083 C
HETATM   14  C14 UNL     1       9.108  10.127  13.646  1.00  0.00     0.025 C
HETATM   15  C15 UNL     1       9.169  11.642  13.407  1.00  0.00     0.004 C
HETATM   16  C16 UNL     1       7.735  11.567  12.943  1.00  0.00     0.025 C
ENDBRANCH  11  13
BRANCH   7  17
HETATM   17  N3  UNL     1       3.487   6.296  13.232  1.00  0.00    -0.226 N
ATOM     18  H3  UNL     1       2.618   6.821  13.130  1.00  0.00     0.177 HD
BRANCH  17  19
HETATM   19  C5  UNL     1       3.466   5.106  14.050  1.00  0.00     0.142 C
BRANCH  19  20
HETATM   20  C6  UNL     1       2.693   5.382  15.323  1.00  0.00     0.004 C
HETATM   21  C7  UNL     1       3.210   6.615  16.005  1.00  0.00     0.006 C
HETATM   22  C8  UNL     1       2.072   7.551  16.339  1.00  0.00     0.000 C
HETATM   23  C9  UNL     1       1.004   6.862  17.132  1.00  0.00     0.000 C
HETATM   24  C10 UNL     1       0.530   5.606  16.428  1.00  0.00     0.000 C
HETATM   25  C11 UNL     1       1.226   5.525  15.084  1.00  0.00     0.006 C
ENDBRANCH  19  20
ENDBRANCH  17  19
ENDBRANCH   7  17
TORSDOF 4
ENDMDL