MODEL 5
REMARK VINA RESULT: -5.710488064      2.994      5.851
REMARK  3 active torsions:
REMARK  status: ('A' for Active; 'I' for Inactive)
REMARK       I    between atoms: C1_2  and  N2_4
REMARK    1  A    between atoms: C8_12  and  O2_13
REMARK    2  A    between atoms: C12_18  and  C13_19
REMARK    3  A    between atoms: C13_19  and  C14_20
ROOT
HETATM    1  N1  UNL     1      -0.395  10.577  15.323  1.00  0.00    -0.040 NA
HETATM    2  C1  UNL     1      -0.068   9.267  15.786  1.00  0.00     0.332 C
HETATM    3  O1  UNL     1       0.066   9.127  17.030  1.00  0.00    -0.251 OA
HETATM    4  N2  UNL     1       0.106   8.165  14.940  1.00  0.00    -0.318 N
ATOM      5  H2  UNL     1      -0.681   7.858  14.368  1.00  0.00     0.169 HD
HETATM    6  C2  UNL     1       1.192   7.540  14.858  1.00  0.00    -0.004 C
HETATM    7  C3  UNL     1       2.439   7.891  15.651  1.00  0.00     0.058 C
HETATM    8  C4  UNL     1       3.415   7.647  14.546  1.00  0.00    -0.000 C
HETATM    9  C5  UNL     1       4.851   7.719  14.825  1.00  0.00    -0.007 C
HETATM   10  C6  UNL     1       5.446   6.440  15.380  1.00  0.00     0.008 C
HETATM   11  C7  UNL     1       5.785   5.544  14.226  1.00  0.00     0.038 C
HETATM   12  C8  UNL     1       5.239   6.281  13.022  1.00  0.00     0.059 C
HETATM   13  C9  UNL     1       5.497   7.704  13.420  1.00  0.00     0.043 C
HETATM   14  C10 UNL     1       3.778   5.912  12.907  1.00  0.00     0.043 C
HETATM   15  C11 UNL     1       3.052   6.223  14.178  1.00  0.00     0.003 C
HETATM   16  C12 UNL     1       1.537   6.388  14.012  1.00  0.00     0.046 C
ENDROOT
BRANCH  16  17
HETATM   17  C13 UNL     1       0.928   5.086  14.382  1.00  0.00     0.124 C
BRANCH  17  18
HETATM   18  C14 UNL     1      -0.285   4.661  13.725  1.00  0.00     0.173 C
HETATM   19  O3  UNL     1      -0.481   3.505  13.327  1.00  0.00    -0.648 OA
HETATM   20  O4  UNL     1      -1.299   5.591  13.521  1.00  0.00    -0.648 OA
ENDBRANCH  17  18
ENDBRANCH  16  17
BRANCH  12  21
HETATM   21  O2  UNL     1       5.891   5.980  11.849  1.00  0.00    -0.390 OA
ATOM     22  H2  UNL     1       6.797   5.721  11.972  1.00  0.00     0.210 HD
ENDBRANCH  12  21
TORSDOF 3
ENDMDL