MODEL 3
REMARK VINA RESULT: -7.037262549      1.579      1.649
REMARK  3 active torsions:
REMARK  status: ('A' for Active; 'I' for Inactive)
REMARK    1  A    between atoms: C3_3  and  N1_4
REMARK       I    between atoms: N1_4  and  C4_6
REMARK    2  A    between atoms: C4_6  and  C5_8
REMARK    3  A    between atoms: C6_9  and  C7_10
ROOT
HETATM    1  C1  UNL     1      -1.702  -4.346  14.980  1.00  0.00     0.098 C
HETATM    2  C2  UNL     1      -2.139  -4.524  16.110  1.00  0.00    -0.168 C
HETATM    3  C3  UNL     1      -2.657  -4.713  17.464  1.00  0.00     0.202 C
ENDROOT
BRANCH   3   4
HETATM    4  N1  UNL     1      -3.947  -5.344  17.440  1.00  0.00    -0.348 N
HETATM    5  C4  UNL     1      -4.174  -6.699  17.770  1.00  0.00     0.241 C
HETATM    6  O1  UNL     1      -3.207  -7.411  18.107  1.00  0.00    -0.269 OA
ATOM      7  H1  UNL     1      -4.751  -4.777  17.168  1.00  0.00     0.163 HD
BRANCH   5   8
HETATM    8  C5  UNL     1      -5.498  -7.265  17.725  1.00  0.00     0.070 C
HETATM    9  C6  UNL     1      -6.576  -6.583  17.386  1.00  0.00    -0.017 C
BRANCH   9  10
HETATM   10  C7  UNL     1      -7.907  -7.185  17.349  1.00  0.00     0.008 A
HETATM   11  C8  UNL     1      -7.941  -8.655  16.959  1.00  0.00     0.009 A
HETATM   12  C9  UNL     1      -8.592  -7.555  16.103  1.00  0.00     0.009 A
ENDBRANCH   9  10
ENDBRANCH   5   8
ENDBRANCH   3   4
TORSDOF 3
ENDMDL