MODEL 1
REMARK VINA RESULT: -6.541397977      0.000      0.000
REMARK  2 active torsions:
REMARK  status: ('A' for Active; 'I' for Inactive)
REMARK    1  A    between atoms: C2_2  and  C3_3
REMARK    2  A    between atoms: C3_3  and  N1_4
REMARK       I    between atoms: N1_4  and  C4_6
REMARK       I    between atoms: C4_6  and  N2_8
ROOT
HETATM    1  N1  UNL     1      -4.724  -3.995  16.405  1.00  0.00    -0.340 N
ATOM      2  H1  UNL     1      -5.666  -3.609  16.477  1.00  0.00     0.164 HD
HETATM    3  C4  UNL     1      -4.496  -5.324  16.842  1.00  0.00     0.318 C
HETATM    4  O1  UNL     1      -3.361  -5.807  16.760  1.00  0.00    -0.247 OA
HETATM    5  N2  UNL     1      -5.564  -6.074  17.360  1.00  0.00    -0.334 N
HETATM    6  C5  UNL     1      -6.962  -5.682  17.535  1.00  0.00     0.127 C
HETATM    7  C6  UNL     1      -7.735  -6.953  17.445  1.00  0.00     0.022 C
HETATM    8  C7  UNL     1      -6.740  -8.097  17.469  1.00  0.00     0.022 C
HETATM    9  C8  UNL     1      -5.413  -7.453  17.833  1.00  0.00     0.127 C
ENDROOT
BRANCH   1  10
HETATM   10  C3  UNL     1      -3.675  -3.164  15.860  1.00  0.00     0.150 C
BRANCH  10  11
HETATM   11  C2  UNL     1      -4.016  -1.750  16.165  1.00  0.00    -0.018 C
HETATM   12  C1  UNL     1      -3.499  -0.771  15.469  1.00  0.00     0.008 C
ENDBRANCH  10  11
ENDBRANCH   1  10
TORSDOF 2
ENDMDL