MODEL 3
REMARK VINA RESULT: -5.542827375      1.583      5.549
REMARK  4 active torsions:
REMARK  status: ('A' for Active; 'I' for Inactive)
REMARK    1  A    between atoms: N1_2  and  C2_4
REMARK    2  A    between atoms: C2_4  and  C3_5
REMARK    3  A    between atoms: C3_5  and  C4_6
REMARK    4  A    between atoms: C5_7  and  N2_8
ROOT
HETATM    1  C4  UNL     1      -4.153  -4.301  16.696  1.00  0.00     0.064 C
HETATM    2  C5  UNL     1      -5.401  -5.027  16.611  1.00  0.00     0.067 C
ENDROOT
BRANCH   1   3
HETATM    3  C3  UNL     1      -3.097  -4.350  15.948  1.00  0.00    -0.135 C
BRANCH   3   4
HETATM    4  C2  UNL     1      -1.990  -4.403  15.165  1.00  0.00     0.203 C
BRANCH   4   5
HETATM    5  N1  UNL     1      -0.773  -3.986  15.889  1.00  0.00    -0.398 N
HETATM    6  C1  UNL     1      -0.399  -4.644  16.886  1.00  0.00     0.112 C
ATOM      7  H1  UNL     1      -0.243  -3.171  15.580  1.00  0.00     0.158 HD
ENDBRANCH   4   5
ENDBRANCH   3   4
ENDBRANCH   1   3
BRANCH   2   8
HETATM    8  N2  UNL     1      -5.758  -5.816  17.781  1.00  0.00    -0.292 NA
HETATM    9  C6  UNL     1      -7.196  -5.774  17.966  1.00  0.00     0.095 C
HETATM   10  C7  UNL     1      -7.686  -6.900  17.025  1.00  0.00     0.016 C
HETATM   11  C8  UNL     1      -6.736  -7.985  17.500  1.00  0.00     0.016 C
HETATM   12  C9  UNL     1      -5.434  -7.223  17.555  1.00  0.00     0.095 C
ENDBRANCH   2   8
TORSDOF 4
ENDMDL