MODEL 1
REMARK VINA RESULT: -6.500959279      0.000      0.000
REMARK  3 active torsions:
REMARK  status: ('A' for Active; 'I' for Inactive)
REMARK    1  A    between atoms: C3_3  and  C4_4
REMARK    2  A    between atoms: C4_4  and  C5_5
REMARK    3  A    between atoms: C5_5  and  N1_6
ROOT
HETATM    1  N1  UNL     1      -3.644  -5.243  17.284  1.00  0.00     0.013 N
HETATM    2  C6  UNL     1      -4.234  -4.413  16.268  1.00  0.00     0.262 C
HETATM    3  C7  UNL     1      -2.946  -4.115  15.468  1.00  0.00     0.054 C
HETATM    4  C8  UNL     1      -1.992  -4.865  16.354  1.00  0.00     0.136 C
HETATM    5  C9  UNL     1      -2.501  -4.507  17.734  1.00  0.00     0.283 C
HETATM    6  N2  UNL     1      -2.720  -6.091  16.610  1.00  0.00    -0.040 NA
ENDROOT
BRANCH   1   7
HETATM    7  C5  UNL     1      -4.441  -5.937  18.180  1.00  0.00     0.261 C
BRANCH   7   8
HETATM    8  C4  UNL     1      -4.899  -7.303  17.750  1.00  0.00     0.034 C
BRANCH   8   9
HETATM    9  C3  UNL     1      -6.421  -7.301  17.788  1.00  0.00    -0.013 A
HETATM   10  C1  UNL     1      -7.174  -6.754  16.635  1.00  0.00     0.005 A
HETATM   11  C2  UNL     1      -7.165  -6.032  17.929  1.00  0.00     0.005 A
ENDBRANCH   8   9
ENDBRANCH   7   8
ENDBRANCH   1   7
TORSDOF 3
ENDMDL