MODEL 2
REMARK VINA RESULT: -5.813280786      1.298      4.805
REMARK  2 active torsions:
REMARK  status: ('A' for Active; 'I' for Inactive)
REMARK    1  A    between atoms: C2_2  and  C3_3
REMARK    2  A    between atoms: C3_3  and  C4_4
ROOT
HETATM    1  C4  UNL     1      -4.715  -5.740  17.692  1.00  0.00     0.041 C
HETATM    2  C5  UNL     1      -3.407  -5.527  16.962  1.00  0.00     0.244 C
HETATM    3  N1  UNL     1      -3.996  -4.358  16.342  1.00  0.00    -0.066 N
HETATM    4  C6  UNL     1      -3.721  -3.173  17.095  1.00  0.00     0.237 C
HETATM    5  C7  UNL     1      -3.831  -2.080  16.053  1.00  0.00     0.029 C
HETATM    6  C8  UNL     1      -3.033  -2.724  14.911  1.00  0.00     0.029 C
HETATM    7  C9  UNL     1      -3.583  -4.154  14.989  1.00  0.00     0.237 C
HETATM    8  C10 UNL     1      -5.290  -4.952  16.535  1.00  0.00     0.244 C
ENDROOT
BRANCH   1   9
HETATM    9  C3  UNL     1      -5.093  -7.205  17.692  1.00  0.00     0.034 C
BRANCH   9  10
HETATM   10  C2  UNL     1      -6.558  -7.402  17.754  1.00  0.00    -0.036 C
HETATM   11  C1  UNL     1      -7.124  -8.308  16.977  1.00  0.00     0.007 C
ENDBRANCH   9  10
ENDBRANCH   1   9
TORSDOF 2
ENDMDL