MODEL 4
REMARK VINA RESULT: -5.238230806      1.783      3.680
REMARK  2 active torsions:
REMARK  status: ('A' for Active; 'I' for Inactive)
REMARK    1  A    between atoms: C2_2  and  C3_3
REMARK    2  A    between atoms: C3_3  and  N1_4
REMARK       I    between atoms: N1_4  and  C4_5
ROOT
HETATM    1  N1  UNL     1      -4.180  -5.035  17.259  1.00  0.00     0.014 N
HETATM    2  C4  UNL     1      -3.254  -6.077  17.071  1.00  0.00     0.428 C
HETATM    3  N2  UNL     1      -3.411  -7.335  17.682  1.00  0.00    -0.033 NA
HETATM    4  O1  UNL     1      -2.216  -5.949  16.338  1.00  0.00    -0.243 OA
HETATM    5  C5  UNL     1      -5.237  -5.129  16.237  1.00  0.00     0.249 C
HETATM    6  C6  UNL     1      -6.131  -6.252  16.693  1.00  0.00     0.030 C
HETATM    7  C7  UNL     1      -5.992  -6.220  18.198  1.00  0.00     0.030 C
HETATM    8  C8  UNL     1      -4.880  -5.254  18.500  1.00  0.00     0.249 C
ENDROOT
BRANCH   1   9
HETATM    9  C3  UNL     1      -3.619  -3.725  17.136  1.00  0.00     0.275 C
BRANCH   9  10
HETATM   10  C2  UNL     1      -4.320  -2.857  16.177  1.00  0.00    -0.009 C
HETATM   11  C1  UNL     1      -4.007  -1.572  16.091  1.00  0.00     0.008 C
ENDBRANCH   9  10
ENDBRANCH   1   9
TORSDOF 2
ENDMDL