MODEL 4
REMARK VINA RESULT: -6.320143899      1.579      4.888
REMARK  3 active torsions:
REMARK  status: ('A' for Active; 'I' for Inactive)
REMARK    1  A    between atoms: C3_3  and  C4_4
REMARK    2  A    between atoms: C4_4  and  C5_5
REMARK    3  A    between atoms: C5_5  and  C6_6
ROOT
HETATM    1  C1  UNL     1      -8.352  -8.676  17.030  1.00  0.00     0.012 C
HETATM    2  C2  UNL     1      -7.293  -8.143  17.232  1.00  0.00    -0.117 C
HETATM    3  C3  UNL     1      -5.984  -7.499  17.463  1.00  0.00     0.093 C
ENDROOT
BRANCH   3   4
HETATM    4  C4  UNL     1      -6.196  -6.049  17.925  1.00  0.00     0.014 C
BRANCH   4   5
HETATM    5  C5  UNL     1      -5.385  -5.194  16.998  1.00  0.00     0.026 C
BRANCH   5   6
HETATM    6  C6  UNL     1      -3.946  -5.600  16.885  1.00  0.00     0.083 C
HETATM    7  C7  UNL     1      -3.278  -5.690  18.239  1.00  0.00     0.027 C
HETATM    8  C8  UNL     1      -2.043  -4.788  18.121  1.00  0.00     0.022 C
HETATM    9  C9  UNL     1      -1.805  -4.888  16.612  1.00  0.00     0.122 C
HETATM   10  N1  UNL     1      -3.141  -4.691  16.119  1.00  0.00    -0.395 N
HETATM   11  C10 UNL     1      -3.517  -3.880  15.197  1.00  0.00     0.115 C
ENDBRANCH   5   6
ENDBRANCH   4   5
ENDBRANCH   3   4
TORSDOF 3
ENDMDL