MODEL 5
REMARK VINA RESULT: -6.141129775      1.295      1.818
REMARK  3 active torsions:
REMARK  status: ('A' for Active; 'I' for Inactive)
REMARK    1  A    between atoms: C2_2  and  C3_3
REMARK    2  A    between atoms: C3_3  and  C4_4
REMARK    3  A    between atoms: C4_4  and  N1_5
ROOT
HETATM    1  N1  UNL     1      -4.190  -5.050  16.860  1.00  0.00     0.088 N
HETATM    2  C5  UNL     1      -5.620  -5.018  16.924  1.00  0.00     0.272 C
HETATM    3  C6  UNL     1      -6.289  -6.320  17.188  1.00  0.00     0.030 C
HETATM    4  C7  UNL     1      -5.476  -7.436  17.684  1.00  0.00     0.003 C
HETATM    5  C8  UNL     1      -4.043  -7.143  17.984  1.00  0.00     0.030 C
HETATM    6  C9  UNL     1      -3.711  -5.696  18.066  1.00  0.00     0.272 C
ENDROOT
BRANCH   1   7
HETATM    7  C4  UNL     1      -3.614  -3.771  16.645  1.00  0.00     0.276 C
BRANCH   7   8
HETATM    8  C3  UNL     1      -3.161  -3.594  15.221  1.00  0.00     0.056 C
BRANCH   8   9
HETATM    9  C2  UNL     1      -1.944  -4.461  15.078  1.00  0.00    -0.035 C
HETATM   10  C1  UNL     1      -0.711  -4.010  15.059  1.00  0.00     0.007 C
ENDBRANCH   8   9
ENDBRANCH   7   8
ENDBRANCH   1   7
TORSDOF 3
ENDMDL