MODEL 2
REMARK VINA RESULT: -6.002877103      1.037      1.037
REMARK  3 active torsions:
REMARK  status: ('A' for Active; 'I' for Inactive)
REMARK    1  A    between atoms: C1_2  and  C2_4
REMARK    2  A    between atoms: C2_4  and  N2_5
REMARK    3  A    between atoms: N2_5  and  C3_6
ROOT
HETATM    1  N2  UNL     1      -4.021  -5.079  17.288  1.00  0.00    -0.035 N
HETATM    2  C7  UNL     1      -2.861  -5.795  16.761  1.00  0.00     0.272 A
HETATM    3  C8  UNL     1      -2.771  -4.804  17.889  1.00  0.00     0.272 A
ENDROOT
BRANCH   1   4
HETATM    4  C2  UNL     1      -4.674  -4.224  16.341  1.00  0.00     0.273 C
BRANCH   4   5
HETATM    5  C1  UNL     1      -3.929  -3.206  15.658  1.00  0.00     0.278 C
HETATM    6  N1  UNL     1      -3.054  -3.602  14.602  1.00  0.00    -0.057 NA
HETATM    7  O1  UNL     1      -3.976  -1.999  15.902  1.00  0.00    -0.270 OA
ENDBRANCH   4   5
ENDBRANCH   1   4
BRANCH   1   8
HETATM    8  C3  UNL     1      -5.007  -5.907  17.971  1.00  0.00     0.196 C
HETATM    9  C4  UNL     1      -4.745  -7.365  17.622  1.00  0.00     0.034 C
HETATM   10  C5  UNL     1      -6.260  -7.550  17.681  1.00  0.00     0.004 C
HETATM   11  C6  UNL     1      -6.356  -6.038  17.411  1.00  0.00     0.034 C
ENDBRANCH   1   8
TORSDOF 3
ENDMDL