MODEL 3
REMARK VINA RESULT: -5.661199665      1.408      4.091
REMARK  2 active torsions:
REMARK  status: ('A' for Active; 'I' for Inactive)
REMARK    1  A    between atoms: C2_2  and  C3_3
REMARK    2  A    between atoms: C3_3  and  C4_4
ROOT
HETATM    1  C4  UNL     1      -3.143  -3.998  17.032  1.00  0.00     0.394 C
HETATM    2  N1  UNL     1      -1.903  -4.737  16.903  1.00  0.00    -0.021 N
ATOM      3  H11 UNL     1      -1.191  -4.682  17.632  1.00  0.00     0.281 HD
ATOM      4  H12 UNL     1      -1.206  -4.457  16.212  1.00  0.00     0.281 HD
HETATM    5  C5  UNL     1      -2.661  -5.937  16.722  1.00  0.00     0.473 C
HETATM    6  N2  UNL     1      -3.848  -5.230  17.110  1.00  0.00    -0.014 N
HETATM    7  C6  UNL     1      -4.932  -5.433  16.201  1.00  0.00     0.242 C
HETATM    8  C7  UNL     1      -6.139  -5.853  16.967  1.00  0.00     0.030 C
HETATM    9  C8  UNL     1      -5.695  -6.024  18.383  1.00  0.00     0.030 C
HETATM   10  C9  UNL     1      -4.303  -5.500  18.444  1.00  0.00     0.242 C
ENDROOT
BRANCH   1  11
HETATM   11  C3  UNL     1      -3.395  -3.128  15.845  1.00  0.00     0.089 C
BRANCH  11  12
HETATM   12  C2  UNL     1      -4.189  -1.960  16.280  1.00  0.00    -0.033 C
HETATM   13  C1  UNL     1      -3.868  -0.724  15.952  1.00  0.00     0.007 C
ENDBRANCH  11  12
ENDBRANCH   1  11
TORSDOF 2
ENDMDL