MODEL 3
REMARK VINA RESULT: -6.282592618      1.948      3.367
REMARK  3 active torsions:
REMARK  status: ('A' for Active; 'I' for Inactive)
REMARK       I    between atoms: C1_2  and  N1_3
REMARK    1  A    between atoms: C1_2  and  C5_8
REMARK    2  A    between atoms: N1_3  and  C2_5
REMARK    3  A    between atoms: N2_12  and  C9_13
ROOT
HETATM    1  C5  UNL     1      -4.858  -5.236  18.058  1.00  0.00     0.314 C
HETATM    2  C6  UNL     1      -3.772  -6.101  18.741  1.00  0.00     0.047 C
HETATM    3  C7  UNL     1      -2.634  -5.111  18.769  1.00  0.00     0.033 C
HETATM    4  C8  UNL     1      -2.778  -4.453  17.412  1.00  0.00     0.274 C
HETATM    5  N2  UNL     1      -4.089  -4.787  16.911  1.00  0.00     0.106 N
ENDROOT
BRANCH   1   6
HETATM    6  C1  UNL     1      -5.944  -6.165  17.704  1.00  0.00     0.251 C
HETATM    7  O1  UNL     1      -5.620  -7.369  17.478  1.00  0.00    -0.271 OA
HETATM    8  N1  UNL     1      -7.300  -5.797  17.602  1.00  0.00    -0.355 N
ATOM      9  H1  UNL     1      -7.585  -4.834  17.777  1.00  0.00     0.162 HD
BRANCH   8  10
HETATM   10  C2  UNL     1      -8.281  -6.794  17.247  1.00  0.00     0.084 A
HETATM   11  C3  UNL     1      -8.896  -6.723  15.881  1.00  0.00     0.027 A
HETATM   12  C4  UNL     1      -9.712  -6.476  17.125  1.00  0.00     0.027 A
ENDBRANCH   8  10
ENDBRANCH   1   6
BRANCH   5  13
HETATM   13  C9  UNL     1      -4.742  -3.756  16.173  1.00  0.00     0.224 A
HETATM   14  C10 UNL     1      -3.820  -3.041  15.166  1.00  0.00     0.038 A
HETATM   15  C11 UNL     1      -4.380  -2.336  16.348  1.00  0.00     0.038 A
ENDBRANCH   5  13
TORSDOF 3
ENDMDL