MODEL 1
REMARK VINA RESULT: -6.914967820      0.000      0.000
REMARK  3 active torsions:
REMARK  status: ('A' for Active; 'I' for Inactive)
REMARK    1  A    between atoms: C1_2  and  N1_3
REMARK    2  A    between atoms: C4_6  and  N2_7
REMARK       I    between atoms: N2_7  and  C5_9
REMARK    3  A    between atoms: C5_9  and  C6_11
ROOT
HETATM    1  N1  UNL     1      -2.792  -4.482  16.672  1.00  0.00    -0.359 N
HETATM    2  C2  UNL     1      -3.102  -5.718  17.348  1.00  0.00     0.127 C
HETATM    3  C3  UNL     1      -4.403  -5.764  18.025  1.00  0.00     0.045 C
HETATM    4  C4  UNL     1      -5.516  -4.980  17.416  1.00  0.00     0.087 C
HETATM    5  C9  UNL     1      -5.086  -4.150  16.225  1.00  0.00     0.045 C
HETATM    6  C10 UNL     1      -3.794  -3.462  16.618  1.00  0.00     0.127 C
ENDROOT
BRANCH   4   7
HETATM    7  N2  UNL     1      -6.607  -5.801  16.970  1.00  0.00    -0.356 N
HETATM    8  C5  UNL     1      -7.861  -5.734  17.603  1.00  0.00     0.222 C
HETATM    9  O2  UNL     1      -8.076  -4.946  18.587  1.00  0.00    -0.273 OA
ATOM     10  H2  UNL     1      -6.471  -6.440  16.186  1.00  0.00     0.162 HD
BRANCH   8  11
HETATM   11  C6  UNL     1      -9.035  -6.559  17.190  1.00  0.00     0.078 A
HETATM   12  C7  UNL     1      -9.072  -7.029  15.783  1.00  0.00     0.015 A
HETATM   13  C8  UNL     1      -8.728  -8.007  16.909  1.00  0.00     0.015 A
ENDBRANCH   8  11
ENDBRANCH   4   7
BRANCH   1  14
HETATM   14  C1  UNL     1      -1.534  -4.254  16.066  1.00  0.00     0.350 C
HETATM   15  O1  UNL     1      -1.486  -3.939  14.860  1.00  0.00    -0.284 OA
ENDBRANCH   1  14
TORSDOF 3
ENDMDL