MODEL 1
REMARK VINA RESULT: -6.464914293      0.000      0.000
REMARK  3 active torsions:
REMARK  status: ('A' for Active; 'I' for Inactive)
REMARK    1  A    between atoms: C1_2  and  C2_3
REMARK       I    between atoms: C1_2  and  N2_8
REMARK    2  A    between atoms: C2_3  and  N1_4
REMARK    3  A    between atoms: N2_8  and  C6_10
ROOT
HETATM    1  O1  UNL     1      -5.259  -5.769  18.526  1.00  0.00    -0.272 OA
HETATM    2  C1  UNL     1      -5.227  -5.224  17.377  1.00  0.00     0.246 C
HETATM    3  N2  UNL     1      -6.339  -5.396  16.546  1.00  0.00    -0.350 N
ATOM      4  H2  UNL     1      -6.309  -4.959  15.624  1.00  0.00     0.163 HD
ENDROOT
BRANCH   3   5
HETATM    5  C6  UNL     1      -7.471  -6.110  16.875  1.00  0.00     0.033 C
HETATM    6  C7  UNL     1      -8.482  -5.576  17.846  1.00  0.00     0.031 C
HETATM    7  C8  UNL     1      -9.527  -6.709  17.748  1.00  0.00     0.007 C
HETATM    8  C9  UNL     1      -8.866  -7.567  16.725  1.00  0.00    -0.010 C
HETATM    9  C10 UNL     1      -8.385  -6.529  15.711  1.00  0.00     0.035 C
HETATM   10  C11 UNL     1      -7.410  -7.562  17.213  1.00  0.00     0.035 C
ENDBRANCH   3   5
BRANCH   2  11
HETATM   11  C2  UNL     1      -4.027  -4.465  17.023  1.00  0.00     0.374 C
BRANCH  11  12
HETATM   12  N1  UNL     1      -4.244  -3.485  15.991  1.00  0.00     0.097 N
HETATM   13  C3  UNL     1      -3.097  -3.068  15.255  1.00  0.00     0.275 C
HETATM   14  C4  UNL     1      -3.609  -1.627  15.379  1.00  0.00     0.060 C
HETATM   15  C5  UNL     1      -4.566  -2.155  16.442  1.00  0.00     0.275 C
ENDBRANCH  11  12
ENDBRANCH   2  11
TORSDOF 3
ENDMDL