MODEL 1
REMARK VINA RESULT: -6.931591335      0.000      0.000
REMARK  3 active torsions:
REMARK  status: ('A' for Active; 'I' for Inactive)
REMARK       I    between atoms: C1_2  and  N1_3
REMARK    1  A    between atoms: C1_2  and  C6_9
REMARK    2  A    between atoms: N1_3  and  C2_5
REMARK    3  A    between atoms: C2_5  and  C3_6
ROOT
HETATM    1  O1  UNL     1      -5.489  -7.302  17.582  1.00  0.00    -0.273 OA
HETATM    2  C1  UNL     1      -6.388  -6.442  17.395  1.00  0.00     0.227 C
HETATM    3  N1  UNL     1      -6.044  -5.135  17.115  1.00  0.00    -0.340 N
ATOM      4  H1  UNL     1      -6.855  -4.533  16.975  1.00  0.00     0.167 HD
ENDROOT
BRANCH   2   5
HETATM    5  C6  UNL     1      -7.770  -6.963  17.504  1.00  0.00     0.112 C
HETATM    6  C7  UNL     1      -8.785  -5.862  17.712  1.00  0.00     0.286 C
HETATM    7  N2  UNL     1      -9.882  -6.190  16.776  1.00  0.00     0.089 N
HETATM    8  C8  UNL     1     -10.468  -7.416  17.279  1.00  0.00     0.273 C
HETATM    9  C11 UNL     1      -9.167  -6.736  15.609  1.00  0.00     0.278 C
HETATM   10  C9  UNL     1      -9.491  -8.541  16.964  1.00  0.00     0.037 C
HETATM   11  C10 UNL     1      -8.310  -7.719  16.367  1.00  0.00     0.030 C
ENDBRANCH   2   5
BRANCH   3  12
HETATM   12  C2  UNL     1      -4.830  -4.453  16.979  1.00  0.00     0.068 C
BRANCH  12  13
HETATM   13  C3  UNL     1      -4.575  -3.464  15.929  1.00  0.00     0.024 A
HETATM   14  C4  UNL     1      -3.245  -2.804  15.622  1.00  0.00     0.010 A
HETATM   15  C5  UNL     1      -4.318  -2.035  16.276  1.00  0.00     0.010 A
ENDBRANCH  12  13
ENDBRANCH   3  12
TORSDOF 3
ENDMDL