MODEL 3
REMARK VINA RESULT: -7.308935638      1.296      1.846
REMARK  4 active torsions:
REMARK  status: ('A' for Active; 'I' for Inactive)
REMARK    1  A    between atoms: C3_3  and  C4_4
REMARK       I    between atoms: N1_7  and  C7_8
REMARK    2  A    between atoms: C7_8  and  C8_10
REMARK    3  A    between atoms: C8_10  and  C9_11
REMARK    4  A    between atoms: C9_11  and  N2_12
ROOT
HETATM    1  C1  UNL     1      -8.971  -5.004  18.255  1.00  0.00     0.012 C
HETATM    2  C2  UNL     1      -7.978  -5.665  18.051  1.00  0.00    -0.117 C
HETATM    3  C3  UNL     1      -6.807  -6.474  17.800  1.00  0.00     0.097 C
ENDROOT
BRANCH   3   4
HETATM    4  C4  UNL     1      -5.529  -5.671  17.800  1.00  0.00    -0.000 C
HETATM    5  C5  UNL     1      -5.623  -4.392  17.053  1.00  0.00     0.025 C
HETATM    6  C6  UNL     1      -4.794  -4.462  15.815  1.00  0.00     0.126 C
HETATM    7  N1  UNL     1      -3.413  -4.695  16.177  1.00  0.00    -0.352 N
HETATM    8  C7  UNL     1      -2.446  -3.792  15.677  1.00  0.00     0.221 C
HETATM    9  C10 UNL     1      -3.144  -5.826  17.017  1.00  0.00     0.126 C
HETATM   10  O1  UNL     1      -2.757  -2.817  14.944  1.00  0.00    -0.273 OA
HETATM   11  C11 UNL     1      -4.397  -6.563  17.413  1.00  0.00     0.025 C
BRANCH   8  12
HETATM   12  C8  UNL     1      -0.990  -3.987  16.024  1.00  0.00     0.130 C
BRANCH  12  13
HETATM   13  C9  UNL     1      -0.133  -3.564  14.847  1.00  0.00     0.238 C
BRANCH  13  14
HETATM   14  N2  UNL     1       0.226  -2.182  14.899  1.00  0.00    -0.079 N
ATOM     15  H23 UNL     1       0.027  -1.718  14.013  1.00  0.00     0.274 HD
ATOM     16  H22 UNL     1      -0.409  -1.660  15.503  1.00  0.00     0.274 HD
ATOM     17  H21 UNL     1       1.196  -2.040  15.178  1.00  0.00     0.274 HD
ENDBRANCH  13  14
ENDBRANCH  12  13
ENDBRANCH   8  12
ENDBRANCH   3   4
TORSDOF 4
ENDMDL