MODEL 3
REMARK VINA RESULT: -6.466969354      1.224      1.845
REMARK  3 active torsions:
REMARK  status: ('A' for Active; 'I' for Inactive)
REMARK    1  A    between atoms: S1_2  and  N1_4
REMARK    2  A    between atoms: S1_2  and  C6_11
REMARK    3  A    between atoms: N1_4  and  C1_6
ROOT
HETATM    1  N1  UNL     1      -6.151  -6.765  17.694  1.00  0.00    -0.314 N
ATOM      2  H1  UNL     1      -6.316  -7.703  18.061  1.00  0.00     0.172 HD
ENDROOT
BRANCH   1   3
HETATM    3  S1  UNL     1      -4.644  -5.957  17.655  1.00  0.00     0.231 S
HETATM    4  O1  UNL     1      -3.567  -6.991  17.462  1.00  0.00    -0.206 OA
HETATM    5  O2  UNL     1      -4.437  -5.299  18.991  1.00  0.00    -0.206 OA
BRANCH   3   6
HETATM    6  C6  UNL     1      -4.551  -4.766  16.345  1.00  0.00     0.129 A
HETATM    7  C7  UNL     1      -4.400  -3.336  16.614  1.00  0.00     0.023 A
HETATM    8  C8  UNL     1      -3.159  -4.122  16.214  1.00  0.00     0.023 A
ENDBRANCH   3   6
ENDBRANCH   1   3
BRANCH   1   9
HETATM    9  C1  UNL     1      -7.151  -5.892  17.121  1.00  0.00     0.092 C
HETATM   10  C2  UNL     1      -8.160  -6.678  16.313  1.00  0.00     0.026 C
HETATM   11  C3  UNL     1      -9.230  -6.998  17.346  1.00  0.00     0.002 C
HETATM   12  C4  UNL     1      -9.373  -5.664  18.047  1.00  0.00     0.002 C
HETATM   13  C5  UNL     1      -7.937  -5.144  18.157  1.00  0.00     0.026 C
ENDBRANCH   1   9
TORSDOF 3
ENDMDL