MODEL 3
REMARK VINA RESULT: -6.967951096      2.333      5.744
REMARK  3 active torsions:
REMARK  status: ('A' for Active; 'I' for Inactive)
REMARK    1  A    between atoms: C2_2  and  C3_3
REMARK    2  A    between atoms: C4_4  and  C5_5
REMARK       I    between atoms: C5_5  and  N1_7
REMARK    3  A    between atoms: C8_10  and  C9_11
ROOT
HETATM    1  C5  UNL     1      -5.627  -5.995  17.618  1.00  0.00     0.243 C
HETATM    2  O1  UNL     1      -5.235  -7.173  17.836  1.00  0.00    -0.268 OA
HETATM    3  N1  UNL     1      -4.701  -5.056  17.065  1.00  0.00    -0.348 N
HETATM    4  C6  UNL     1      -5.015  -3.685  16.765  1.00  0.00     0.127 C
HETATM    5  C7  UNL     1      -3.984  -3.329  15.715  1.00  0.00     0.037 C
HETATM    6  C8  UNL     1      -2.756  -4.025  16.255  1.00  0.00     0.106 C
HETATM    7  C10 UNL     1      -3.301  -5.340  16.723  1.00  0.00     0.141 C
ENDROOT
BRANCH   1   8
HETATM    8  C4  UNL     1      -6.972  -5.596  17.917  1.00  0.00     0.074 C
HETATM    9  C3  UNL     1      -8.091  -6.008  17.395  1.00  0.00     0.005 C
BRANCH   9  10
HETATM   10  C2  UNL     1      -8.292  -6.994  16.357  1.00  0.00    -0.010 C
HETATM   11  C1  UNL     1      -9.133  -6.750  15.333  1.00  0.00     0.011 C
ENDBRANCH   9  10
ENDBRANCH   1   8
BRANCH   6  12
HETATM   12  C9  UNL     1      -1.683  -4.152  15.272  1.00  0.00     0.178 C
HETATM   13  O2  UNL     1      -1.949  -4.487  14.100  1.00  0.00    -0.648 OA
HETATM   14  O3  UNL     1      -0.374  -3.904  15.622  1.00  0.00    -0.648 OA
ENDBRANCH   6  12
TORSDOF 3
ENDMDL