MODEL 4
REMARK VINA RESULT: -6.988877967      0.955      1.285
REMARK  3 active torsions:
REMARK  status: ('A' for Active; 'I' for Inactive)
REMARK    1  A    between atoms: C1_2  and  C2_4
REMARK    2  A    between atoms: C2_4  and  C8_13
REMARK       I    between atoms: N2_5  and  C3_7
REMARK    3  A    between atoms: C3_7  and  C4_9
ROOT
HETATM    1  C2  UNL     1      -2.899  -4.330  16.328  1.00  0.00     0.081 C
HETATM    2  N2  UNL     1      -3.036  -5.493  16.797  1.00  0.00    -0.326 N
ATOM      3  H2  UNL     1      -2.572  -6.250  16.295  1.00  0.00     0.168 HD
HETATM    4  C3  UNL     1      -3.767  -5.843  17.945  1.00  0.00     0.226 C
HETATM    5  O2  UNL     1      -3.125  -6.308  18.945  1.00  0.00    -0.273 OA
ENDROOT
BRANCH   1   6
HETATM    6  C1  UNL     1      -2.098  -4.145  15.115  1.00  0.00     0.277 C
HETATM    7  N1  UNL     1      -0.742  -3.720  15.146  1.00  0.00    -0.056 NA
HETATM    8  O1  UNL     1      -2.588  -4.359  13.965  1.00  0.00    -0.270 OA
ENDBRANCH   1   6
BRANCH   1   9
HETATM    9  C8  UNL     1      -3.512  -3.138  16.930  1.00  0.00     0.041 A
HETATM   10  C9  UNL     1      -4.736  -2.527  16.276  1.00  0.00     0.011 A
HETATM   11  C10 UNL     1      -3.423  -1.848  16.162  1.00  0.00     0.011 A
ENDBRANCH   1   9
BRANCH   4  12
HETATM   12  C4  UNL     1      -5.224  -5.667  17.956  1.00  0.00     0.078 C
HETATM   13  C5  UNL     1      -6.029  -6.948  17.902  1.00  0.00     0.014 C
HETATM   14  C6  UNL     1      -6.974  -6.246  16.948  1.00  0.00     0.002 C
HETATM   15  C7  UNL     1      -5.818  -5.341  16.576  1.00  0.00     0.014 C
ENDBRANCH   4  12
TORSDOF 3
ENDMDL