MODEL 1
REMARK VINA RESULT: -7.301513128      0.000      0.000
REMARK  3 active torsions:
REMARK  status: ('A' for Active; 'I' for Inactive)
REMARK    1  A    between atoms: S1_2  and  N1_4
REMARK    2  A    between atoms: S1_2  and  C6_11
REMARK    3  A    between atoms: N1_4  and  C1_6
ROOT
HETATM    1  N1  UNL     1      -2.998  -5.077  16.442  1.00  0.00    -0.309 N
ATOM      2  H1  UNL     1      -2.253  -5.774  16.425  1.00  0.00     0.173 HD
ENDROOT
BRANCH   1   3
HETATM    3  S1  UNL     1      -2.751  -3.712  15.549  1.00  0.00     0.231 S
HETATM    4  O1  UNL     1      -3.653  -3.775  14.316  1.00  0.00    -0.206 OA
HETATM    5  O2  UNL     1      -1.351  -3.428  15.114  1.00  0.00    -0.206 OA
BRANCH   3   6
HETATM    6  C6  UNL     1      -3.283  -2.268  16.441  1.00  0.00     0.129 A
HETATM    7  C7  UNL     1      -3.629  -1.007  15.722  1.00  0.00     0.023 A
HETATM    8  C8  UNL     1      -4.707  -1.871  16.251  1.00  0.00     0.023 A
ENDBRANCH   3   6
ENDBRANCH   1   3
BRANCH   1   9
HETATM    9  C1  UNL     1      -4.090  -5.373  17.199  1.00  0.00     0.044 A
HETATM   10  C2  UNL     1      -5.527  -5.202  16.882  1.00  0.00     0.032 A
HETATM   11  C3  UNL     1      -5.904  -6.487  17.633  1.00  0.00     0.010 A
HETATM   12  C4  UNL     1      -4.425  -6.711  17.854  1.00  0.00     0.017 A
HETATM   13  C5  UNL     1      -3.767  -5.674  18.683  1.00  0.00     0.039 A
ENDBRANCH   1   9
TORSDOF 3
ENDMDL