MODEL 1
REMARK VINA RESULT: -8.353661582      0.000      0.000
REMARK  3 active torsions:
REMARK  status: ('A' for Active; 'I' for Inactive)
REMARK       I    between atoms: C1_2  and  N1_3
REMARK    1  A    between atoms: C1_2  and  C5_8
REMARK    2  A    between atoms: N1_3  and  C2_5
REMARK    3  A    between atoms: C5_8  and  C6_10
ROOT
HETATM    1  C5  UNL     1      -3.088  -5.111  17.126  1.00  0.00     0.221 C
HETATM    2  O2  UNL     1      -1.935  -5.550  16.895  1.00  0.00    -0.287 OA
ENDROOT
BRANCH   1   3
HETATM    3  C1  UNL     1      -4.082  -6.076  17.566  1.00  0.00     0.288 C
HETATM    4  O1  UNL     1      -3.685  -7.132  18.110  1.00  0.00    -0.264 OA
HETATM    5  N1  UNL     1      -5.472  -5.887  17.414  1.00  0.00    -0.350 N
ATOM      6  H1  UNL     1      -5.814  -5.033  16.974  1.00  0.00     0.163 HD
BRANCH   5   7
HETATM    7  C2  UNL     1      -6.418  -6.873  17.866  1.00  0.00     0.085 A
HETATM    8  C3  UNL     1      -7.107  -7.733  16.850  1.00  0.00     0.027 A
HETATM    9  C4  UNL     1      -7.857  -6.591  17.433  1.00  0.00     0.027 A
ENDBRANCH   5   7
ENDBRANCH   1   3
BRANCH   1  10
HETATM   10  C6  UNL     1      -3.369  -3.682  16.945  1.00  0.00     0.074 C
HETATM   11  C7  UNL     1      -2.827  -3.080  15.649  1.00  0.00    -0.002 C
HETATM   12  C8  UNL     1      -3.268  -1.659  15.761  1.00  0.00     0.006 C
HETATM   13  C11 UNL     1      -4.045  -3.733  14.990  1.00  0.00     0.011 C
HETATM   14  C9  UNL     1      -4.711  -1.880  16.263  1.00  0.00     0.006 C
HETATM   15  C10 UNL     1      -4.712  -3.377  16.328  1.00  0.00    -0.002 C
ENDBRANCH   1  10
TORSDOF 3
ENDMDL