MODEL 3
REMARK VINA RESULT: -8.190503750      1.679      3.216
REMARK  12 active torsions:
REMARK  status: ('A' for Active; 'I' for Inactive)
REMARK    1  A    between atoms: C2_2  and  N1_3
REMARK    2  A    between atoms: C3_4  and  C4_5
REMARK    3  A    between atoms: C5_6  and  O1_7
REMARK    4  A    between atoms: C7_14  and  N3_15
REMARK       I    between atoms: N3_15  and  C8_17
REMARK    5  A    between atoms: C8_17  and  C9_19
REMARK    6  A    between atoms: C9_19  and  N5_22
REMARK    7  A    between atoms: N5_22  and  C11_25
REMARK    8  A    between atoms: C11_25  and  O4_26
REMARK    9  A    between atoms: C11_25  and  N6_28
REMARK   10  A    between atoms: N6_28  and  C13_30
REMARK   11  A    between atoms: C13_30  and  C14_31
REMARK   12  A    between atoms: C15_34  and  N8_35
ROOT
HETATM    1  C9  UNL     1       4.557 -22.774 -29.708  1.00  0.00     0.387 C
HETATM    2  C10 UNL     1       3.901 -22.196 -28.543  1.00  0.00     0.102 C
HETATM    3  N4  UNL     1       3.392 -21.713 -27.589  1.00  0.00    -0.195 NA
ENDROOT
BRANCH   1   4
HETATM    4  C8  UNL     1       5.970 -23.072 -29.418  1.00  0.00     0.267 C
HETATM    5  N3  UNL     1       6.350 -23.867 -28.314  1.00  0.00    -0.318 N
ATOM      6  H3  UNL     1       5.621 -24.266 -27.722  1.00  0.00     0.169 HD
HETATM    7  O3  UNL     1       6.859 -22.609 -30.166  1.00  0.00    -0.270 OA
BRANCH   5   8
HETATM    8  C7  UNL     1       7.701 -24.133 -27.999  1.00  0.00     0.135 A
HETATM    9  C3  UNL     1       8.624 -25.014 -28.481  1.00  0.00     0.107 A
HETATM   10  N1  UNL     1       9.783 -24.721 -27.813  1.00  0.00    -0.260 N
HETATM   11  N10 UNL     1       9.570 -23.692 -26.959  1.00  0.00    -0.253 N
HETATM   12  C16 UNL     1       8.322 -23.307 -27.038  1.00  0.00     0.291 A
HETATM   13  C17 UNL     1      10.575 -23.105 -26.094  1.00  0.00     0.182 C
HETATM   14  O5  UNL     1       7.733 -22.392 -26.410  1.00  0.00    -0.264 OA
BRANCH   9  15
HETATM   15  C4  UNL     1       8.385 -26.215 -29.349  1.00  0.00     0.105 A
HETATM   16  C5  UNL     1       7.982 -27.411 -28.820  1.00  0.00     0.142 A
HETATM   17  S1  UNL     1       7.532 -28.335 -30.213  1.00  0.00     0.015 SA
HETATM   18  N2  UNL     1       7.861 -27.222 -31.384  1.00  0.00    -0.290 N
HETATM   19  C6  UNL     1       8.317 -26.135 -30.696  1.00  0.00     0.267 A
ATOM     20  H2  UNL     1       7.749 -27.322 -32.393  1.00  0.00     0.177 HD
HETATM   21  O2  UNL     1       8.622 -25.141 -31.449  1.00  0.00    -0.267 OA
BRANCH  16  22
HETATM   22  O1  UNL     1       7.917 -27.908 -27.498  1.00  0.00    -0.352 OA
ATOM     23  H1  UNL     1       7.194 -28.142 -26.928  1.00  0.00     0.218 HD
ENDBRANCH  16  22
ENDBRANCH   9  15
BRANCH  10  24
HETATM   24  C2  UNL     1      11.043 -25.352 -27.745  1.00  0.00     0.107 C
HETATM   25  C1  UNL     1      11.143 -26.470 -27.038  1.00  0.00     0.032 C
ENDBRANCH  10  24
ENDBRANCH   5   8
ENDBRANCH   1   4
BRANCH   1  26
HETATM   26  N5  UNL     1       3.848 -23.928 -30.208  1.00  0.00    -0.006 N
ATOM     27  H52 UNL     1       4.207 -24.801 -29.823  1.00  0.00     0.284 HD
ATOM     28  H51 UNL     1       2.899 -23.990 -29.840  1.00  0.00     0.284 HD
BRANCH  26  29
HETATM   29  C11 UNL     1       3.877 -23.912 -31.677  1.00  0.00     0.426 C
BRANCH  29  30
HETATM   30  O4  UNL     1       4.454 -25.144 -32.063  1.00  0.00    -0.355 OA
ATOM     31  H4  UNL     1       4.612 -25.073 -32.997  1.00  0.00     0.213 HD
ENDBRANCH  29  30
BRANCH  29  32
HETATM   32  N6  UNL     1       2.619 -23.656 -32.283  1.00  0.00    -0.363 N
HETATM   33  C12 UNL     1       2.210 -24.708 -33.169  1.00  0.00     0.148 C
BRANCH  32  34
HETATM   34  C13 UNL     1       2.358 -22.331 -32.715  1.00  0.00     0.197 C
BRANCH  34  35
HETATM   35  C14 UNL     1       1.626 -21.482 -31.686  1.00  0.00     0.107 A
HETATM   36  N7  UNL     1       2.199 -20.604 -30.935  1.00  0.00    -0.324 N
HETATM   37  C15 UNL     1       1.489 -19.909 -30.060  1.00  0.00     0.160 A
ATOM     38  H7  UNL     1       3.203 -20.443 -31.017  1.00  0.00     0.169 HD
HETATM   39  S2  UNL     1      -0.076 -20.548 -30.327  1.00  0.00     0.024 SA
HETATM   40  N9  UNL     1       0.299 -21.657 -31.542  1.00  0.00    -0.312 N
ATOM     41  H9  UNL     1      -0.320 -22.296 -32.041  1.00  0.00     0.175 HD
BRANCH  37  42
HETATM   42  N8  UNL     1       1.885 -18.981 -29.220  1.00  0.00    -0.379 N
ATOM     43  H82 UNL     1       2.100 -19.051 -28.225  1.00  0.00     0.158 HD
ATOM     44  H81 UNL     1       2.058 -17.990 -29.389  1.00  0.00     0.158 HD
ENDBRANCH  37  42
ENDBRANCH  34  35
ENDBRANCH  32  34
ENDBRANCH  29  32
ENDBRANCH  26  29
ENDBRANCH   1  26
TORSDOF 12
ENDMDL