MODEL 2
REMARK VINA RESULT: -8.889361979      2.175      2.838
REMARK  12 active torsions:
REMARK  status: ('A' for Active; 'I' for Inactive)
REMARK    1  A    between atoms: N1_1  and  C1_4
REMARK    2  A    between atoms: N4_9  and  C2_10
REMARK    3  A    between atoms: C2_10  and  C3_11
REMARK    4  A    between atoms: C3_11  and  C4_12
REMARK    5  A    between atoms: C4_12  and  C5_13
REMARK    6  A    between atoms: C5_13  and  S1_14
REMARK    7  A    between atoms: S1_14  and  C6_15
REMARK    8  A    between atoms: C10_26  and  N8_27
REMARK    9  A    between atoms: N10_34  and  C13_35
REMARK   10  A    between atoms: C13_35  and  C14_36
REMARK   11  A    between atoms: C14_36  and  C15_37
REMARK   12  A    between atoms: C15_37  and  N11_38
ROOT
HETATM    1  C6  UNL     1       4.906 -22.341 -27.335  1.00  0.00     0.143 A
HETATM    2  N5  UNL     1       3.878 -22.212 -28.254  1.00  0.00    -0.340 N
ATOM      3  H5  UNL     1       3.629 -23.019 -28.826  1.00  0.00     0.167 HD
HETATM    4  C7  UNL     1       3.198 -21.072 -28.422  1.00  0.00     0.123 A
HETATM    5  C8  UNL     1       3.515 -19.967 -27.666  1.00  0.00     0.141 A
HETATM    6  N6  UNL     1       4.503 -20.042 -26.766  1.00  0.00    -0.305 N
ATOM      7  H6  UNL     1       4.748 -19.230 -26.200  1.00  0.00     0.170 HD
HETATM    8  C9  UNL     1       5.187 -21.228 -26.612  1.00  0.00     0.281 A
HETATM    9  O1  UNL     1       6.089 -21.172 -25.752  1.00  0.00    -0.265 OA
HETATM   10  N7  UNL     1       2.573 -19.328 -28.288  1.00  0.00    -0.324 N
ATOM     11  H7  UNL     1       2.215 -18.375 -28.230  1.00  0.00     0.169 HD
HETATM   12  C10 UNL     1       2.228 -20.454 -29.078  1.00  0.00     0.151 A
ENDROOT
BRANCH  12  13
HETATM   13  N8  UNL     1       1.260 -20.715 -30.088  1.00  0.00    -0.222 N
HETATM   14  C11 UNL     1       1.593 -21.407 -31.214  1.00  0.00     0.337 A
HETATM   15  O2  UNL     1       2.783 -21.798 -31.322  1.00  0.00    -0.246 OA
HETATM   16  N9  UNL     1       0.702 -21.677 -32.186  1.00  0.00    -0.284 N
HETATM   17  C12 UNL     1      -0.576 -21.260 -32.073  1.00  0.00     0.184 A
ATOM     18  H9  UNL     1       0.994 -22.199 -33.012  1.00  0.00     0.173 HD
HETATM   19  S2  UNL     1      -1.632 -21.606 -33.276  1.00  0.00    -0.040 SA
HETATM   20  N10 UNL     1      -0.925 -20.573 -30.969  1.00  0.00    -0.300 N
HETATM   21  C16 UNL     1      -0.021 -20.314 -30.009  1.00  0.00     0.192 A
HETATM   22  S3  UNL     1      -0.463 -19.479 -28.670  1.00  0.00    -0.040 SA
BRANCH  20  23
HETATM   23  C13 UNL     1      -2.303 -20.138 -30.878  1.00  0.00     0.135 C
BRANCH  23  24
HETATM   24  C14 UNL     1      -2.499 -18.747 -31.425  1.00  0.00     0.047 C
BRANCH  24  25
HETATM   25  C15 UNL     1      -3.779 -18.191 -30.858  1.00  0.00     0.231 C
BRANCH  25  26
HETATM   26  N11 UNL     1      -3.586 -17.581 -29.562  1.00  0.00    -0.079 N
ATOM     27 3H11 UNL     1      -3.141 -16.667 -29.648  1.00  0.00     0.274 HD
ATOM     28 2H11 UNL     1      -4.475 -17.291 -29.155  1.00  0.00     0.274 HD
ATOM     29 1H11 UNL     1      -3.069 -18.184 -28.922  1.00  0.00     0.274 HD
ENDBRANCH  25  26
ENDBRANCH  24  25
ENDBRANCH  23  24
ENDBRANCH  20  23
ENDBRANCH  12  13
BRANCH   1  30
HETATM   30  S1  UNL     1       5.802 -23.865 -27.262  1.00  0.00    -0.079 SA
BRANCH  30  31
HETATM   31  C5  UNL     1       7.493 -23.837 -27.690  1.00  0.00     0.052 C
BRANCH  31  32
HETATM   32  C4  UNL     1       8.594 -24.349 -26.939  1.00  0.00     0.005 C
BRANCH  32  33
HETATM   33  C3  UNL     1       9.756 -23.985 -26.534  1.00  0.00    -0.005 C
BRANCH  33  34
HETATM   34  C2  UNL     1      10.330 -22.662 -26.256  1.00  0.00     0.181 C
BRANCH  34  35
HETATM   35  N4  UNL     1      10.962 -22.604 -24.947  1.00  0.00    -0.236 N
HETATM   36  N3  UNL     1      10.643 -23.295 -23.858  1.00  0.00    -0.236 N
HETATM   37  N2  UNL     1      11.435 -22.979 -22.850  1.00  0.00    -0.266 N
ATOM     38  H3  UNL     1       9.888 -23.978 -23.808  1.00  0.00     0.208 HD
HETATM   39  C1  UNL     1      12.310 -22.051 -23.270  1.00  0.00     0.186 A
ATOM     40  H2  UNL     1      11.389 -23.374 -21.910  1.00  0.00     0.190 HD
HETATM   41  C17 UNL     1      11.991 -21.826 -24.611  1.00  0.00     0.308 A
HETATM   42  O3  UNL     1      12.625 -21.000 -25.319  1.00  0.00    -0.262 OA
BRANCH  39  43
HETATM   43  N1  UNL     1      13.253 -21.483 -22.576  1.00  0.00    -0.380 N
ATOM     44  H12 UNL     1      13.290 -21.364 -21.563  1.00  0.00     0.158 HD
ATOM     45  H11 UNL     1      14.114 -21.063 -22.927  1.00  0.00     0.158 HD
ENDBRANCH  39  43
ENDBRANCH  34  35
ENDBRANCH  33  34
ENDBRANCH  32  33
ENDBRANCH  31  32
ENDBRANCH  30  31
ENDBRANCH   1  30
TORSDOF 12
ENDMDL