MODEL 1
REMARK VINA RESULT: -9.632450013      0.000      0.000
REMARK  12 active torsions:
REMARK  status: ('A' for Active; 'I' for Inactive)
REMARK    1  A    between atoms: C3_5  and  N2_6
REMARK    2  A    between atoms: C4_11  and  N4_12
REMARK    3  A    between atoms: C5_15  and  N5_16
REMARK    4  A    between atoms: C7_18  and  C8_19
REMARK    5  A    between atoms: C9_22  and  C10_23
REMARK    6  A    between atoms: N8_27  and  C12_28
REMARK    7  A    between atoms: C12_28  and  C13_29
REMARK    8  A    between atoms: C13_29  and  O2_30
REMARK    9  A    between atoms: C13_29  and  N9_32
REMARK   10  A    between atoms: N9_32  and  C14_34
REMARK   11  A    between atoms: C15_37  and  N11_38
REMARK   12  A    between atoms: C18_43  and  N13_44
ROOT
HETATM    1  C8  UNL     1       4.248 -22.725 -28.098  1.00  0.00     0.138 A
HETATM    2  N6  UNL     1       4.125 -21.729 -27.173  1.00  0.00    -0.335 N
ATOM      3  H6  UNL     1       3.261 -21.220 -26.986  1.00  0.00     0.168 HD
HETATM    4  C9  UNL     1       5.290 -21.506 -26.543  1.00  0.00     0.115 A
HETATM    5  C11 UNL     1       6.161 -22.409 -27.112  1.00  0.00     0.128 A
HETATM    6  N8  UNL     1       5.520 -23.144 -28.056  1.00  0.00    -0.331 N
ENDROOT
BRANCH   1   7
HETATM    7  C7  UNL     1       3.123 -23.212 -28.918  1.00  0.00     0.107 A
HETATM    8  C6  UNL     1       2.382 -22.394 -29.775  1.00  0.00     0.149 A
HETATM    9  N5  UNL     1       1.425 -23.123 -30.368  1.00  0.00    -0.243 N
HETATM   10  N15 UNL     1       1.556 -24.353 -29.904  1.00  0.00    -0.015 NA
HETATM   11  N14 UNL     1       2.561 -24.397 -29.048  1.00  0.00    -0.279 N
ATOM     12  H14 UNL     1       2.862 -25.237 -28.554  1.00  0.00     0.184 HD
BRANCH   9  13
HETATM   13  C5  UNL     1       0.503 -22.587 -31.285  1.00  0.00     0.120 A
HETATM   14  C2  UNL     1      -0.377 -21.591 -30.940  1.00  0.00     0.054 A
HETATM   15  C1  UNL     1      -0.393 -21.045 -29.571  1.00  0.00     0.071 C
HETATM   16  N1  UNL     1      -1.262 -21.084 -31.850  1.00  0.00    -0.194 N
HETATM   17  C3  UNL     1      -1.261 -21.573 -33.096  1.00  0.00     0.677 A
ATOM     18  H1  UNL     1      -1.912 -20.344 -31.584  1.00  0.00     0.184 HD
HETATM   19  N3  UNL     1      -0.420 -22.546 -33.480  1.00  0.00    -0.175 N
HETATM   20  C4  UNL     1       0.471 -23.060 -32.572  1.00  0.00     0.145 A
ATOM     21  H3  UNL     1      -0.444 -22.899 -34.437  1.00  0.00     0.186 HD
BRANCH  17  22
HETATM   22  N2  UNL     1      -2.098 -21.088 -33.960  1.00  0.00    -0.234 N
ATOM     23  H22 UNL     1      -1.809 -20.297 -34.537  1.00  0.00     0.174 HD
ATOM     24  H21 UNL     1      -3.025 -21.507 -34.038  1.00  0.00     0.174 HD
ENDBRANCH  17  22
BRANCH  20  25
HETATM   25  N4  UNL     1       1.252 -23.994 -32.998  1.00  0.00    -0.383 N
ATOM     26  H42 UNL     1       1.602 -24.032 -33.955  1.00  0.00     0.157 HD
ATOM     27  H41 UNL     1       1.515 -24.710 -32.322  1.00  0.00     0.157 HD
ENDBRANCH  20  25
ENDBRANCH   9  13
ENDBRANCH   1   7
BRANCH   6  28
HETATM   28  C12 UNL     1       6.179 -24.153 -28.874  1.00  0.00     0.214 C
BRANCH  28  29
HETATM   29  C13 UNL     1       7.576 -23.797 -29.172  1.00  0.00     0.135 C
BRANCH  29  30
HETATM   30  O2  UNL     1       7.691 -22.882 -30.103  1.00  0.00    -0.348 OA
ATOM     31  H2  UNL     1       8.352 -22.228 -29.907  1.00  0.00     0.219 HD
ENDBRANCH  29  30
BRANCH  29  32
HETATM   32  N9  UNL     1       8.776 -24.242 -28.665  1.00  0.00    -0.322 N
ATOM     33  H9  UNL     1       9.308 -24.803 -29.329  1.00  0.00     0.169 HD
BRANCH  32  34
HETATM   34  C14 UNL     1       9.425 -24.088 -27.425  1.00  0.00     0.174 A
HETATM   35  N10 UNL     1       9.962 -23.006 -26.882  1.00  0.00    -0.172 N
HETATM   36  C15 UNL     1      10.509 -23.258 -25.665  1.00  0.00     0.683 A
ATOM     37  H10 UNL     1       9.965 -22.089 -27.328  1.00  0.00     0.186 HD
HETATM   38  N12 UNL     1      10.310 -24.537 -25.439  1.00  0.00    -0.167 N
HETATM   39  C18 UNL     1       9.654 -25.095 -26.475  1.00  0.00     0.233 A
ATOM     40  H12 UNL     1      10.609 -25.035 -24.600  1.00  0.00     0.186 HD
BRANCH  36  41
HETATM   41  N11 UNL     1      11.150 -22.301 -24.824  1.00  0.00    -0.226 N
HETATM   42  C16 UNL     1      10.798 -22.199 -23.419  1.00  0.00     0.168 C
HETATM   43  C17 UNL     1      12.163 -21.403 -25.331  1.00  0.00     0.168 C
ENDBRANCH  36  41
BRANCH  39  44
HETATM   44  N13 UNL     1       9.282 -26.453 -26.562  1.00  0.00    -0.093 N
HETATM   45  O3  UNL     1       9.974 -27.377 -26.156  1.00  0.00    -0.530 OA
HETATM   46  O4  UNL     1       8.079 -26.766 -27.153  1.00  0.00    -0.530 OA
ENDBRANCH  39  44
ENDBRANCH  32  34
ENDBRANCH  29  32
ENDBRANCH  28  29
ENDBRANCH   6  28
BRANCH   4  47
HETATM   47  C10 UNL     1       5.597 -20.537 -25.508  1.00  0.00     0.282 C
HETATM   48  N7  UNL     1       6.925 -20.410 -25.057  1.00  0.00    -0.056 NA
HETATM   49  O1  UNL     1       4.700 -19.831 -25.026  1.00  0.00    -0.269 OA
ENDBRANCH   4  47
TORSDOF 12
ENDMDL