MODEL 2
REMARK VINA RESULT: -9.319781196      2.229      5.572
REMARK  12 active torsions:
REMARK  status: ('A' for Active; 'I' for Inactive)
REMARK    1  A    between atoms: O1_2  and  C2_3
REMARK    2  A    between atoms: C2_3  and  C4_5
REMARK    3  A    between atoms: C2_3  and  O3_11
REMARK    4  A    between atoms: C4_5  and  N1_6
REMARK       I    between atoms: N1_6  and  C5_8
REMARK    5  A    between atoms: O3_11  and  C7_12
REMARK    6  A    between atoms: C7_12  and  C8_14
REMARK    7  A    between atoms: C8_14  and  S1_15
REMARK    8  A    between atoms: S1_15  and  C9_16
REMARK    9  A    between atoms: C12_21  and  N3_22
REMARK   10  A    between atoms: C15_29  and  O5_30
REMARK   11  A    between atoms: N8_38  and  C17_39
REMARK   12  A    between atoms: C18_45  and  N11_46
ROOT
HETATM    1  C9  UNL     1       3.445 -23.050 -29.916  1.00  0.00     0.169 A
HETATM    2  N2  UNL     1       4.217 -23.903 -30.547  1.00  0.00    -0.332 N
ATOM      3  H2  UNL     1       4.805 -24.524 -29.991  1.00  0.00     0.168 HD
HETATM    4  C10 UNL     1       4.280 -24.008 -31.959  1.00  0.00     0.085 A
HETATM    5  C11 UNL     1       3.479 -23.156 -32.701  1.00  0.00     0.120 A
HETATM    6  C12 UNL     1       3.547 -23.268 -34.071  1.00  0.00     0.131 A
HETATM    7  N4  UNL     1       4.375 -24.185 -34.663  1.00  0.00    -0.325 N
ATOM      8  H4  UNL     1       4.398 -24.239 -35.681  1.00  0.00     0.169 HD
HETATM    9  C13 UNL     1       5.155 -25.015 -33.957  1.00  0.00     0.140 A
HETATM   10  C14 UNL     1       5.106 -24.923 -32.583  1.00  0.00     0.091 A
HETATM   11  C15 UNL     1       5.993 -25.876 -32.125  1.00  0.00     0.171 A
HETATM   12  N5  UNL     1       6.526 -26.488 -33.212  1.00  0.00    -0.276 N
ATOM     13  H5  UNL     1       7.216 -27.239 -33.173  1.00  0.00     0.189 HD
HETATM   14  N6  UNL     1       6.033 -25.982 -34.329  1.00  0.00    -0.278 N
HETATM   15  C16 UNL     1       6.370 -26.392 -35.701  1.00  0.00     0.179 C
HETATM   16  N7  UNL     1       2.636 -22.224 -32.023  1.00  0.00    -0.284 N
ATOM     17  H7  UNL     1       2.046 -21.597 -32.570  1.00  0.00     0.188 HD
HETATM   18  N8  UNL     1       2.600 -22.150 -30.617  1.00  0.00    -0.211 N
ENDROOT
BRANCH   1  19
HETATM   19  S1  UNL     1       3.436 -22.995 -28.131  1.00  0.00    -0.082 SA
BRANCH  19  20
HETATM   20  C8  UNL     1       5.066 -22.484 -27.539  1.00  0.00     0.193 C
BRANCH  20  21
HETATM   21  C7  UNL     1       5.935 -23.692 -27.434  1.00  0.00     0.271 C
HETATM   22  O4  UNL     1       5.935 -24.340 -26.351  1.00  0.00    -0.264 OA
BRANCH  21  23
HETATM   23  O3  UNL     1       6.741 -24.147 -28.445  1.00  0.00    -0.281 OA
BRANCH  23  24
HETATM   24  C2  UNL     1       8.142 -23.805 -28.460  1.00  0.00     0.184 C
HETATM   25  C3  UNL     1       8.402 -23.266 -29.880  1.00  0.00     0.081 C
BRANCH  24  26
HETATM   26  O1  UNL     1       8.429 -22.811 -27.604  1.00  0.00    -0.358 OA
HETATM   27  C1  UNL     1       9.528 -22.769 -26.843  1.00  0.00     0.205 C
ENDBRANCH  24  26
BRANCH  24  28
HETATM   28  C4  UNL     1       8.910 -25.076 -28.378  1.00  0.00     0.191 C
BRANCH  28  29
HETATM   29  N1  UNL     1       8.375 -26.230 -28.989  1.00  0.00    -0.356 N
HETATM   30  C5  UNL     1       8.169 -27.380 -28.142  1.00  0.00     0.213 C
HETATM   31  C6  UNL     1       7.618 -28.653 -28.629  1.00  0.00     0.117 C
HETATM   32  O2  UNL     1       8.472 -27.315 -26.909  1.00  0.00    -0.274 OA
ATOM     33  H1  UNL     1       8.145 -26.250 -29.982  1.00  0.00     0.162 HD
ENDBRANCH  28  29
ENDBRANCH  24  28
ENDBRANCH  23  24
ENDBRANCH  21  23
ENDBRANCH  20  21
ENDBRANCH  19  20
ENDBRANCH   1  19
BRANCH  18  34
HETATM   34  C17 UNL     1       1.749 -21.216 -29.955  1.00  0.00     0.197 A
HETATM   35  N9  UNL     1       0.496 -21.344 -29.501  1.00  0.00    -0.220 N
HETATM   36  O6  UNL     1       0.123 -20.217 -28.967  1.00  0.00    -0.153 OA
ATOM     37  H9  UNL     1      -0.074 -22.188 -29.563  1.00  0.00     0.198 HD
HETATM   38  N10 UNL     1       1.060 -19.339 -29.038  1.00  0.00    -0.222 N
HETATM   39  C18 UNL     1       2.095 -19.903 -29.643  1.00  0.00     0.169 A
ATOM     40  H10 UNL     1       1.014 -18.381 -28.691  1.00  0.00     0.198 HD
BRANCH  39  41
HETATM   41  N11 UNL     1       3.252 -19.399 -29.931  1.00  0.00    -0.381 N
ATOM     42 2H11 UNL     1       3.747 -19.384 -30.823  1.00  0.00     0.157 HD
ATOM     43 1H11 UNL     1       3.833 -18.926 -29.239  1.00  0.00     0.157 HD
ENDBRANCH  39  41
ENDBRANCH  18  34
BRANCH   6  44
HETATM   44  N3  UNL     1       2.831 -22.507 -34.801  1.00  0.00    -0.383 N
ATOM     45  H32 UNL     1       2.613 -21.564 -34.478  1.00  0.00     0.157 HD
ATOM     46  H31 UNL     1       2.484 -22.849 -35.697  1.00  0.00     0.157 HD
ENDBRANCH   6  44
BRANCH  11  47
HETATM   47  O5  UNL     1       6.238 -26.106 -30.796  1.00  0.00    -0.344 OA
ATOM     48  H5  UNL     1       6.994 -26.586 -30.478  1.00  0.00     0.219 HD
ENDBRANCH  11  47
TORSDOF 12
ENDMDL