MODEL 3
REMARK VINA RESULT: -9.145839409      2.385      3.003
REMARK  11 active torsions:
REMARK  status: ('A' for Active; 'I' for Inactive)
REMARK    1  A    between atoms: N1_1  and  C1_4
REMARK    2  A    between atoms: C2_7  and  C3_8
REMARK    3  A    between atoms: C3_8  and  C4_9
REMARK    4  A    between atoms: C5_14  and  S1_15
REMARK    5  A    between atoms: S1_15  and  C6_16
REMARK    6  A    between atoms: C6_16  and  C7_17
REMARK    7  A    between atoms: C7_17  and  S2_18
REMARK    8  A    between atoms: S2_18  and  C8_19
REMARK    9  A    between atoms: C10_25  and  N7_26
REMARK   10  A    between atoms: N8_34  and  N9_35
REMARK       I    between atoms: N9_35  and  C13_37
REMARK   11  A    between atoms: C13_37  and  C14_39
ROOT
HETATM    1  C4  UNL     1       2.463 -22.175 -33.371  1.00  0.00     0.127 A
HETATM    2  N3  UNL     1       2.614 -22.493 -34.650  1.00  0.00    -0.285 N
ATOM      3  H3  UNL     1       2.195 -21.979 -35.424  1.00  0.00     0.188 HD
HETATM    4  N4  UNL     1       3.368 -23.545 -34.789  1.00  0.00    -0.277 N
ATOM      5  H4  UNL     1       3.633 -23.989 -35.667  1.00  0.00     0.189 HD
HETATM    6  C5  UNL     1       3.741 -23.948 -33.521  1.00  0.00     0.182 A
HETATM    7  N8  UNL     1       3.179 -23.105 -32.650  1.00  0.00    -0.215 N
ENDROOT
BRANCH   6   8
HETATM    8  S1  UNL     1       4.819 -25.362 -33.287  1.00  0.00    -0.090 SA
BRANCH   8   9
HETATM    9  C6  UNL     1       6.521 -24.896 -33.719  1.00  0.00     0.093 C
BRANCH   9  10
HETATM   10  C7  UNL     1       7.393 -24.919 -32.515  1.00  0.00     0.091 C
BRANCH  10  11
HETATM   11  S2  UNL     1       6.457 -24.651 -31.007  1.00  0.00    -0.105 SA
BRANCH  11  12
HETATM   12  C8  UNL     1       7.603 -24.458 -29.646  1.00  0.00     0.148 A
HETATM   13  N5  UNL     1       7.698 -25.424 -28.738  1.00  0.00    -0.329 N
HETATM   14  C9  UNL     1       8.565 -25.282 -27.674  1.00  0.00     0.150 A
ATOM     15  H5  UNL     1       7.131 -26.267 -28.827  1.00  0.00     0.168 HD
HETATM   16  N6  UNL     1       8.771 -26.134 -26.704  1.00  0.00    -0.320 N
HETATM   17  C11 UNL     1       9.270 -24.111 -27.661  1.00  0.00     0.168 A
HETATM   18  C10 UNL     1       9.653 -25.820 -25.760  1.00  0.00     0.146 A
ATOM     19  H6  UNL     1       8.267 -27.020 -26.672  1.00  0.00     0.169 HD
HETATM   20  S3  UNL     1      10.210 -24.284 -26.243  1.00  0.00    -0.025 SA
HETATM   21  O1  UNL     1       9.149 -23.160 -28.593  1.00  0.00    -0.262 OA
HETATM   22  C12 UNL     1       8.324 -23.283 -29.615  1.00  0.00     0.323 A
HETATM   23  O2  UNL     1       8.210 -22.389 -30.488  1.00  0.00    -0.257 OA
BRANCH  18  24
HETATM   24  N7  UNL     1      10.022 -26.510 -24.705  1.00  0.00    -0.380 N
ATOM     25  H72 UNL     1       9.434 -27.084 -24.101  1.00  0.00     0.158 HD
ATOM     26  H71 UNL     1      10.949 -26.607 -24.289  1.00  0.00     0.158 HD
ENDBRANCH  18  24
ENDBRANCH  11  12
ENDBRANCH  10  11
ENDBRANCH   9  10
ENDBRANCH   8   9
ENDBRANCH   6   8
BRANCH   7  27
HETATM   27  N9  UNL     1       3.248 -23.082 -31.284  1.00  0.00    -0.250 N
HETATM   28  C13 UNL     1       2.449 -23.619 -30.281  1.00  0.00     0.337 C
HETATM   29  O3  UNL     1       1.423 -24.262 -30.428  1.00  0.00    -0.259 OA
ATOM     30  H9  UNL     1       4.052 -22.565 -30.928  1.00  0.00     0.191 HD
BRANCH  28  31
HETATM   31  C14 UNL     1       2.852 -23.406 -28.864  1.00  0.00     0.271 C
HETATM   32  O4  UNL     1       2.101 -22.745 -28.131  1.00  0.00    -0.640 OA
HETATM   33  O5  UNL     1       4.029 -23.922 -28.362  1.00  0.00    -0.640 OA
ENDBRANCH  28  31
ENDBRANCH   7  27
BRANCH   1  34
HETATM   34  C3  UNL     1       1.686 -21.052 -32.856  1.00  0.00     0.158 C
BRANCH  34  35
HETATM   35  C2  UNL     1       0.217 -21.385 -32.900  1.00  0.00     0.119 A
HETATM   36  N2  UNL     1      -0.780 -20.692 -33.479  1.00  0.00    -0.178 N
HETATM   37  C1  UNL     1      -1.953 -21.331 -33.286  1.00  0.00     0.691 A
ATOM     38  H2  UNL     1      -0.667 -19.814 -33.986  1.00  0.00     0.185 HD
HETATM   39  N11 UNL     1      -1.673 -22.446 -32.572  1.00  0.00    -0.131 N
HETATM   40  N10 UNL     1      -0.359 -22.464 -32.347  1.00  0.00    -0.274 N
ATOM     41  H11 UNL     1      -2.346 -23.146 -32.261  1.00  0.00     0.205 HD
ATOM     42  H10 UNL     1       0.137 -23.192 -31.832  1.00  0.00     0.189 HD
BRANCH  37  43
HETATM   43  N1  UNL     1      -3.099 -20.924 -33.716  1.00  0.00    -0.233 N
ATOM     44  H12 UNL     1      -3.403 -19.968 -33.897  1.00  0.00     0.174 HD
ATOM     45  H11 UNL     1      -3.889 -21.529 -33.943  1.00  0.00     0.174 HD
ENDBRANCH  37  43
ENDBRANCH  34  35
ENDBRANCH   1  34
TORSDOF 11
ENDMDL