MODEL 3
REMARK VINA RESULT: -9.367139809      2.187      3.057
REMARK  14 active torsions:
REMARK  status: ('A' for Active; 'I' for Inactive)
REMARK    1  A    between atoms: C2_2  and  N1_3
REMARK    2  A    between atoms: C2_2  and  C16_37
REMARK    3  A    between atoms: N1_3  and  N2_5
REMARK    4  A    between atoms: N2_5  and  C3_7
REMARK    5  A    between atoms: C3_7  and  N3_8
REMARK    6  A    between atoms: C3_7  and  C11_24
REMARK    7  A    between atoms: N3_8  and  N4_10
REMARK    8  A    between atoms: N4_10  and  C4_12
REMARK    9  A    between atoms: C4_12  and  C5_13
REMARK   10  A    between atoms: C8_16  and  O1_17
REMARK   11  A    between atoms: C9_19  and  N5_20
REMARK   12  A    between atoms: C11_24  and  C12_26
REMARK   13  A    between atoms: N6_28  and  O5_29
REMARK   14  A    between atoms: C19_46  and  N11_47
ROOT
HETATM    1  C3  UNL     1       2.905 -22.826 -31.444  1.00  0.00     0.187 C
ENDROOT
BRANCH   1   2
HETATM    2  N2  UNL     1       3.639 -23.541 -32.270  1.00  0.00    -0.281 N
ATOM      3  H2  UNL     1       3.807 -23.159 -33.201  1.00  0.00     0.188 HD
BRANCH   2   4
HETATM    4  N1  UNL     1       4.191 -24.757 -31.978  1.00  0.00    -0.301 N
ATOM      5  H1  UNL     1       3.613 -25.490 -31.567  1.00  0.00     0.186 HD
BRANCH   4   6
HETATM    6  C2  UNL     1       5.462 -24.992 -32.222  1.00  0.00     0.053 C
HETATM    7  C1  UNL     1       5.803 -25.572 -33.529  1.00  0.00     0.072 C
BRANCH   6   8
HETATM    8  C16 UNL     1       6.437 -24.660 -31.192  1.00  0.00     0.115 A
HETATM    9  N8  UNL     1       6.954 -23.391 -31.137  1.00  0.00    -0.294 N
HETATM   10  N9  UNL     1       7.838 -23.057 -30.222  1.00  0.00    -0.289 N
ATOM     11  H8  UNL     1       6.649 -22.695 -31.817  1.00  0.00     0.187 HD
HETATM   12  C17 UNL     1       8.272 -23.954 -29.296  1.00  0.00     0.093 A
ATOM     13  H9  UNL     1       8.204 -22.105 -30.205  1.00  0.00     0.188 HD
HETATM   14  C18 UNL     1       9.280 -23.478 -28.297  1.00  0.00     0.090 C
HETATM   15  N10 UNL     1       7.796 -25.197 -29.316  1.00  0.00    -0.330 N
HETATM   16  C19 UNL     1       6.872 -25.559 -30.266  1.00  0.00     0.131 A
ATOM     17  H10 UNL     1       8.115 -25.879 -28.627  1.00  0.00     0.168 HD
BRANCH  16  18
HETATM   18  N11 UNL     1       6.472 -26.718 -30.230  1.00  0.00    -0.383 N
ATOM     19 2H11 UNL     1       5.564 -26.902 -30.656  1.00  0.00     0.157 HD
ATOM     20 1H11 UNL     1       7.007 -27.473 -29.799  1.00  0.00     0.157 HD
ENDBRANCH  16  18
ENDBRANCH   6   8
ENDBRANCH   4   6
ENDBRANCH   2   4
ENDBRANCH   1   2
BRANCH   1  21
HETATM   21  N3  UNL     1       2.241 -21.714 -31.990  1.00  0.00    -0.281 N
ATOM     22  H3  UNL     1       2.546 -21.344 -32.890  1.00  0.00     0.188 HD
BRANCH  21  23
HETATM   23  N4  UNL     1       1.176 -21.105 -31.331  1.00  0.00    -0.309 N
ATOM     24  H4  UNL     1       1.365 -20.442 -30.580  1.00  0.00     0.186 HD
BRANCH  23  25
HETATM   25  C4  UNL     1      -0.036 -21.365 -31.653  1.00  0.00     0.118 C
BRANCH  25  26
HETATM   26  C5  UNL     1      -1.052 -20.409 -31.236  1.00  0.00    -0.017 A
HETATM   27  C6  UNL     1      -2.030 -20.052 -32.135  1.00  0.00     0.016 A
HETATM   28  C7  UNL     1      -3.005 -19.157 -31.777  1.00  0.00     0.040 A
HETATM   29  C8  UNL     1      -3.043 -18.594 -30.532  1.00  0.00     0.098 A
HETATM   30  C9  UNL     1      -2.059 -18.948 -29.610  1.00  0.00     0.136 A
HETATM   31  C10 UNL     1      -1.078 -19.851 -29.980  1.00  0.00     0.052 A
BRANCH  29  32
HETATM   32  O1  UNL     1      -4.010 -17.692 -30.141  1.00  0.00    -0.358 OA
ATOM     33  H1  UNL     1      -4.645 -17.874 -29.459  1.00  0.00     0.217 HD
ENDBRANCH  29  32
BRANCH  30  34
HETATM   34  N5  UNL     1      -2.040 -18.399 -28.296  1.00  0.00    -0.113 N
HETATM   35  O2  UNL     1      -2.348 -17.208 -28.047  1.00  0.00    -0.532 OA
HETATM   36  O3  UNL     1      -1.674 -19.176 -27.208  1.00  0.00    -0.532 OA
ENDBRANCH  30  34
ENDBRANCH  25  26
ENDBRANCH  23  25
ENDBRANCH  21  23
ENDBRANCH   1  21
BRANCH   1  37
HETATM   37  C11 UNL     1       2.806 -23.224 -30.077  1.00  0.00     0.235 C
HETATM   38  O4  UNL     1       1.821 -24.025 -29.813  1.00  0.00    -0.283 OA
BRANCH  37  39
HETATM   39  C12 UNL     1       3.643 -22.855 -28.972  1.00  0.00     0.104 A
HETATM   40  C13 UNL     1       4.528 -23.666 -28.327  1.00  0.00     0.149 A
HETATM   41  N6  UNL     1       5.263 -23.220 -27.265  1.00  0.00    -0.183 N
HETATM   42  C14 UNL     1       5.147 -21.970 -26.809  1.00  0.00     0.353 A
HETATM   43  O6  UNL     1       5.825 -21.563 -25.831  1.00  0.00    -0.244 OA
HETATM   44  N7  UNL     1       4.287 -21.133 -27.411  1.00  0.00    -0.273 N
HETATM   45  C15 UNL     1       3.559 -21.549 -28.450  1.00  0.00     0.265 A
ATOM     46  H7  UNL     1       4.188 -20.177 -27.072  1.00  0.00     0.173 HD
HETATM   47  O7  UNL     1       2.763 -20.744 -28.992  1.00  0.00    -0.267 OA
BRANCH  41  48
HETATM   48  O5  UNL     1       6.154 -24.054 -26.625  1.00  0.00    -0.279 OA
ATOM     49  H5  UNL     1       6.142 -24.144 -25.680  1.00  0.00     0.245 HD
ENDBRANCH  41  48
ENDBRANCH  37  39
ENDBRANCH   1  37
TORSDOF 14
ENDMDL