MODEL 1
REMARK VINA RESULT: -8.747142323      0.000      0.000
REMARK  11 active torsions:
REMARK  status: ('A' for Active; 'I' for Inactive)
REMARK    1  A    between atoms: O1_2  and  C2_3
REMARK    2  A    between atoms: C2_3  and  O2_4
REMARK    3  A    between atoms: O2_4  and  N1_5
REMARK    4  A    between atoms: N1_5  and  C3_6
REMARK    5  A    between atoms: C3_6  and  C4_7
REMARK    6  A    between atoms: C4_7  and  N2_8
REMARK    7  A    between atoms: C6_11  and  C7_12
REMARK    8  A    between atoms: C10_22  and  C11_23
REMARK    9  A    between atoms: C12_24  and  C13_25
REMARK   10  A    between atoms: N10_36  and  C16_38
REMARK   11  A    between atoms: C16_38  and  C18_40
ROOT
HETATM    1  N2  UNL     1       2.294 -20.797 -29.651  1.00  0.00    -0.318 N
HETATM    2  C5  UNL     1       1.174 -20.110 -29.441  1.00  0.00     0.136 A
HETATM    3  N3  UNL     1       1.236 -19.090 -28.442  1.00  0.00    -0.081 NA
HETATM    4  C6  UNL     1       0.010 -20.339 -30.121  1.00  0.00     0.077 A
HETATM    5  C9  UNL     1       0.040 -21.339 -31.062  1.00  0.00     0.086 A
HETATM    6  N6  UNL     1      -1.141 -21.627 -31.808  1.00  0.00    -0.100 NA
HETATM    7  C10 UNL     1       1.173 -22.060 -31.300  1.00  0.00     0.087 A
HETATM    8  C15 UNL     1       2.331 -21.818 -30.608  1.00  0.00     0.126 A
HETATM    9  N10 UNL     1       3.369 -22.412 -30.761  1.00  0.00    -0.365 N
ATOM     10  H10 UNL     1       4.024 -21.992 -30.102  1.00  0.00     0.162 HD
ENDROOT
BRANCH   7  11
HETATM   11  C11 UNL     1       1.109 -23.084 -32.303  1.00  0.00    -0.054 C
HETATM   12  C12 UNL     1       1.093 -23.981 -33.142  1.00  0.00    -0.037 C
BRANCH  12  13
HETATM   13  C13 UNL     1       1.100 -25.034 -34.114  1.00  0.00     0.155 A
HETATM   14  N7  UNL     1       0.326 -25.150 -35.204  1.00  0.00    -0.229 N
HETATM   15  O5  UNL     1       0.611 -26.236 -35.850  1.00  0.00    -0.154 OA
ATOM     16  H7  UNL     1      -0.388 -24.477 -35.484  1.00  0.00     0.197 HD
HETATM   17  N8  UNL     1       1.553 -26.890 -35.263  1.00  0.00    -0.223 N
HETATM   18  C14 UNL     1       1.919 -26.182 -34.142  1.00  0.00     0.159 A
ATOM     19  H8  UNL     1       1.954 -27.774 -35.573  1.00  0.00     0.198 HD
HETATM   20  N9  UNL     1       2.778 -26.485 -33.330  1.00  0.00    -0.382 N
ATOM     21  H92 UNL     1       3.050 -25.960 -32.499  1.00  0.00     0.157 HD
ATOM     22  H91 UNL     1       3.370 -27.315 -33.351  1.00  0.00     0.157 HD
ENDBRANCH  12  13
ENDBRANCH   7  11
BRANCH   4  23
HETATM   23  C7  UNL     1      -1.240 -19.609 -29.922  1.00  0.00     0.145 A
HETATM   24  N4  UNL     1      -2.059 -19.181 -30.931  1.00  0.00    -0.285 N
HETATM   25  C8  UNL     1      -3.118 -18.549 -30.402  1.00  0.00     0.388 A
ATOM     26  H4  UNL     1      -1.891 -19.319 -31.928  1.00  0.00     0.172 HD
HETATM   27  O3  UNL     1      -4.037 -18.050 -31.110  1.00  0.00    -0.236 OA
HETATM   28  O4  UNL     1      -2.981 -18.574 -29.117  1.00  0.00    -0.179 OA
HETATM   29  N5  UNL     1      -1.859 -19.206 -28.810  1.00  0.00    -0.239 N
ATOM     30  H5  UNL     1      -1.517 -19.362 -27.862  1.00  0.00     0.196 HD
ENDBRANCH   4  23
BRANCH   1  31
HETATM   31  C4  UNL     1       3.505 -20.548 -28.933  1.00  0.00     0.150 C
BRANCH  31  32
HETATM   32  C3  UNL     1       3.659 -21.530 -27.764  1.00  0.00     0.163 C
BRANCH  32  33
HETATM   33  N1  UNL     1       4.708 -21.030 -26.902  1.00  0.00    -0.097 NA
BRANCH  33  34
HETATM   34  O2  UNL     1       5.589 -21.961 -26.518  1.00  0.00    -0.261 OA
BRANCH  34  35
HETATM   35  C2  UNL     1       5.394 -23.195 -27.112  1.00  0.00     0.363 C
BRANCH  35  36
HETATM   36  O1  UNL     1       6.201 -24.173 -26.486  1.00  0.00    -0.370 OA
HETATM   37  C1  UNL     1       7.360 -24.371 -27.258  1.00  0.00     0.204 C
ENDBRANCH  35  36
ENDBRANCH  34  35
ENDBRANCH  33  34
ENDBRANCH  32  33
ENDBRANCH  31  32
ENDBRANCH   1  31
BRANCH   9  38
HETATM   38  C16 UNL     1       4.070 -23.376 -31.399  1.00  0.00     0.138 C
HETATM   39  C17 UNL     1       4.291 -23.123 -32.902  1.00  0.00     0.039 C
BRANCH  38  40
HETATM   40  C18 UNL     1       5.497 -23.526 -30.874  1.00  0.00     0.113 C
HETATM   41  N11 UNL     1       6.249 -22.430 -30.422  1.00  0.00    -0.092 NA
HETATM   42  S1  UNL     1       6.155 -25.006 -30.834  1.00  0.00    -0.067 SA
ENDBRANCH  38  40
ENDBRANCH   9  38
TORSDOF 11
ENDMDL