MODEL 4
REMARK VINA RESULT: -8.699108290      2.721      5.121
REMARK  10 active torsions:
REMARK  status: ('A' for Active; 'I' for Inactive)
REMARK    1  A    between atoms: C2_9  and  S1_10
REMARK    2  A    between atoms: S1_10  and  C3_11
REMARK    3  A    between atoms: C3_11  and  C4_12
REMARK    4  A    between atoms: C4_12  and  C5_13
REMARK    5  A    between atoms: C5_13  and  C6_14
REMARK    6  A    between atoms: C6_14  and  N5_15
REMARK    7  A    between atoms: C6_14  and  C7_19
REMARK       I    between atoms: C7_19  and  N6_21
REMARK       I    between atoms: N6_21  and  C8_23
REMARK       I    between atoms: C8_23  and  N7_24
REMARK       I    between atoms: C8_23  and  N8_28
REMARK    8  A    between atoms: N9_32  and  N10_34
REMARK    9  A    between atoms: C9_35  and  C10_36
REMARK   10  A    between atoms: C14_42  and  N12_43
ROOT
HETATM    1  C4  UNL     1       8.462 -26.277 -30.523  1.00  0.00     0.016 C
HETATM    2  N9  UNL     1       8.270 -27.428 -31.078  1.00  0.00    -0.297 N
ATOM      3  H9  UNL     1       9.075 -27.894 -31.496  1.00  0.00     0.187 HD
ENDROOT
BRANCH   1   4
HETATM    4  C3  UNL     1       9.822 -25.717 -30.523  1.00  0.00     0.136 C
BRANCH   4   5
HETATM    5  S1  UNL     1      10.191 -24.725 -29.063  1.00  0.00    -0.085 SA
BRANCH   5   6
HETATM    6  C2  UNL     1      10.829 -25.672 -27.726  1.00  0.00     0.178 A
HETATM    7  N1  UNL     1      10.059 -26.020 -26.652  1.00  0.00    -0.259 N
HETATM    8  C1  UNL     1       8.666 -25.709 -26.432  1.00  0.00     0.181 C
HETATM    9  N2  UNL     1      10.792 -26.710 -25.808  1.00  0.00    -0.224 N
HETATM   10  N3  UNL     1      12.011 -26.816 -26.304  1.00  0.00    -0.226 N
ATOM     11  H2  UNL     1      10.474 -27.099 -24.920  1.00  0.00     0.210 HD
HETATM   12  N4  UNL     1      12.024 -26.180 -27.472  1.00  0.00    -0.263 N
ATOM     13  H3  UNL     1      12.798 -27.297 -25.870  1.00  0.00     0.210 HD
ATOM     14  H4  UNL     1      12.837 -26.098 -28.084  1.00  0.00     0.190 HD
ENDBRANCH   5   6
ENDBRANCH   4   5
ENDBRANCH   1   4
BRANCH   1  15
HETATM   15  C5  UNL     1       7.342 -25.602 -29.880  1.00  0.00     0.097 C
BRANCH  15  16
HETATM   16  C6  UNL     1       6.674 -24.507 -30.621  1.00  0.00     0.280 C
BRANCH  16  17
HETATM   17  N5  UNL     1       7.402 -23.896 -31.681  1.00  0.00    -0.066 N
ATOM     18  H53 UNL     1       8.152 -24.519 -31.980  1.00  0.00     0.275 HD
ATOM     19  H52 UNL     1       6.824 -23.878 -32.521  1.00  0.00     0.275 HD
ATOM     20  H51 UNL     1       7.782 -22.964 -31.513  1.00  0.00     0.275 HD
ENDBRANCH  16  17
BRANCH  16  21
HETATM   21  C7  UNL     1       6.011 -23.482 -29.737  1.00  0.00     0.251 C
HETATM   22  O1  UNL     1       6.647 -22.935 -28.798  1.00  0.00    -0.271 OA
HETATM   23  N6  UNL     1       4.662 -23.098 -29.928  1.00  0.00    -0.310 N
HETATM   24  C8  UNL     1       4.058 -22.122 -29.073  1.00  0.00     0.482 C
ATOM     25  H6  UNL     1       4.117 -23.519 -30.680  1.00  0.00     0.166 HD
HETATM   26  N7  UNL     1       2.858 -22.587 -28.413  1.00  0.00    -0.033 N
HETATM   27  N8  UNL     1       3.670 -20.981 -29.910  1.00  0.00    -0.033 N
ATOM     28  H73 UNL     1       2.184 -22.934 -29.096  1.00  0.00     0.278 HD
ATOM     29  H72 UNL     1       3.041 -23.450 -27.900  1.00  0.00     0.278 HD
ATOM     30  H71 UNL     1       2.427 -21.892 -27.804  1.00  0.00     0.278 HD
ATOM     31  H83 UNL     1       4.446 -20.605 -30.455  1.00  0.00     0.278 HD
ATOM     32  H82 UNL     1       3.072 -21.247 -30.693  1.00  0.00     0.278 HD
ATOM     33  H81 UNL     1       3.239 -20.285 -29.301  1.00  0.00     0.278 HD
ENDBRANCH  16  21
ENDBRANCH  15  16
ENDBRANCH   1  15
BRANCH   2  34
HETATM   34  N10 UNL     1       7.027 -28.081 -31.146  1.00  0.00    -0.210 N
HETATM   35  C9  UNL     1       6.139 -27.950 -32.163  1.00  0.00     0.157 A
HETATM   36  N14 UNL     1       5.107 -28.770 -31.834  1.00  0.00    -0.281 N
HETATM   37  N15 UNL     1       5.355 -29.352 -30.700  1.00  0.00    -0.273 N
ATOM     38  H14 UNL     1       4.265 -28.908 -32.392  1.00  0.00     0.188 HD
HETATM   39  C17 UNL     1       6.567 -28.945 -30.221  1.00  0.00     0.214 A
ATOM     40  H15 UNL     1       4.736 -30.015 -30.236  1.00  0.00     0.189 HD
HETATM   41  S2  UNL     1       7.239 -29.426 -28.810  1.00  0.00    -0.037 SA
BRANCH  35  42
HETATM   42  C10 UNL     1       6.223 -27.125 -33.370  1.00  0.00     0.040 A
HETATM   43  C11 UNL     1       7.049 -27.207 -34.451  1.00  0.00     0.104 A
HETATM   44  N11 UNL     1       6.752 -26.240 -35.357  1.00  0.00    -0.364 N
HETATM   45  C12 UNL     1       5.720 -25.499 -34.886  1.00  0.00     0.048 A
ATOM     46  H11 UNL     1       7.229 -26.095 -36.247  1.00  0.00     0.165 HD
HETATM   47  C13 UNL     1       5.031 -24.418 -35.383  1.00  0.00     0.078 A
HETATM   48  C16 UNL     1       5.382 -26.045 -33.644  1.00  0.00     0.021 A
HETATM   49  C14 UNL     1       4.003 -23.854 -34.674  1.00  0.00     0.100 A
HETATM   50  N13 UNL     1       3.671 -24.365 -33.491  1.00  0.00    -0.352 N
HETATM   51  C15 UNL     1       4.336 -25.422 -32.994  1.00  0.00     0.104 A
ATOM     52  H13 UNL     1       2.907 -23.950 -32.958  1.00  0.00     0.166 HD
BRANCH  49  53
HETATM   53  N12 UNL     1       3.337 -22.823 -35.134  1.00  0.00    -0.385 N
ATOM     54 2H12 UNL     1       2.605 -22.973 -35.829  1.00  0.00     0.157 HD
ATOM     55 1H12 UNL     1       3.533 -21.875 -34.815  1.00  0.00     0.157 HD
ENDBRANCH  49  53
ENDBRANCH  35  42
ENDBRANCH   2  34
TORSDOF 10
ENDMDL