MODEL 2
REMARK VINA RESULT: -9.185750826      2.969      3.582
REMARK  10 active torsions:
REMARK  status: ('A' for Active; 'I' for Inactive)
REMARK       I    between atoms: C2_2  and  N1_4
REMARK    1  A    between atoms: N1_4  and  C3_6
REMARK    2  A    between atoms: C4_7  and  N2_8
REMARK    3  A    between atoms: N2_8  and  C5_9
REMARK    4  A    between atoms: C9_22  and  C10_23
REMARK    5  A    between atoms: C10_23  and  O5_25
REMARK    6  A    between atoms: C12_27  and  N6_28
REMARK       I    between atoms: N6_28  and  C13_30
REMARK    7  A    between atoms: C13_30  and  C14_32
REMARK    8  A    between atoms: C15_35  and  N8_36
REMARK    9  A    between atoms: N8_36  and  C16_38
REMARK   10  A    between atoms: C18_43  and  N10_44
ROOT
HETATM    1  C3  UNL     1       1.546 -22.510 -30.933  1.00  0.00     0.132 A
HETATM    2  C4  UNL     1       0.340 -22.130 -31.403  1.00  0.00     0.271 A
HETATM    3  O4  UNL     1      -0.077 -22.820 -32.480  1.00  0.00    -0.202 OA
HETATM    4  N5  UNL     1       0.576 -23.718 -33.007  1.00  0.00    -0.257 N
ATOM      5  H5  UNL     1       0.205 -24.192 -33.831  1.00  0.00     0.195 HD
HETATM    6  C9  UNL     1       1.851 -24.108 -32.480  1.00  0.00     0.090 A
HETATM    7  C12 UNL     1       2.418 -23.540 -31.398  1.00  0.00     0.095 A
ENDROOT
BRANCH   7   8
HETATM    8  N6  UNL     1       3.343 -23.858 -30.664  1.00  0.00    -0.316 N
HETATM    9  C13 UNL     1       4.730 -23.869 -30.644  1.00  0.00     0.297 C
HETATM   10  O6  UNL     1       5.340 -23.171 -29.771  1.00  0.00    -0.263 OA
ATOM     11  H6  UNL     1       2.979 -24.234 -29.789  1.00  0.00     0.169 HD
BRANCH   9  12
HETATM   12  C14 UNL     1       5.666 -24.593 -31.535  1.00  0.00     0.221 A
HETATM   13  N7  UNL     1       5.623 -25.877 -31.817  1.00  0.00    -0.315 N
HETATM   14  C15 UNL     1       6.633 -26.221 -32.619  1.00  0.00     0.163 A
ATOM     15  H7  UNL     1       4.914 -26.524 -31.468  1.00  0.00     0.169 HD
HETATM   16  C18 UNL     1       7.335 -25.052 -32.877  1.00  0.00     0.261 A
HETATM   17  O9  UNL     1       6.679 -24.116 -32.182  1.00  0.00    -0.263 OA
BRANCH  14  18
HETATM   18  N8  UNL     1       6.949 -27.528 -33.115  1.00  0.00    -0.344 N
ATOM     19  H8  UNL     1       6.899 -27.721 -34.115  1.00  0.00     0.163 HD
BRANCH  18  20
HETATM   20  C16 UNL     1       7.338 -28.571 -32.192  1.00  0.00     0.311 A
HETATM   21  C17 UNL     1       6.395 -29.383 -31.399  1.00  0.00     0.289 A
HETATM   22  N9  UNL     1       6.821 -29.908 -32.710  1.00  0.00    -0.049 N
ATOM     23  H92 UNL     1       6.349 -30.229 -33.555  1.00  0.00     0.279 HD
ATOM     24  H91 UNL     1       7.245 -30.773 -33.046  1.00  0.00     0.279 HD
ENDBRANCH  18  20
ENDBRANCH  14  18
BRANCH  16  25
HETATM   25  N10 UNL     1       8.478 -24.805 -33.621  1.00  0.00    -0.086 N
HETATM   26  O7  UNL     1       9.445 -25.620 -33.442  1.00  0.00    -0.530 OA
HETATM   27  O8  UNL     1       8.645 -23.762 -34.467  1.00  0.00    -0.530 OA
ENDBRANCH  16  25
ENDBRANCH   9  12
ENDBRANCH   7   8
BRANCH   1  28
HETATM   28  N1  UNL     1       2.245 -21.396 -30.297  1.00  0.00    -0.321 N
HETATM   29  C2  UNL     1       2.477 -21.381 -28.955  1.00  0.00     0.218 C
HETATM   30  C1  UNL     1       3.334 -20.379 -28.161  1.00  0.00     0.117 C
HETATM   31  O1  UNL     1       1.964 -22.281 -28.201  1.00  0.00    -0.274 OA
ATOM     32  H1  UNL     1       2.565 -20.614 -30.868  1.00  0.00     0.169 HD
ENDBRANCH   1  28
BRANCH   6  33
HETATM   33  C10 UNL     1       2.533 -25.126 -33.336  1.00  0.00     0.168 C
HETATM   34  C11 UNL     1       1.413 -25.654 -34.380  1.00  0.00     0.046 C
BRANCH  33  35
HETATM   35  O5  UNL     1       2.663 -26.322 -32.603  1.00  0.00    -0.390 OA
ATOM     36  H5  UNL     1       3.279 -26.889 -33.050  1.00  0.00     0.210 HD
ENDBRANCH  33  35
ENDBRANCH   6  33
BRANCH   2  37
HETATM   37  N2  UNL     1      -0.571 -21.180 -30.948  1.00  0.00    -0.358 NA
BRANCH  37  38
HETATM   38  C5  UNL     1      -1.426 -20.300 -30.501  1.00  0.00     0.191 A
HETATM   39  C6  UNL     1      -1.254 -19.701 -29.194  1.00  0.00     0.138 A
HETATM   40  C7  UNL     1      -1.968 -18.747 -28.677  1.00  0.00     0.253 A
HETATM   41  O2  UNL     1      -1.782 -18.234 -27.514  1.00  0.00    -0.268 OA
HETATM   42  N3  UNL     1      -3.017 -18.230 -29.399  1.00  0.00    -0.275 N
HETATM   43  C8  UNL     1      -3.233 -18.750 -30.604  1.00  0.00     0.329 A
ATOM     44  H3  UNL     1      -3.603 -17.483 -29.027  1.00  0.00     0.173 HD
HETATM   45  O3  UNL     1      -4.188 -18.321 -31.325  1.00  0.00    -0.247 OA
HETATM   46  N4  UNL     1      -2.494 -19.752 -31.178  1.00  0.00    -0.283 N
ATOM     47  H4  UNL     1      -2.734 -20.092 -32.108  1.00  0.00     0.173 HD
ENDBRANCH  37  38
ENDBRANCH   2  37
TORSDOF 10
ENDMDL