MODEL 1
REMARK VINA RESULT: -10.330407112      0.000      0.000
REMARK  9 active torsions:
REMARK  status: ('A' for Active; 'I' for Inactive)
REMARK    1  A    between atoms: C2_10  and  N4_11
REMARK    2  A    between atoms: C6_21  and  N8_22
REMARK       I    between atoms: N8_22  and  C7_23
REMARK    3  A    between atoms: C7_23  and  C8_25
REMARK    4  A    between atoms: C8_25  and  C9_26
REMARK    5  A    between atoms: C12_29  and  N9_30
REMARK    6  A    between atoms: N9_30  and  C13_32
REMARK    7  A    between atoms: C13_32  and  C14_33
REMARK    8  A    between atoms: C14_33  and  N10_34
REMARK    9  A    between atoms: C15_35  and  N11_36
ROOT
HETATM    1  N8  UNL     1       5.009 -22.596 -28.354  1.00  0.00    -0.368 NA
HETATM    2  C7  UNL     1       4.487 -21.856 -27.391  1.00  0.00     0.296 C
HETATM    3  O2  UNL     1       4.452 -22.050 -26.118  1.00  0.00    -0.257 OA
ENDROOT
BRANCH   1   4
HETATM    4  C6  UNL     1       5.553 -23.366 -29.356  1.00  0.00     0.144 A
HETATM    5  C5  UNL     1       4.760 -23.755 -30.464  1.00  0.00     0.133 A
HETATM    6  N7  UNL     1       5.239 -24.694 -31.277  1.00  0.00    -0.370 N
HETATM    7  C4  UNL     1       6.426 -25.287 -31.104  1.00  0.00     0.119 A
ATOM      8  H7  UNL     1       4.671 -24.977 -32.075  1.00  0.00     0.164 HD
HETATM    9  C3  UNL     1       7.243 -24.935 -30.032  1.00  0.00     0.084 A
HETATM   10  N6  UNL     1       8.457 -25.469 -29.869  1.00  0.00    -0.283 N
HETATM   11  C19 UNL     1       6.800 -23.974 -29.169  1.00  0.00     0.105 A
HETATM   12  N5  UNL     1       9.277 -25.086 -28.869  1.00  0.00    -0.231 N
ATOM     13  H6  UNL     1       8.774 -26.187 -30.520  1.00  0.00     0.188 HD
HETATM   14  N4  UNL     1       8.914 -24.163 -28.012  1.00  0.00    -0.183 N
ATOM     15  H5  UNL     1      10.194 -25.521 -28.779  1.00  0.00     0.209 HD
HETATM   16  C20 UNL     1       7.676 -23.607 -28.162  1.00  0.00     0.285 A
HETATM   17  O4  UNL     1       7.367 -22.736 -27.338  1.00  0.00    -0.265 OA
BRANCH  14  18
HETATM   18  C2  UNL     1       9.749 -23.719 -26.935  1.00  0.00     0.199 A
HETATM   19  C1  UNL     1      10.351 -24.404 -25.925  1.00  0.00     0.169 A
HETATM   20  N1  UNL     1      10.292 -25.650 -25.709  1.00  0.00    -0.381 N
HETATM   21  N2  UNL     1      11.066 -23.494 -25.152  1.00  0.00    -0.222 N
ATOM     22  H12 UNL     1      10.744 -26.163 -24.952  1.00  0.00     0.157 HD
ATOM     23  H11 UNL     1       9.768 -26.317 -26.276  1.00  0.00     0.157 HD
HETATM   24  O1  UNL     1      10.866 -22.327 -25.717  1.00  0.00    -0.153 OA
ATOM     25  H2  UNL     1      11.626 -23.693 -24.323  1.00  0.00     0.198 HD
HETATM   26  N3  UNL     1      10.109 -22.419 -26.750  1.00  0.00    -0.220 N
ATOM     27  H3  UNL     1       9.821 -21.638 -27.341  1.00  0.00     0.198 HD
ENDBRANCH  14  18
ENDBRANCH   1   4
BRANCH   2  28
HETATM   28  C8  UNL     1       3.801 -20.498 -27.706  1.00  0.00     0.157 C
BRANCH  28  29
HETATM   29  C9  UNL     1       2.713 -20.793 -28.682  1.00  0.00    -0.048 A
HETATM   30  C10 UNL     1       2.399 -19.762 -29.567  1.00  0.00     0.010 A
HETATM   31  C11 UNL     1       1.440 -19.896 -30.521  1.00  0.00     0.029 A
HETATM   32  C12 UNL     1       0.740 -21.095 -30.630  1.00  0.00     0.028 A
HETATM   33  C17 UNL     1       1.060 -22.100 -29.757  1.00  0.00     0.029 A
HETATM   34  C18 UNL     1       2.038 -21.973 -28.775  1.00  0.00     0.010 A
BRANCH  32  35
HETATM   35  N9  UNL     1      -0.280 -21.198 -31.588  1.00  0.00    -0.388 N
ATOM     36  H9  UNL     1      -0.226 -21.994 -32.223  1.00  0.00     0.159 HD
BRANCH  35  37
HETATM   37  C13 UNL     1      -1.388 -20.312 -31.773  1.00  0.00     0.141 C
BRANCH  37  38
HETATM   38  C14 UNL     1      -2.378 -20.548 -30.616  1.00  0.00     0.172 C
BRANCH  38  39
HETATM   39  N10 UNL     1      -2.719 -19.276 -30.011  1.00  0.00    -0.129 N
HETATM   40  C15 UNL     1      -2.184 -18.784 -28.893  1.00  0.00     0.697 A
HETATM   41  N12 UNL     1      -2.757 -17.585 -28.680  1.00  0.00    -0.128 N
HETATM   42  N13 UNL     1      -3.634 -17.328 -29.644  1.00  0.00    -0.236 N
ATOM     43  H12 UNL     1      -2.548 -16.966 -27.896  1.00  0.00     0.205 HD
HETATM   44  C16 UNL     1      -3.612 -18.373 -30.466  1.00  0.00     0.355 A
ATOM     45  H13 UNL     1      -4.211 -16.493 -29.734  1.00  0.00     0.192 HD
HETATM   46  O3  UNL     1      -4.274 -18.570 -31.515  1.00  0.00    -0.244 OA
BRANCH  40  47
HETATM   47  N11 UNL     1      -1.294 -19.332 -28.165  1.00  0.00    -0.233 N
ATOM     48 2H11 UNL     1      -0.594 -20.007 -28.475  1.00  0.00     0.174 HD
ATOM     49 1H11 UNL     1      -1.147 -19.191 -27.166  1.00  0.00     0.174 HD
ENDBRANCH  40  47
ENDBRANCH  38  39
ENDBRANCH  37  38
ENDBRANCH  35  37
ENDBRANCH  32  35
ENDBRANCH  28  29
ENDBRANCH   2  28
TORSDOF 9
ENDMDL