MODEL 3
REMARK VINA RESULT: -9.071490072      1.393      1.987
REMARK  11 active torsions:
REMARK  status: ('A' for Active; 'I' for Inactive)
REMARK    1  A    between atoms: C4_4  and  C5_5
REMARK    2  A    between atoms: C5_5  and  O1_6
REMARK    3  A    between atoms: C5_5  and  C35_45
REMARK    4  A    between atoms: O1_6  and  C6_7
REMARK    5  A    between atoms: C9_10  and  C11_12
REMARK    6  A    between atoms: C15_16  and  O2_17
REMARK    7  A    between atoms: O2_17  and  C16_18
REMARK    8  A    between atoms: C18_20  and  O3_21
REMARK    9  A    between atoms: C19_23  and  O4_24
REMARK   10  A    between atoms: C24_31  and  C32_41
REMARK   11  A    between atoms: C29_36  and  O6_37
ROOT
HETATM    1  C11 UNL     1      25.797   2.828  37.234  1.00  0.00     0.024 C
HETATM    2  C12 UNL     1      27.228   2.422  37.526  1.00  0.00     0.013 C
HETATM    3  C13 UNL     1      27.747   1.376  36.590  1.00  0.00    -0.002 C
HETATM    4  C14 UNL     1      29.230   1.308  36.580  1.00  0.00     0.037 C
HETATM    5  C15 UNL     1      29.949   2.239  35.669  1.00  0.00     0.125 C
HETATM    6  C22 UNL     1      29.137   3.140  34.814  1.00  0.00     0.038 C
HETATM    7  C23 UNL     1      27.743   2.747  34.503  1.00  0.00     0.010 C
HETATM    8  C24 UNL     1      26.754   3.903  34.465  1.00  0.00    -0.014 C
HETATM    9  C25 UNL     1      27.399   4.826  33.397  1.00  0.00     0.021 C
HETATM   10  C26 UNL     1      25.551   3.367  33.768  1.00  0.00    -0.020 C
HETATM   11  C27 UNL     1      25.053   2.181  34.080  1.00  0.00    -0.022 C
HETATM   12  C28 UNL     1      25.740   1.412  35.150  1.00  0.00     0.046 C
HETATM   13  C29 UNL     1      25.161   1.712  36.515  1.00  0.00     0.131 C
HETATM   14  C30 UNL     1      27.220   1.528  35.175  1.00  0.00    -0.026 C
HETATM   15  C31 UNL     1      27.791   0.302  34.437  1.00  0.00     0.016 C
ENDROOT
BRANCH   5  16
HETATM   16  O2  UNL     1      30.775   3.028  36.499  1.00  0.00    -0.356 OA
BRANCH  16  17
HETATM   17  C16 UNL     1      32.094   3.077  36.080  1.00  0.00     0.263 C
HETATM   18  C17 UNL     1      32.965   3.099  37.306  1.00  0.00     0.095 C
HETATM   19  C18 UNL     1      34.394   3.188  36.889  1.00  0.00     0.154 C
HETATM   20  C19 UNL     1      34.675   2.438  35.607  1.00  0.00     0.175 C
HETATM   21  C20 UNL     1      33.585   1.493  35.233  1.00  0.00     0.151 C
HETATM   22  C21 UNL     1      33.662   0.211  36.031  1.00  0.00     0.042 C
HETATM   23  O5  UNL     1      32.314   1.975  35.260  1.00  0.00    -0.354 OA
BRANCH  19  24
HETATM   24  O3  UNL     1      34.828   4.505  36.705  1.00  0.00    -0.393 OA
ATOM     25  H3  UNL     1      34.801   4.780  35.796  1.00  0.00     0.210 HD
ENDBRANCH  19  24
BRANCH  20  26
HETATM   26  O4  UNL     1      35.845   1.696  35.815  1.00  0.00    -0.390 OA
ATOM     27  H4  UNL     1      35.666   0.809  35.523  1.00  0.00     0.210 HD
ENDBRANCH  20  26
ENDBRANCH  16  17
ENDBRANCH   5  16
BRANCH   8  28
HETATM   28  C32 UNL     1      26.555   4.683  35.670  1.00  0.00     0.040 C
HETATM   29  C9  UNL     1      25.231   5.268  36.014  1.00  0.00    -0.029 C
HETATM   30  C8  UNL     1      24.949   6.643  35.503  1.00  0.00     0.013 C
HETATM   31  C10 UNL     1      25.343   5.518  37.554  1.00  0.00     0.016 C
HETATM   32  C7  UNL     1      26.044   7.649  35.673  1.00  0.00     0.037 C
HETATM   33  C6  UNL     1      27.348   7.057  35.117  1.00  0.00     0.154 C
HETATM   34  C33 UNL     1      27.562   5.780  35.850  1.00  0.00    -0.018 C
HETATM   35  C34 UNL     1      28.629   5.705  36.626  1.00  0.00     0.194 C
HETATM   36  F1  UNL     1      28.931   4.583  37.350  1.00  0.00    -0.219 F
BRANCH  33  37
HETATM   37  O1  UNL     1      28.376   7.947  35.234  1.00  0.00    -0.372 OA
BRANCH  37  38
HETATM   38  C5  UNL     1      28.036   9.140  35.870  1.00  0.00     0.148 C
BRANCH  38  39
HETATM   39  C4  UNL     1      28.888   9.455  37.012  1.00  0.00     0.007 C
HETATM   40  C2  UNL     1      28.698   9.184  38.283  1.00  0.00    -0.089 C
HETATM   41  C1  UNL     1      27.477   8.462  38.707  1.00  0.00     0.042 C
HETATM   42  C3  UNL     1      29.673   9.557  39.352  1.00  0.00     0.042 C
ENDBRANCH  38  39
BRANCH  38  43
HETATM   43  C35 UNL     1      28.086  10.291  34.853  1.00  0.00     0.010 C
HETATM   44  C36 UNL     1      28.680  11.505  35.485  1.00  0.00     0.012 C
HETATM   45  C37 UNL     1      28.788   9.864  33.590  1.00  0.00     0.012 C
ENDBRANCH  38  43
ENDBRANCH  37  38
ENDBRANCH  33  37
ENDBRANCH   8  28
BRANCH  13  46
HETATM   46  O6  UNL     1      23.777   1.677  36.493  1.00  0.00    -0.394 OA
ATOM     47  H6  UNL     1      23.360   0.834  36.629  1.00  0.00     0.210 HD
ENDBRANCH  13  46
TORSDOF 11
ENDMDL