MODEL 1
REMARK VINA RESULT: -8.776526706      0.000      0.000
REMARK  8 active torsions:
REMARK  status: ('A' for Active; 'I' for Inactive)
REMARK    1  A    between atoms: C2_2  and  O2_4
REMARK    2  A    between atoms: O2_4  and  C3_5
REMARK    3  A    between atoms: C16_19  and  O3_20
REMARK    4  A    between atoms: O3_20  and  C17_21
REMARK    5  A    between atoms: C17_21  and  C18_23
REMARK    6  A    between atoms: C18_23  and  N1_25
REMARK       I    between atoms: N1_25  and  C20_27
REMARK    7  A    between atoms: C20_27  and  C21_29
REMARK    8  A    between atoms: C27_35  and  C28_36
ROOT
HETATM    1  C3  UNL     1      25.303   4.302  35.394  1.00  0.00     0.084 C
HETATM    2  C4  UNL     1      24.824   3.205  34.533  1.00  0.00     0.044 C
HETATM    3  C5  UNL     1      24.889   1.792  34.926  1.00  0.00    -0.063 C
HETATM    4  C6  UNL     1      24.319   1.484  36.309  1.00  0.00     0.048 C
HETATM    5  C7  UNL     1      26.082   1.011  34.556  1.00  0.00    -0.017 C
HETATM    6  C8  UNL     1      27.394   1.602  34.324  1.00  0.00     0.065 C
HETATM    7  C9  UNL     1      28.130   2.364  35.400  1.00  0.00     0.062 C
HETATM    8  C10 UNL     1      28.063   1.464  36.652  1.00  0.00     0.046 C
HETATM    9  C11 UNL     1      29.609   2.193  34.988  1.00  0.00     0.038 C
HETATM   10  C12 UNL     1      30.579   2.777  35.904  1.00  0.00     0.006 C
HETATM   11  C13 UNL     1      30.171   3.760  36.921  1.00  0.00     0.046 C
HETATM   12  C14 UNL     1      29.857   5.148  36.540  1.00  0.00     0.129 C
HETATM   13  C15 UNL     1      30.958   5.832  35.772  1.00  0.00     0.054 C
HETATM   14  F1  UNL     1      29.980   5.821  37.806  1.00  0.00    -0.240 F
HETATM   15  C16 UNL     1      28.452   5.531  36.171  1.00  0.00     0.210 C
HETATM   16  C32 UNL     1      27.812   4.773  35.080  1.00  0.00     0.114 C
HETATM   17  C33 UNL     1      28.545   5.038  33.742  1.00  0.00     0.054 C
HETATM   18  O6  UNL     1      27.656   3.524  35.443  1.00  0.00    -0.362 OA
HETATM   19  C34 UNL     1      26.391   5.152  34.709  1.00  0.00    -0.013 C
HETATM   20  C35 UNL     1      26.019   6.555  34.569  1.00  0.00     0.050 C
ENDROOT
BRANCH  15  21
HETATM   21  O3  UNL     1      28.554   6.955  36.017  1.00  0.00    -0.308 OA
BRANCH  21  22
HETATM   22  C17 UNL     1      28.118   7.865  36.956  1.00  0.00     0.282 C
HETATM   23  O4  UNL     1      26.922   7.786  37.314  1.00  0.00    -0.263 OA
BRANCH  22  24
HETATM   24  C18 UNL     1      28.977   8.883  37.538  1.00  0.00     0.180 C
HETATM   25  C19 UNL     1      28.514  10.327  37.288  1.00  0.00     0.043 C
BRANCH  24  26
HETATM   26  N1  UNL     1      29.199   8.741  38.963  1.00  0.00    -0.344 N
HETATM   27  C20 UNL     1      30.452   8.472  39.527  1.00  0.00     0.244 C
HETATM   28  O5  UNL     1      31.424   8.353  38.759  1.00  0.00    -0.268 OA
ATOM     29  H1  UNL     1      28.400   8.842  39.589  1.00  0.00     0.163 HD
BRANCH  27  30
HETATM   30  C21 UNL     1      30.632   8.331  40.970  1.00  0.00    -0.007 C
HETATM   31  C22 UNL     1      29.448   8.671  41.822  1.00  0.00     0.044 C
HETATM   32  C23 UNL     1      29.969   9.065  43.183  1.00  0.00    -0.014 C
HETATM   33  C24 UNL     1      30.293  10.561  43.224  1.00  0.00     0.010 C
HETATM   34  C25 UNL     1      31.050   8.214  43.727  1.00  0.00     0.005 C
HETATM   35  C26 UNL     1      32.078   7.742  42.779  1.00  0.00     0.010 C
HETATM   36  C27 UNL     1      31.536   7.264  41.439  1.00  0.00     0.027 C
BRANCH  36  37
HETATM   37  C28 UNL     1      31.186   5.852  41.401  1.00  0.00    -0.044 C
HETATM   38  C29 UNL     1      29.793   5.509  40.963  1.00  0.00     0.015 C
HETATM   39  C30 UNL     1      32.059   5.222  40.264  1.00  0.00     0.015 C
HETATM   40  C31 UNL     1      31.537   4.981  42.574  1.00  0.00     0.015 C
ENDBRANCH  36  37
ENDBRANCH  27  30
ENDBRANCH  24  26
ENDBRANCH  22  24
ENDBRANCH  21  22
ENDBRANCH  15  21
BRANCH   1  41
HETATM   41  O2  UNL     1      25.553   4.039  36.724  1.00  0.00    -0.279 OA
BRANCH  41  42
HETATM   42  C2  UNL     1      25.247   4.835  37.821  1.00  0.00     0.260 C
HETATM   43  C1  UNL     1      26.094   4.768  39.023  1.00  0.00     0.126 C
HETATM   44  O1  UNL     1      24.236   5.575  37.703  1.00  0.00    -0.265 OA
ENDBRANCH  41  42
ENDBRANCH   1  41
TORSDOF 8
ENDMDL