MODEL 5
REMARK VINA RESULT: -7.725832993      2.187      3.333
REMARK  9 active torsions:
REMARK  status: ('A' for Active; 'I' for Inactive)
REMARK    1  A    between atoms: O1_2  and  C2_3
REMARK    2  A    between atoms: C8_9  and  O2_10
REMARK    3  A    between atoms: O2_10  and  C9_11
REMARK    4  A    between atoms: C19_22  and  C20_23
REMARK    5  A    between atoms: C20_23  and  O3_25
REMARK    6  A    between atoms: C20_23  and  C22_27
REMARK    7  A    between atoms: C29_35  and  O5_36
REMARK    8  A    between atoms: O5_36  and  C30_37
REMARK    9  A    between atoms: C32_40  and  O7_41
ROOT
HETATM    1  C2  UNL     1      29.377   2.444  36.278  1.00  0.00     0.129 C
HETATM    2  C3  UNL     1      28.365   3.432  36.819  1.00  0.00     0.033 C
HETATM    3  C4  UNL     1      28.800   4.760  36.345  1.00  0.00     0.015 C
HETATM    4  C5  UNL     1      30.144   5.251  36.807  1.00  0.00    -0.003 C
HETATM    5  C6  UNL     1      30.460   6.362  35.786  1.00  0.00     0.019 C
HETATM    6  C7  UNL     1      31.186   4.190  36.658  1.00  0.00     0.036 C
HETATM    7  C8  UNL     1      32.427   4.423  37.477  1.00  0.00     0.134 C
HETATM    8  C12 UNL     1      32.121   4.849  38.893  1.00  0.00     0.041 C
HETATM    9  C13 UNL     1      31.395   6.187  38.800  1.00  0.00     0.031 C
HETATM   10  C14 UNL     1      31.096   6.607  40.233  1.00  0.00     0.001 C
HETATM   11  C15 UNL     1      32.267   6.500  41.155  1.00  0.00     0.007 C
HETATM   12  C16 UNL     1      31.809   6.787  42.568  1.00  0.00     0.010 C
HETATM   13  C17 UNL     1      31.204   8.157  42.696  1.00  0.00    -0.033 C
HETATM   14  C18 UNL     1      32.291   9.149  42.514  1.00  0.00     0.016 C
HETATM   15  C19 UNL     1      30.408   8.377  43.921  1.00  0.00     0.035 C
HETATM   16  C23 UNL     1      29.565   9.606  43.532  1.00  0.00     0.009 C
HETATM   17  C24 UNL     1      29.513   9.587  41.996  1.00  0.00     0.007 C
HETATM   18  C25 UNL     1      30.069   8.234  41.711  1.00  0.00     0.003 C
HETATM   19  C26 UNL     1      30.321   7.882  40.313  1.00  0.00    -0.033 C
HETATM   20  C27 UNL     1      30.825   9.017  39.502  1.00  0.00     0.016 C
HETATM   21  C28 UNL     1      28.955   7.498  39.718  1.00  0.00     0.045 C
HETATM   22  C29 UNL     1      29.081   7.010  38.272  1.00  0.00     0.168 C
HETATM   23  C32 UNL     1      30.054   5.911  38.152  1.00  0.00     0.096 C
HETATM   24  C33 UNL     1      30.774   2.753  36.701  1.00  0.00    -0.015 C
HETATM   25  C34 UNL     1      30.985   2.022  38.003  1.00  0.00     0.018 C
HETATM   26  C35 UNL     1      31.638   1.959  35.719  1.00  0.00     0.018 C
ENDROOT
BRANCH  15  27
HETATM   27  C20 UNL     1      31.049   8.679  45.198  1.00  0.00     0.111 C
HETATM   28  C21 UNL     1      29.927   8.657  46.260  1.00  0.00     0.054 C
BRANCH  27  29
HETATM   29  O3  UNL     1      31.541   9.998  45.293  1.00  0.00    -0.383 OA
ATOM     30  H3  UNL     1      31.756  10.265  46.179  1.00  0.00     0.211 HD
ENDBRANCH  27  29
BRANCH  27  31
HETATM   31  C22 UNL     1      32.052   7.710  45.666  1.00  0.00     0.269 C
HETATM   32  O4  UNL     1      33.185   8.033  45.884  1.00  0.00    -0.304 OA
ENDBRANCH  27  31
ENDBRANCH  15  27
BRANCH  22  33
HETATM   33  O5  UNL     1      29.181   8.144  37.508  1.00  0.00    -0.313 OA
BRANCH  33  34
HETATM   34  C30 UNL     1      28.102   8.633  36.782  1.00  0.00     0.255 C
HETATM   35  C31 UNL     1      26.813   7.869  36.800  1.00  0.00     0.126 C
HETATM   36  O6  UNL     1      28.142   9.689  36.103  1.00  0.00    -0.266 OA
ENDBRANCH  33  34
ENDBRANCH  22  33
BRANCH  23  37
HETATM   37  O7  UNL     1      29.544   4.909  39.033  1.00  0.00    -0.386 OA
ATOM     38  H7  UNL     1      30.001   4.109  38.798  1.00  0.00     0.210 HD
ENDBRANCH  23  37
BRANCH   7  39
HETATM   39  O2  UNL     1      33.298   5.368  36.974  1.00  0.00    -0.349 OA
BRANCH  39  40
HETATM   40  C9  UNL     1      34.539   5.780  37.268  1.00  0.00     0.054 C
HETATM   41  C10 UNL     1      34.826   7.171  37.671  1.00  0.00     0.077 C
HETATM   42  C11 UNL     1      35.556   4.922  37.198  1.00  0.00     0.116 C
HETATM   43 CL1  UNL     1      37.157   5.473  37.582  1.00  0.00    -0.094 Cl
ENDBRANCH  39  40
ENDBRANCH   7  39
BRANCH   1  44
HETATM   44  O1  UNL     1      28.964   1.198  36.731  1.00  0.00    -0.390 OA
HETATM   45  C1  UNL     1      27.650   0.897  36.496  1.00  0.00     0.202 C
ENDBRANCH   1  44
TORSDOF 9
ENDMDL