MODEL 5
REMARK VINA RESULT: -8.620244768      3.916      9.463
REMARK  8 active torsions:
REMARK  status: ('A' for Active; 'I' for Inactive)
REMARK    1  A    between atoms: C2_2  and  O2_4
REMARK    2  A    between atoms: O2_4  and  C3_5
REMARK    3  A    between atoms: C12_15  and  C13_16
REMARK    4  A    between atoms: C13_16  and  O4_17
REMARK    5  A    between atoms: O4_17  and  N1_18
REMARK    6  A    between atoms: C26_33  and  O5_35
REMARK    7  A    between atoms: O5_35  and  C28_36
REMARK    8  A    between atoms: C31_40  and  C32_41
ROOT
HETATM    1  C3  UNL     1      27.641   5.720  35.183  1.00  0.00     0.171 C
HETATM    2  C4  UNL     1      28.359   6.071  36.407  1.00  0.00     0.027 C
HETATM    3  C5  UNL     1      27.571   5.978  37.674  1.00  0.00     0.008 C
HETATM    4  C6  UNL     1      28.390   5.691  38.877  1.00  0.00     0.006 C
HETATM    5  C7  UNL     1      29.858   6.011  38.748  1.00  0.00    -0.001 C
HETATM    6  C8  UNL     1      30.535   5.530  39.978  1.00  0.00    -0.005 C
HETATM    7  C9  UNL     1      29.639   4.605  40.828  1.00  0.00     0.008 C
HETATM    8  C10 UNL     1      30.377   4.307  42.098  1.00  0.00     0.042 C
HETATM    9  C11 UNL     1      31.684   5.031  42.233  1.00  0.00     0.103 A
HETATM   10  O3  UNL     1      32.308   4.674  43.449  1.00  0.00    -0.360 OA
HETATM   11  C12 UNL     1      32.116   6.021  43.070  1.00  0.00     0.117 A
HETATM   12  C14 UNL     1      33.297   6.711  42.552  1.00  0.00     0.044 C
HETATM   13  C15 UNL     1      33.446   6.143  41.144  1.00  0.00     0.016 C
HETATM   14  C16 UNL     1      32.626   4.870  41.086  1.00  0.00    -0.005 C
HETATM   15  C17 UNL     1      33.439   3.619  41.330  1.00  0.00     0.019 C
HETATM   16  C18 UNL     1      31.808   4.780  39.802  1.00  0.00     0.001 C
HETATM   17  C19 UNL     1      32.605   5.184  38.609  1.00  0.00     0.007 C
HETATM   18  C20 UNL     1      31.683   4.814  37.443  1.00  0.00     0.011 C
HETATM   19  C21 UNL     1      30.491   5.735  37.438  1.00  0.00    -0.032 C
HETATM   20  C22 UNL     1      31.028   7.036  36.822  1.00  0.00     0.016 C
HETATM   21  C23 UNL     1      29.507   5.096  36.485  1.00  0.00    -0.028 C
HETATM   22  C24 UNL     1      29.086   3.737  36.904  1.00  0.00     0.016 C
HETATM   23  C25 UNL     1      29.947   5.034  35.044  1.00  0.00     0.051 C
HETATM   24  C26 UNL     1      28.748   5.312  34.179  1.00  0.00     0.088 C
HETATM   25  C27 UNL     1      28.220   4.082  33.465  1.00  0.00     0.049 C
ENDROOT
BRANCH  24  26
HETATM   26  O5  UNL     1      28.815   6.357  33.302  1.00  0.00    -0.347 OA
BRANCH  26  27
HETATM   27  C28 UNL     1      27.894   7.367  33.461  1.00  0.00     0.272 C
HETATM   28  C29 UNL     1      28.670   8.492  34.250  1.00  0.00     0.115 C
HETATM   29  C30 UNL     1      28.405   9.722  33.550  1.00  0.00     0.046 C
HETATM   30 CL1  UNL     1      28.961  11.298  34.122  1.00  0.00    -0.086 Cl
HETATM   31  C31 UNL     1      27.775   9.429  32.430  1.00  0.00     0.075 C
HETATM   32  O6  UNL     1      27.603   8.063  32.316  1.00  0.00    -0.322 OA
BRANCH  31  33
HETATM   33  C32 UNL     1      27.387  10.461  31.451  1.00  0.00    -0.001 C
HETATM   34  C33 UNL     1      26.420  11.480  31.991  1.00  0.00     0.021 C
HETATM   35  C34 UNL     1      26.696   9.664  30.322  1.00  0.00     0.021 C
HETATM   36  C35 UNL     1      28.553  11.200  30.845  1.00  0.00     0.021 C
ENDBRANCH  31  33
ENDBRANCH  26  27
ENDBRANCH  24  26
BRANCH   1  37
HETATM   37  O2  UNL     1      26.663   4.698  35.290  1.00  0.00    -0.313 OA
BRANCH  37  38
HETATM   38  C2  UNL     1      25.341   4.940  35.009  1.00  0.00     0.255 C
HETATM   39  C1  UNL     1      24.672   6.213  35.383  1.00  0.00     0.126 C
HETATM   40  O1  UNL     1      24.656   4.072  34.484  1.00  0.00    -0.266 OA
ENDBRANCH  37  38
ENDBRANCH   1  37
BRANCH  11  41
HETATM   41  C13 UNL     1      31.152   6.653  44.089  1.00  0.00     0.241 C
BRANCH  41  42
HETATM   42  O4  UNL     1      30.395   7.552  43.327  1.00  0.00    -0.284 OA
BRANCH  42  43
HETATM   43  N1  UNL     1      30.515   8.813  43.889  1.00  0.00    -0.311 N
ATOM     44  H12 UNL     1      29.890   9.201  44.595  1.00  0.00     0.184 HD
ATOM     45  H11 UNL     1      31.326   9.274  43.476  1.00  0.00     0.184 HD
ENDBRANCH  42  43
ENDBRANCH  41  42
ENDBRANCH  11  41
TORSDOF 8
ENDMDL