MODEL 2
REMARK VINA RESULT: -10.103830049      1.067      1.746
REMARK  7 active torsions:
REMARK  status: ('A' for Active; 'I' for Inactive)
REMARK    1  A    between atoms: C2_2  and  C4_4
REMARK    2  A    between atoms: C15_17  and  C16_18
REMARK    3  A    between atoms: C19_23  and  C20_24
REMARK    4  A    between atoms: C21_25  and  O4_26
REMARK    5  A    between atoms: O4_26  and  C22_27
REMARK    6  A    between atoms: C22_27  and  C23_29
REMARK    7  A    between atoms: C25_31  and  O6_32
ROOT
HETATM    1  C4  UNL     1      25.550   1.598  35.470  1.00  0.00     0.022 C
HETATM    2  C5  UNL     1      26.796   0.754  35.552  1.00  0.00     0.010 C
HETATM    3  C6  UNL     1      27.936   1.700  35.163  1.00  0.00     0.006 C
HETATM    4  C7  UNL     1      27.278   2.985  34.857  1.00  0.00    -0.001 C
HETATM    5  C8  UNL     1      28.119   4.206  35.010  1.00  0.00    -0.005 C
HETATM    6  C9  UNL     1      29.031   4.237  33.796  1.00  0.00     0.008 C
HETATM    7  C10 UNL     1      29.816   5.492  33.686  1.00  0.00     0.036 C
HETATM    8  C11 UNL     1      29.049   6.746  33.941  1.00  0.00     0.171 C
HETATM    9  O1  UNL     1      28.225   7.127  32.920  1.00  0.00    -0.232 OA
HETATM   10  O2  UNL     1      28.266   8.346  32.543  1.00  0.00    -0.200 OA
HETATM   11  C12 UNL     1      28.190   9.316  33.521  1.00  0.00     0.198 C
HETATM   12  C13 UNL     1      29.406  10.243  33.269  1.00  0.00     0.072 C
HETATM   13  C14 UNL     1      28.938  10.858  31.928  1.00  0.00     0.011 C
HETATM   14  C15 UNL     1      27.605  11.389  32.344  1.00  0.00     0.009 C
HETATM   15  C18 UNL     1      27.080  10.325  33.306  1.00  0.00     0.077 C
HETATM   16  O3  UNL     1      28.306   8.900  34.790  1.00  0.00    -0.342 OA
HETATM   17  C19 UNL     1      27.409   7.967  35.280  1.00  0.00     0.161 C
HETATM   18  C28 UNL     1      28.137   6.625  35.173  1.00  0.00     0.019 C
HETATM   19  C29 UNL     1      28.997   6.403  36.425  1.00  0.00     0.021 C
HETATM   20  C30 UNL     1      27.244   5.453  34.940  1.00  0.00     0.003 C
HETATM   21  C31 UNL     1      26.091   5.358  35.874  1.00  0.00     0.007 C
HETATM   22  C32 UNL     1      25.240   4.134  35.514  1.00  0.00     0.010 C
HETATM   23  C33 UNL     1      26.078   2.932  35.829  1.00  0.00    -0.033 C
HETATM   24  C34 UNL     1      26.580   2.999  37.261  1.00  0.00     0.016 C
ENDROOT
BRANCH  17  25
HETATM   25  C20 UNL     1      27.311   8.300  36.755  1.00  0.00     0.030 C
HETATM   26  C21 UNL     1      28.133   9.220  37.257  1.00  0.00     0.144 C
BRANCH  26  27
HETATM   27  O4  UNL     1      28.102   9.562  38.605  1.00  0.00    -0.290 OA
BRANCH  27  28
HETATM   28  C22 UNL     1      29.263   9.138  39.311  1.00  0.00     0.294 C
HETATM   29  O5  UNL     1      30.242   9.926  39.320  1.00  0.00    -0.263 OA
BRANCH  28  30
HETATM   30  C23 UNL     1      29.309   7.864  39.956  1.00  0.00     0.288 C
HETATM   31  C24 UNL     1      28.272   6.887  39.979  1.00  0.00     0.077 C
HETATM   32  C25 UNL     1      29.101   5.579  40.197  1.00  0.00     0.150 C
HETATM   33  C26 UNL     1      30.517   6.008  40.251  1.00  0.00     0.211 C
HETATM   34  C27 UNL     1      31.031   6.351  41.640  1.00  0.00     0.043 C
HETATM   35  N1  UNL     1      30.580   7.200  39.455  1.00  0.00    -0.055 N
ATOM     36  H12 UNL     1      30.660   7.071  38.446  1.00  0.00     0.278 HD
ATOM     37  H11 UNL     1      31.437   7.748  39.521  1.00  0.00     0.278 HD
BRANCH  32  38
HETATM   38  O6  UNL     1      28.722   4.925  41.352  1.00  0.00    -0.393 OA
ATOM     39  H6  UNL     1      28.027   4.299  41.187  1.00  0.00     0.210 HD
ENDBRANCH  32  38
ENDBRANCH  28  30
ENDBRANCH  27  28
ENDBRANCH  26  27
ENDBRANCH  17  25
BRANCH  14  40
HETATM   40  C16 UNL     1      26.639  11.591  31.214  1.00  0.00     0.082 C
HETATM   41  C17 UNL     1      26.508  10.398  30.320  1.00  0.00     0.027 C
HETATM   42 CL1  UNL     1      25.097  12.204  31.750  1.00  0.00    -0.125 Cl
ENDBRANCH  14  40
BRANCH   1  43
HETATM   43  C2  UNL     1      24.405   1.073  36.188  1.00  0.00    -0.088 C
HETATM   44  C1  UNL     1      23.143   1.337  35.893  1.00  0.00     0.014 C
HETATM   45  C3  UNL     1      24.625   0.213  37.408  1.00  0.00     0.043 C
ENDBRANCH   1  43
TORSDOF 7
ENDMDL