MODEL 3
REMARK VINA RESULT: -8.893267524      2.577      4.512
REMARK  9 active torsions:
REMARK  status: ('A' for Active; 'I' for Inactive)
REMARK    1  A    between atoms: C2_2  and  C3_3
REMARK    2  A    between atoms: C8_8  and  C9_9
REMARK    3  A    between atoms: C9_9  and  O1_10
REMARK    4  A    between atoms: N1_12  and  O2_14
REMARK    5  A    between atoms: C11_17  and  O3_18
REMARK    6  A    between atoms: O3_18  and  C12_19
REMARK    7  A    between atoms: C12_19  and  O5_21
REMARK    8  A    between atoms: O5_21  and  C13_22
REMARK    9  A    between atoms: C13_22  and  C14_23
ROOT
HETATM    1  C3  UNL     1      26.582   4.570  38.070  1.00  0.00     0.052 C
HETATM    2  C4  UNL     1      25.846   3.294  37.626  1.00  0.00     0.021 C
HETATM    3  C5  UNL     1      25.834   3.277  36.138  1.00  0.00     0.018 C
HETATM    4  C6  UNL     1      24.489   3.104  35.484  1.00  0.00     0.010 C
HETATM    5  C7  UNL     1      24.365   4.229  34.439  1.00  0.00     0.018 C
HETATM    6  C8  UNL     1      25.699   5.011  34.563  1.00  0.00     0.094 C
HETATM    7  C10 UNL     1      25.967   4.797  35.926  1.00  0.00    -0.034 C
HETATM    8  C11 UNL     1      27.013   5.269  36.816  1.00  0.00     0.067 C
ENDROOT
BRANCH   1   9
HETATM    9  C2  UNL     1      27.584   4.278  39.138  1.00  0.00    -0.034 C
HETATM   10  C1  UNL     1      27.305   2.854  39.643  1.00  0.00     0.016 C
HETATM   11  C15 UNL     1      28.999   4.274  38.704  1.00  0.00     0.010 C
HETATM   12  C16 UNL     1      29.925   5.008  39.673  1.00  0.00     0.006 C
HETATM   13  C17 UNL     1      29.398   6.405  39.667  1.00  0.00    -0.002 C
HETATM   14  C18 UNL     1      28.147   6.366  40.500  1.00  0.00    -0.009 C
HETATM   15  C26 UNL     1      30.381   7.388  40.257  1.00  0.00    -0.036 C
HETATM   16  C19 UNL     1      27.460   7.705  40.229  1.00  0.00     0.005 C
HETATM   17  C30 UNL     1      27.276   5.189  40.301  1.00  0.00     0.015 C
HETATM   18  C20 UNL     1      28.348   8.752  40.883  1.00  0.00     0.006 C
HETATM   19  C21 UNL     1      29.760   8.730  40.413  1.00  0.00    -0.001 C
HETATM   20  C22 UNL     1      30.554   9.679  41.275  1.00  0.00     0.074 C
HETATM   21  C23 UNL     1      31.169   9.022  42.483  1.00  0.00     0.164 C
HETATM   22  C24 UNL     1      32.042   7.869  41.987  1.00  0.00     0.069 C
HETATM   23  O6  UNL     1      30.258   8.483  43.355  1.00  0.00    -0.353 OA
HETATM   24  O7  UNL     1      31.960   9.931  43.137  1.00  0.00    -0.353 OA
HETATM   25  C25 UNL     1      31.035   6.827  41.481  1.00  0.00     0.015 C
HETATM   26  C28 UNL     1      30.133   9.360  44.430  1.00  0.00     0.197 C
HETATM   27  C29 UNL     1      31.488  10.023  44.444  1.00  0.00     0.197 C
HETATM   28  C27 UNL     1      31.494   7.528  39.206  1.00  0.00     0.016 C
ENDBRANCH   1   9
BRANCH   8  29
HETATM   29  O3  UNL     1      28.300   5.385  36.501  1.00  0.00    -0.259 OA
BRANCH  29  30
HETATM   30  C12 UNL     1      29.041   6.267  35.779  1.00  0.00     0.411 C
HETATM   31  O4  UNL     1      30.195   6.207  36.198  1.00  0.00    -0.229 OA
BRANCH  30  32
HETATM   32  O5  UNL     1      28.599   7.040  34.812  1.00  0.00    -0.297 OA
BRANCH  32  33
HETATM   33  C13 UNL     1      27.763   8.112  34.829  1.00  0.00     0.192 C
BRANCH  33  34
HETATM   34  C14 UNL     1      28.377   9.398  35.270  1.00  0.00     0.112 C
HETATM   35 BR1  UNL     1      28.368   9.768  37.136  1.00  0.00    -0.094 Br
ENDBRANCH  33  34
ENDBRANCH  32  33
ENDBRANCH  30  32
ENDBRANCH  29  30
ENDBRANCH   8  29
BRANCH   6  36
HETATM   36  C9  UNL     1      26.518   4.564  33.480  1.00  0.00     0.143 C
HETATM   37  N1  UNL     1      27.737   4.182  33.618  1.00  0.00    -0.251 N
ATOM     38  H1  UNL     1      28.128   4.205  34.559  1.00  0.00     0.196 HD
BRANCH  36  39
HETATM   39  O1  UNL     1      26.037   4.508  32.156  1.00  0.00    -0.348 OA
ATOM     40  H1  UNL     1      25.511   3.780  31.844  1.00  0.00     0.219 HD
ENDBRANCH  36  39
BRANCH  37  41
HETATM   41  O2  UNL     1      28.547   3.752  32.622  1.00  0.00    -0.288 OA
ATOM     42  H2  UNL     1      29.461   3.986  32.511  1.00  0.00     0.244 HD
ENDBRANCH  37  41
ENDBRANCH   6  36
TORSDOF 9
ENDMDL