MODEL 5
REMARK VINA RESULT: -7.950608153      2.153      5.479
REMARK  10 active torsions:
REMARK  status: ('A' for Active; 'I' for Inactive)
REMARK    1  A    between atoms: C2_2  and  C3_3
REMARK    2  A    between atoms: C3_3  and  C4_4
REMARK    3  A    between atoms: C6_6  and  C7_7
REMARK    4  A    between atoms: C7_7  and  C8_8
REMARK    5  A    between atoms: C9_9  and  O1_10
REMARK    6  A    between atoms: C10_13  and  C11_14
REMARK    7  A    between atoms: C11_14  and  O3_17
REMARK    8  A    between atoms: C14_19  and  O4_21
REMARK    9  A    between atoms: C27_36  and  O6_37
REMARK   10  A    between atoms: O6_37  and  C28_38
ROOT
HETATM    1  C8  UNL     1      27.662   5.258  37.193  1.00  0.00     0.047 C
HETATM    2  C9  UNL     1      28.691   4.151  37.075  1.00  0.00     0.269 C
HETATM    3  O2  UNL     1      29.982   4.496  36.947  1.00  0.00    -0.349 OA
HETATM    4  C10 UNL     1      31.237   4.308  37.436  1.00  0.00     0.192 C
HETATM    5  C14 UNL     1      32.076   5.586  37.589  1.00  0.00     0.083 C
HETATM    6  C15 UNL     1      33.190   5.300  38.597  1.00  0.00     0.049 C
HETATM    7  C16 UNL     1      31.230   6.637  38.235  1.00  0.00     0.042 C
HETATM    8  C17 UNL     1      30.499   7.530  37.335  1.00  0.00     0.036 C
HETATM    9  C18 UNL     1      29.580   7.005  36.326  1.00  0.00     0.132 C
HETATM   10  O5  UNL     1      29.292   8.225  35.627  1.00  0.00    -0.374 OA
HETATM   11  C19 UNL     1      28.363   8.329  34.698  1.00  0.00     0.058 C
HETATM   12  C20 UNL     1      29.166   8.265  33.363  1.00  0.00     0.046 C
HETATM   13  C21 UNL     1      27.707   9.691  34.550  1.00  0.00     0.046 C
HETATM   14  C22 UNL     1      27.270   7.311  34.612  1.00  0.00     0.029 C
HETATM   15  C23 UNL     1      26.038   7.432  35.389  1.00  0.00     0.014 C
HETATM   16  C24 UNL     1      25.545   6.328  36.216  1.00  0.00     0.009 C
HETATM   17  C25 UNL     1      24.194   5.830  35.663  1.00  0.00     0.012 C
HETATM   18  C26 UNL     1      26.325   5.102  36.569  1.00  0.00     0.084 C
HETATM   19 CL1  UNL     1      25.163   4.234  37.615  1.00  0.00    -0.115 Cl
HETATM   20  C27 UNL     1      26.320   4.284  35.268  1.00  0.00     0.186 C
HETATM   21  C30 UNL     1      27.531   4.832  34.665  1.00  0.00    -0.047 C
HETATM   22  C31 UNL     1      28.080   4.115  33.711  1.00  0.00    -0.025 C
HETATM   23  C32 UNL     1      29.294   4.422  32.931  1.00  0.00     0.036 C
HETATM   24  C33 UNL     1      28.016   6.126  35.140  1.00  0.00     0.035 C
HETATM   25  C34 UNL     1      28.263   6.443  36.574  1.00  0.00     0.005 C
HETATM   26  C35 UNL     1      27.846   7.475  37.460  1.00  0.00     0.020 C
ENDROOT
BRANCH   1  27
HETATM   27  C7  UNL     1      27.517   5.249  38.717  1.00  0.00     0.044 C
BRANCH  27  28
HETATM   28  C6  UNL     1      28.373   4.358  39.487  1.00  0.00    -0.023 C
HETATM   29  C4  UNL     1      29.126   4.793  40.489  1.00  0.00    -0.084 C
HETATM   30  C5  UNL     1      29.110   6.237  40.824  1.00  0.00     0.043 C
BRANCH  29  31
HETATM   31  C3  UNL     1      30.016   3.892  41.293  1.00  0.00     0.059 C
BRANCH  31  32
HETATM   32  C2  UNL     1      30.484   2.719  40.586  1.00  0.00    -0.033 C
HETATM   33  C1  UNL     1      31.725   2.307  40.519  1.00  0.00     0.007 C
ENDBRANCH  31  32
ENDBRANCH  29  31
ENDBRANCH  27  28
ENDBRANCH   1  27
BRANCH   2  34
HETATM   34  O1  UNL     1      28.217   2.939  37.114  1.00  0.00    -0.370 OA
ATOM     35  H1  UNL     1      28.448   2.434  37.884  1.00  0.00     0.212 HD
ENDBRANCH   2  34
BRANCH  20  36
HETATM   36  O6  UNL     1      26.050   3.018  35.460  1.00  0.00    -0.310 OA
BRANCH  36  37
HETATM   37  C28 UNL     1      25.256   2.059  34.939  1.00  0.00     0.255 C
HETATM   38  C29 UNL     1      23.860   1.760  35.327  1.00  0.00     0.126 C
HETATM   39  O7  UNL     1      25.860   1.425  34.053  1.00  0.00    -0.266 OA
ENDBRANCH  36  37
ENDBRANCH  20  36
BRANCH   4  40
HETATM   40  C11 UNL     1      31.984   3.421  36.422  1.00  0.00     0.079 C
HETATM   41  C12 UNL     1      33.422   3.173  36.770  1.00  0.00     0.048 C
HETATM   42  C13 UNL     1      31.340   2.012  36.429  1.00  0.00     0.048 C
BRANCH  40  43
HETATM   43  O3  UNL     1      31.810   3.847  35.120  1.00  0.00    -0.388 OA
ATOM     44  H3  UNL     1      31.522   3.148  34.545  1.00  0.00     0.210 HD
ENDBRANCH  40  43
ENDBRANCH   4  40
BRANCH   5  45
HETATM   45  O4  UNL     1      32.679   5.978  36.425  1.00  0.00    -0.388 OA
ATOM     46  H4  UNL     1      33.626   5.915  36.455  1.00  0.00     0.210 HD
ENDBRANCH   5  45
TORSDOF 10
ENDMDL