MODEL 1
REMARK VINA RESULT: -9.481352506      0.000      0.000
REMARK  6 active torsions:
REMARK  status: ('A' for Active; 'I' for Inactive)
REMARK    1  A    between atoms: C2_2  and  C3_3
REMARK    2  A    between atoms: C3_3  and  C4_4
REMARK    3  A    between atoms: C24_29  and  C26_31
REMARK    4  A    between atoms: C28_34  and  C29_35
REMARK    5  A    between atoms: C33_40  and  O7_41
REMARK    6  A    between atoms: C34_43  and  O8_44
ROOT
HETATM    1  C3  UNL     1      28.647   6.751  38.605  1.00  0.00     0.154 C
HETATM    2  O4  UNL     1      28.367   5.783  39.674  1.00  0.00    -0.223 OA
HETATM    3  O5  UNL     1      27.094   5.499  39.677  1.00  0.00    -0.226 OA
HETATM    4  C19 UNL     1      26.808   4.416  38.841  1.00  0.00     0.127 C
HETATM    5  C20 UNL     1      27.138   3.240  39.744  1.00  0.00     0.052 C
HETATM    6  C21 UNL     1      25.334   4.288  38.572  1.00  0.00     0.044 C
HETATM    7  C22 UNL     1      25.103   3.292  37.442  1.00  0.00     0.010 C
HETATM    8  C23 UNL     1      25.689   3.941  36.247  1.00  0.00     0.013 C
HETATM    9  C24 UNL     1      25.389   3.477  34.904  1.00  0.00     0.025 C
HETATM   10  C25 UNL     1      24.224   4.341  34.354  1.00  0.00     0.024 C
HETATM   11  C28 UNL     1      26.625   3.854  34.105  1.00  0.00     0.016 C
HETATM   12  C30 UNL     1      27.575   4.556  35.091  1.00  0.00     0.019 C
HETATM   13  C31 UNL     1      27.190   3.950  36.384  1.00  0.00    -0.002 C
HETATM   14  C32 UNL     1      27.715   2.506  36.290  1.00  0.00     0.019 C
HETATM   15  C33 UNL     1      27.683   4.596  37.651  1.00  0.00     0.128 C
HETATM   16  C34 UNL     1      28.153   6.044  37.444  1.00  0.00     0.197 C
ENDROOT
BRANCH   1  17
HETATM   17  C2  UNL     1      27.428   7.652  39.085  1.00  0.00     0.042 C
HETATM   18  C1  UNL     1      27.681   9.102  38.910  1.00  0.00     0.008 C
ENDBRANCH   1  17
BRANCH   1  19
HETATM   19  C4  UNL     1      29.893   7.413  38.837  1.00  0.00     0.212 C
HETATM   20  O1  UNL     1      30.494   7.909  37.661  1.00  0.00    -0.231 OA
HETATM   21  O2  UNL     1      31.234   7.114  37.029  1.00  0.00    -0.233 OA
HETATM   22  C5  UNL     1      32.154   6.305  37.508  1.00  0.00     0.187 C
HETATM   23  C6  UNL     1      33.298   7.165  38.042  1.00  0.00     0.204 C
HETATM   24  C17 UNL     1      31.796   5.268  38.506  1.00  0.00     0.017 C
HETATM   25  O3  UNL     1      32.689   8.264  38.518  1.00  0.00    -0.373 OA
HETATM   26  C7  UNL     1      32.036   8.198  39.731  1.00  0.00     0.085 C
HETATM   27  C8  UNL     1      33.159   7.994  40.715  1.00  0.00     0.051 C
HETATM   28  C9  UNL     1      31.576   9.598  39.961  1.00  0.00     0.008 C
HETATM   29  C15 UNL     1      30.916   7.203  39.873  1.00  0.00     0.028 C
HETATM   30  C10 UNL     1      30.784   9.834  40.966  1.00  0.00    -0.019 C
HETATM   31  C11 UNL     1      30.348   8.768  41.849  1.00  0.00    -0.029 C
HETATM   32  C12 UNL     1      31.092   8.856  43.165  1.00  0.00     0.019 C
HETATM   33  C13 UNL     1      28.920   9.151  42.294  1.00  0.00     0.019 C
HETATM   34  C14 UNL     1      30.466   7.390  41.322  1.00  0.00     0.028 C
HETATM   35  C16 UNL     1      31.548   5.827  39.845  1.00  0.00     0.022 C
HETATM   36  C18 UNL     1      33.022   4.337  38.596  1.00  0.00     0.012 C
ENDBRANCH   1  19
BRANCH  16  37
HETATM   37  O8  UNL     1      26.973   6.699  36.961  1.00  0.00    -0.389 OA
ATOM     38  H8  UNL     1      27.169   7.127  36.136  1.00  0.00     0.210 HD
ENDBRANCH  16  37
BRANCH  15  39
HETATM   39  O7  UNL     1      28.850   3.894  37.928  1.00  0.00    -0.383 OA
ATOM     40  H7  UNL     1      29.555   4.527  37.860  1.00  0.00     0.210 HD
ENDBRANCH  15  39
BRANCH   9  41
HETATM   41  C26 UNL     1      24.951   2.112  34.678  1.00  0.00     0.132 C
HETATM   42  C27 UNL     1      23.669   1.641  35.261  1.00  0.00     0.091 C
HETATM   43  O6  UNL     1      25.608   1.346  34.024  1.00  0.00    -0.298 OA
ENDBRANCH   9  41
BRANCH  11  44
HETATM   44  C29 UNL     1      26.269   4.837  32.975  1.00  0.00     0.120 C
HETATM   45 CL1  UNL     1      27.075   6.378  33.441  1.00  0.00    -0.130 Cl
ENDBRANCH  11  44
TORSDOF 6
ENDMDL