MODEL 1
REMARK VINA RESULT: -7.047707812      0.000      0.000
REMARK  2 active torsions:
REMARK  status: ('A' for Active; 'I' for Inactive)
REMARK    1  A    between atoms: N2_15  and  C12_16
REMARK    2  A    between atoms: C12_16  and  C13_17
ROOT
HETATM    1  C1  UNL     1     -38.322   6.001  21.354  1.00  0.00     0.082 C
HETATM    2  C2  UNL     1     -39.175   6.998  20.578  1.00  0.00     0.211 C
HETATM    3  O1  UNL     1     -39.158   6.826  19.221  1.00  0.00    -0.386 OA
HETATM    4  C3  UNL     1     -38.745   7.934  18.491  1.00  0.00     0.168 C
HETATM    5  C4  UNL     1     -37.457   7.635  17.703  1.00  0.00     0.031 C
HETATM    6  C5  UNL     1     -36.681   6.720  18.578  1.00  0.00    -0.003 C
HETATM    7  C6  UNL     1     -35.616   5.890  17.855  1.00  0.00     0.041 C
HETATM    8  C7  UNL     1     -34.707   5.447  18.989  1.00  0.00     0.225 C
HETATM    9  C8  UNL     1     -35.456   5.178  20.275  1.00  0.00     0.061 C
HETATM   10  C9  UNL     1     -35.949   6.456  20.882  1.00  0.00     0.089 C
HETATM   11  N1  UNL     1     -37.051   6.455  21.709  1.00  0.00    -0.395 N
ATOM     12  H1  UNL     1     -36.929   6.814  22.656  1.00  0.00     0.159 HD
HETATM   13  C10 UNL     1     -35.962   7.426  19.699  1.00  0.00     0.041 C
HETATM   14  C11 UNL     1     -34.510   7.721  19.377  1.00  0.00     0.280 C
HETATM   15  N2  UNL     1     -33.751   6.538  19.101  1.00  0.00     0.094 N
ENDROOT
BRANCH  15  16
HETATM   16  C12 UNL     1     -32.675   6.252  19.951  1.00  0.00     0.277 C
BRANCH  16  17
HETATM   17  C13 UNL     1     -32.354   7.253  20.979  1.00  0.00     0.014 A
HETATM   18  C14 UNL     1     -30.916   7.161  21.590  1.00  0.00     0.007 A
HETATM   19  C15 UNL     1     -31.432   8.373  20.900  1.00  0.00     0.007 A
ENDBRANCH  16  17
ENDBRANCH  15  16
TORSDOF 2
ENDMDL