MODEL 1
REMARK VINA RESULT: -6.674039710      0.000      0.000
REMARK  7 active torsions:
REMARK  status: ('A' for Active; 'I' for Inactive)
REMARK    1  A    between atoms: C3_3  and  C4_4
REMARK    2  A    between atoms: C4_4  and  C5_5
REMARK    3  A    between atoms: C5_5  and  C6_6
REMARK    4  A    between atoms: C6_6  and  C7_7
REMARK    5  A    between atoms: C7_7  and  C8_8
REMARK    6  A    between atoms: C8_8  and  C9_9
REMARK       I    between atoms: C9_9  and  N1_11
REMARK    7  A    between atoms: N1_11  and  C10_13
ROOT
HETATM    1  C1  UNL     1     -29.609   4.716  23.257  1.00  0.00     0.113 C
HETATM    2  C2  UNL     1     -30.283   5.792  22.531  1.00  0.00    -0.097 C
HETATM    3  C3  UNL     1     -30.835   6.680  21.910  1.00  0.00    -0.015 C
ENDROOT
BRANCH   3   4
HETATM    4  C4  UNL     1     -31.460   7.712  21.168  1.00  0.00    -0.015 C
BRANCH   4   5
HETATM    5  C5  UNL     1     -31.989   8.603  20.551  1.00  0.00    -0.092 C
BRANCH   5   6
HETATM    6  C6  UNL     1     -32.648   9.713  19.813  1.00  0.00     0.095 C
BRANCH   6   7
HETATM    7  C7  UNL     1     -32.059  10.974  20.337  1.00  0.00     0.021 C
BRANCH   7   8
HETATM    8  C8  UNL     1     -31.817  11.014  21.803  1.00  0.00     0.104 C
BRANCH   8   9
HETATM    9  C9  UNL     1     -30.449  11.426  22.178  1.00  0.00     0.223 C
HETATM   10  O1  UNL     1     -29.472  10.679  21.911  1.00  0.00    -0.273 OA
HETATM   11  N1  UNL     1     -30.222  12.687  22.855  1.00  0.00    -0.306 N
ATOM     12  H1  UNL     1     -30.605  13.574  22.529  1.00  0.00     0.171 HD
BRANCH  11  13
HETATM   13  C10 UNL     1     -29.473  12.575  23.930  1.00  0.00     0.167 A
HETATM   14  N2  UNL     1     -29.687  11.785  24.982  1.00  0.00    -0.279 N
HETATM   15  N3  UNL     1     -28.856  11.803  25.943  1.00  0.00    -0.296 N
ATOM     16  H2  UNL     1     -30.505  11.176  25.016  1.00  0.00     0.189 HD
HETATM   17  C11 UNL     1     -27.797  12.597  25.894  1.00  0.00     0.066 A
ATOM     18  H3  UNL     1     -29.006  11.204  26.755  1.00  0.00     0.187 HD
HETATM   19  C12 UNL     1     -26.698  12.776  26.906  1.00  0.00     0.078 C
HETATM   20  S1  UNL     1     -28.017  13.357  24.373  1.00  0.00    -0.038 SA
ENDBRANCH  11  13
ENDBRANCH   8   9
ENDBRANCH   7   8
ENDBRANCH   6   7
ENDBRANCH   5   6
ENDBRANCH   4   5
ENDBRANCH   3   4
TORSDOF 7
ENDMDL