MODEL 1
REMARK VINA RESULT: -6.536340527      0.000      0.000
REMARK  5 active torsions:
REMARK  status: ('A' for Active; 'I' for Inactive)
REMARK    1  A    between atoms: N1_2  and  C3_4
REMARK    2  A    between atoms: C3_4  and  C4_5
REMARK    3  A    between atoms: N2_6  and  C5_8
REMARK    4  A    between atoms: C8_13  and  C9_14
REMARK    5  A    between atoms: C10_15  and  C11_16
ROOT
HETATM    1  C5  UNL     1     -29.985  11.754  23.369  1.00  0.00     0.107 A
HETATM    2  C6  UNL     1     -29.699  12.769  22.491  1.00  0.00     0.065 A
HETATM    3  C7  UNL     1     -30.113  12.756  21.175  1.00  0.00     0.094 A
HETATM    4  N3  UNL     1     -30.824  11.703  20.749  1.00  0.00    -0.345 N
ATOM      5  H3  UNL     1     -31.147  11.663  19.782  1.00  0.00     0.167 HD
HETATM    6  C8  UNL     1     -31.112  10.703  21.594  1.00  0.00     0.162 A
HETATM    7  N4  UNL     1     -30.717  10.710  22.861  1.00  0.00    -0.321 N
ATOM      8  H4  UNL     1     -30.960   9.926  23.467  1.00  0.00     0.169 HD
ENDROOT
BRANCH   1   9
HETATM    9  N2  UNL     1     -29.661  11.682  24.538  1.00  0.00    -0.354 N
HETATM   10  C4  UNL     1     -28.968  12.099  25.618  1.00  0.00     0.092 C
ATOM     11  H2  UNL     1     -30.194  10.886  24.887  1.00  0.00     0.166 HD
BRANCH  10  12
HETATM   12  C3  UNL     1     -27.682  12.845  25.289  1.00  0.00     0.315 C
BRANCH  12  13
HETATM   13  N1  UNL     1     -26.629  12.325  26.103  1.00  0.00     0.084 N
HETATM   14  C1  UNL     1     -26.592  12.843  27.440  1.00  0.00     0.309 C
HETATM   15  C2  UNL     1     -25.345  12.458  25.428  1.00  0.00     0.309 C
ENDBRANCH  12  13
ENDBRANCH  10  12
ENDBRANCH   1   9
BRANCH   6  16
HETATM   16  C9  UNL     1     -31.888   9.586  21.094  1.00  0.00    -0.029 C
HETATM   17  C10 UNL     1     -32.552   8.653  20.694  1.00  0.00    -0.089 C
BRANCH  17  18
HETATM   18  C11 UNL     1     -33.376   7.540  20.223  1.00  0.00     0.013 C
HETATM   19  C12 UNL     1     -33.962   7.945  18.875  1.00  0.00     0.028 C
HETATM   20  C13 UNL     1     -32.539   6.302  20.098  1.00  0.00     0.028 C
HETATM   21  C14 UNL     1     -34.525   7.355  21.197  1.00  0.00     0.028 C
ENDBRANCH  17  18
ENDBRANCH   6  16
TORSDOF 5
ENDMDL