MODEL 3
REMARK VINA RESULT: -5.735368593      2.773      4.692
REMARK  4 active torsions:
REMARK  status: ('A' for Active; 'I' for Inactive)
REMARK    1  A    between atoms: N1_1  and  C1_5
REMARK    2  A    between atoms: C1_5  and  C2_6
REMARK    3  A    between atoms: C2_6  and  S1_7
REMARK    4  A    between atoms: S1_7  and  N2_10
ROOT
HETATM    1  S1  UNL     1     -35.741   6.414  19.946  1.00  0.00     0.213 S
HETATM    2  O1  UNL     1     -35.589   6.858  18.495  1.00  0.00    -0.211 OA
HETATM    3  O2  UNL     1     -35.572   4.894  19.868  1.00  0.00    -0.211 OA
ENDROOT
BRANCH   1   4
HETATM    4  C2  UNL     1     -34.482   7.003  20.968  1.00  0.00     0.196 C
BRANCH   4   5
HETATM    5  C1  UNL     1     -33.107   7.097  20.458  1.00  0.00     0.137 C
HETATM    6  C9  UNL     1     -31.943   7.295  21.325  1.00  0.00     0.040 C
HETATM    7  C10 UNL     1     -31.839   8.773  20.938  1.00  0.00     0.005 C
HETATM    8  C11 UNL     1     -32.838   8.482  19.843  1.00  0.00     0.040 C
BRANCH   5   9
HETATM    9  N1  UNL     1     -32.885   6.124  19.363  1.00  0.00    -0.069 N
ATOM     10  H13 UNL     1     -33.109   5.172  19.652  1.00  0.00     0.275 HD
ATOM     11  H12 UNL     1     -33.578   6.226  18.621  1.00  0.00     0.275 HD
ATOM     12  H11 UNL     1     -31.933   6.196  19.002  1.00  0.00     0.275 HD
ENDBRANCH   5   9
ENDBRANCH   4   5
ENDBRANCH   1   4
BRANCH   1  13
HETATM   13  N2  UNL     1     -37.336   6.704  20.405  1.00  0.00    -0.211 NA
HETATM   14  C3  UNL     1     -37.834   8.019  20.126  1.00  0.00     0.107 C
HETATM   15  C4  UNL     1     -37.565   9.023  21.202  1.00  0.00     0.015 C
HETATM   16  C5  UNL     1     -38.241   8.734  22.503  1.00  0.00     0.001 C
HETATM   17  C6  UNL     1     -39.412   7.806  22.399  1.00  0.00     0.001 C
HETATM   18  C7  UNL     1     -39.022   6.379  22.155  1.00  0.00     0.015 C
HETATM   19  C8  UNL     1     -37.583   6.231  21.725  1.00  0.00     0.107 C
ENDBRANCH   1  13
TORSDOF 4
ENDMDL