MODEL 3
REMARK VINA RESULT: -6.812942351      2.385      6.104
REMARK  3 active torsions:
REMARK  status: ('A' for Active; 'I' for Inactive)
REMARK       I    between atoms: C1_2  and  N1_3
REMARK    1  A    between atoms: C1_2  and  C8_12
REMARK    2  A    between atoms: N1_3  and  C2_5
REMARK    3  A    between atoms: C2_5  and  C3_6
ROOT
HETATM    1  O1  UNL     1     -35.605   6.896  19.016  1.00  0.00    -0.273 OA
HETATM    2  C1  UNL     1     -35.195   7.439  20.072  1.00  0.00     0.224 C
HETATM    3  N1  UNL     1     -35.883   8.534  20.628  1.00  0.00    -0.360 N
ATOM      4  H1  UNL     1     -35.545   8.970  21.485  1.00  0.00     0.162 HD
ENDROOT
BRANCH   2   5
HETATM    5  C8  UNL     1     -33.968   6.886  20.700  1.00  0.00     0.115 A
HETATM    6  C9  UNL     1     -32.992   6.300  19.720  1.00  0.00     0.056 A
HETATM    7  C10 UNL     1     -32.645   7.545  20.446  1.00  0.00     0.074 A
HETATM    8  C11 UNL     1     -31.656   7.445  21.554  1.00  0.00     0.039 C
HETATM    9  O3  UNL     1     -32.702   8.780  19.834  1.00  0.00    -0.379 OA
HETATM   10  C12 UNL     1     -30.598   8.525  21.525  1.00  0.00     0.005 C
HETATM   11  C13 UNL     1     -31.195   9.886  21.235  1.00  0.00     0.026 C
HETATM   12  C14 UNL     1     -32.655   9.758  20.825  1.00  0.00     0.168 C
ENDBRANCH   2   5
BRANCH   3  13
HETATM   13  C2  UNL     1     -37.066   9.031  19.981  1.00  0.00     0.127 C
BRANCH  13  14
HETATM   14  C3  UNL     1     -38.329   8.657  20.749  1.00  0.00     0.007 C
HETATM   15  C4  UNL     1     -38.051   8.892  22.196  1.00  0.00     0.032 C
HETATM   16  C5  UNL     1     -38.980   8.166  23.124  1.00  0.00     0.168 C
HETATM   17  O2  UNL     1     -39.414   6.957  22.654  1.00  0.00    -0.391 OA
HETATM   18  C6  UNL     1     -38.631   6.410  21.655  1.00  0.00     0.168 C
HETATM   19  C7  UNL     1     -38.807   7.288  20.420  1.00  0.00     0.032 C
ENDBRANCH  13  14
ENDBRANCH   3  13
TORSDOF 3
ENDMDL