MODEL 4
REMARK VINA RESULT: -5.238986426      0.155      1.105
REMARK  4 active torsions:
REMARK  status: ('A' for Active; 'I' for Inactive)
REMARK    1  A    between atoms: N1_2  and  C3_4
REMARK    2  A    between atoms: C3_4  and  C4_5
REMARK    3  A    between atoms: C4_5  and  N2_6
REMARK    4  A    between atoms: C5_8  and  C6_9
ROOT
HETATM    1  N2  UNL     1     -33.863   9.412  20.090  1.00  0.00    -0.294 N
HETATM    2  S1  UNL     1     -32.235   9.052  20.667  1.00  0.00    -0.024 SA
HETATM    3  C5  UNL     1     -31.671  10.808  20.718  1.00  0.00     0.175 C
HETATM    4  N3  UNL     1     -32.971  11.412  20.989  1.00  0.00    -0.351 N
ATOM      5  H3  UNL     1     -33.108  12.193  21.630  1.00  0.00     0.163 HD
HETATM    6  C10 UNL     1     -34.014  10.801  20.273  1.00  0.00     0.181 C
HETATM    7  S2  UNL     1     -35.296  11.697  19.713  1.00  0.00    -0.040 SA
ENDROOT
BRANCH   1   8
HETATM    8  C4  UNL     1     -34.765   8.482  19.531  1.00  0.00     0.169 C
BRANCH   8   9
HETATM    9  C3  UNL     1     -35.123   7.256  20.281  1.00  0.00     0.292 C
BRANCH   9  10
HETATM   10  N1  UNL     1     -34.967   5.994  19.689  1.00  0.00     0.081 N
HETATM   11  C1  UNL     1     -33.615   5.608  19.485  1.00  0.00     0.309 C
HETATM   12  C2  UNL     1     -35.660   4.979  20.459  1.00  0.00     0.309 C
ENDBRANCH   9  10
ENDBRANCH   8   9
ENDBRANCH   1   8
BRANCH   3  13
HETATM   13  C6  UNL     1     -30.654  11.029  21.760  1.00  0.00    -0.020 C
HETATM   14  C7  UNL     1     -29.635   9.936  21.885  1.00  0.00     0.017 C
HETATM   15  C8  UNL     1     -29.869  12.287  21.342  1.00  0.00     0.017 C
HETATM   16  C9  UNL     1     -31.313  11.377  23.062  1.00  0.00     0.017 C
ENDBRANCH   3  13
TORSDOF 4
ENDMDL