MODEL 5
REMARK VINA RESULT: -6.287351431      2.348      6.601
REMARK  3 active torsions:
REMARK  status: ('A' for Active; 'I' for Inactive)
REMARK    1  A    between atoms: C4_4  and  N1_5
REMARK    2  A    between atoms: N2_9  and  C8_10
REMARK    3  A    between atoms: C8_10  and  C9_11
ROOT
HETATM    1  N1  UNL     1     -32.812   8.881  20.206  1.00  0.00     0.121 N
HETATM    2  C5  UNL     1     -33.436  10.064  19.720  1.00  0.00     0.280 C
HETATM    3  C6  UNL     1     -32.947  11.319  20.415  1.00  0.00     0.075 C
HETATM    4  C7  UNL     1     -31.440  11.394  20.436  1.00  0.00     0.065 C
HETATM    5  N2  UNL     1     -30.798  10.846  21.548  1.00  0.00    -0.372 N
HETATM    6  C12 UNL     1     -30.863   9.402  21.476  1.00  0.00     0.157 C
HETATM    7  C13 UNL     1     -32.308   8.965  21.549  1.00  0.00     0.295 C
ENDROOT
BRANCH   1   8
HETATM    8  C4  UNL     1     -33.533   7.667  20.019  1.00  0.00     0.419 C
HETATM    9  C3  UNL     1     -32.650   6.433  20.080  1.00  0.00     0.065 C
HETATM   10  C2  UNL     1     -33.427   5.333  19.394  1.00  0.00     0.005 C
HETATM   11  C1  UNL     1     -34.913   5.499  19.521  1.00  0.00     0.028 C
HETATM   12  C14 UNL     1     -35.350   6.293  20.697  1.00  0.00     0.235 C
HETATM   13  N3  UNL     1     -34.592   7.466  20.970  1.00  0.00    -0.043 N
ATOM     14  H32 UNL     1     -34.233   7.457  21.925  1.00  0.00     0.279 HD
ATOM     15  H31 UNL     1     -35.194   8.287  21.030  1.00  0.00     0.279 HD
ENDBRANCH   1   8
BRANCH   5  16
HETATM   16  C8  UNL     1     -30.934  11.380  22.833  1.00  0.00     0.067 C
BRANCH  16  17
HETATM   17  C9  UNL     1     -29.693  11.541  23.665  1.00  0.00     0.024 A
HETATM   18  C10 UNL     1     -29.219  12.809  24.213  1.00  0.00     0.010 A
HETATM   19  C11 UNL     1     -29.811  11.783  25.171  1.00  0.00     0.010 A
ENDBRANCH  16  17
ENDBRANCH   5  16
TORSDOF 3
ENDMDL