MODEL 5
REMARK VINA RESULT: -5.819631362      1.863      4.419
REMARK  4 active torsions:
REMARK  status: ('A' for Active; 'I' for Inactive)
REMARK    1  A    between atoms: C2_2  and  N1_3
REMARK    2  A    between atoms: C5_8  and  O1_9
REMARK    3  A    between atoms: C7_11  and  O2_12
REMARK    4  A    between atoms: C11_16  and  C12_17
ROOT
HETATM    1  N1  UNL     1     -33.924  10.999  19.326  1.00  0.00    -0.290 N
HETATM    2  N2  UNL     1     -34.531   9.875  18.983  1.00  0.00    -0.297 N
ATOM      3  H2  UNL     1     -35.406   9.798  18.465  1.00  0.00     0.187 HD
HETATM    4  C3  UNL     1     -33.796   8.867  19.434  1.00  0.00     0.063 A
HETATM    5  C4  UNL     1     -33.958   7.478  19.358  1.00  0.00     0.071 A
HETATM    6  C5  UNL     1     -33.025   6.648  19.924  1.00  0.00     0.103 A
HETATM    7  C7  UNL     1     -31.904   7.147  20.582  1.00  0.00     0.102 A
HETATM    8  C9  UNL     1     -31.739   8.505  20.659  1.00  0.00     0.055 A
HETATM    9  C10 UNL     1     -32.682   9.336  20.087  1.00  0.00     0.025 A
HETATM   10  C11 UNL     1     -32.792  10.733  20.002  1.00  0.00     0.078 A
ENDROOT
BRANCH  10  11
HETATM   11  C12 UNL     1     -31.826  11.632  20.577  1.00  0.00     0.115 C
HETATM   12  N3  UNL     1     -31.419  11.482  21.763  1.00  0.00    -0.401 N
HETATM   13  C13 UNL     1     -30.474  12.277  22.471  1.00  0.00     0.145 C
ATOM     14  H3  UNL     1     -31.816  10.695  22.277  1.00  0.00     0.158 HD
ENDBRANCH  10  11
BRANCH   1  15
HETATM   15  C2  UNL     1     -34.448  12.309  18.982  1.00  0.00     0.145 C
HETATM   16  C1  UNL     1     -34.815  12.447  17.541  1.00  0.00     0.028 C
ENDBRANCH   1  15
BRANCH   7  17
HETATM   17  O2  UNL     1     -31.010   6.237  21.125  1.00  0.00    -0.353 OA
HETATM   18  C8  UNL     1     -29.975   6.692  21.982  1.00  0.00     0.210 C
ENDBRANCH   7  17
BRANCH   6  19
HETATM   19  O1  UNL     1     -33.173   5.269  19.857  1.00  0.00    -0.353 OA
HETATM   20  C6  UNL     1     -34.414   4.755  19.427  1.00  0.00     0.210 C
ENDBRANCH   6  19
TORSDOF 4
ENDMDL