MODEL 1
REMARK VINA RESULT: -5.442746896      0.000      0.000
REMARK  2 active torsions:
REMARK  status: ('A' for Active; 'I' for Inactive)
REMARK    1  A    between atoms: O1_3  and  C2_4
REMARK    2  A    between atoms: C5_8  and  C6_9
ROOT
HETATM    1  N1  UNL     1     -40.579   3.835   8.192  1.00  0.00    -0.164 NA
HETATM    2  C1  UNL     1     -39.915   4.784   8.213  1.00  0.00     0.231 C
HETATM    3  O1  UNL     1     -39.109   5.906   8.227  1.00  0.00    -0.248 OA
ENDROOT
BRANCH   3   4
HETATM    4  C2  UNL     1     -37.746   5.877   7.900  1.00  0.00     0.310 C
HETATM    5  O2  UNL     1     -36.974   5.823   9.083  1.00  0.00    -0.349 OA
HETATM    6  C3  UNL     1     -36.735   7.204   9.006  1.00  0.00     0.159 C
HETATM    7  C4  UNL     1     -35.278   7.459   9.259  1.00  0.00     0.052 C
HETATM    8  C8  UNL     1     -37.137   7.232   7.579  1.00  0.00     0.206 C
HETATM    9  C5  UNL     1     -34.703   8.376   8.207  1.00  0.00     0.113 C
HETATM   10  C7  UNL     1     -34.999   7.842   6.862  1.00  0.00     0.184 C
HETATM   11  O5  UNL     1     -36.200   7.293   6.642  1.00  0.00    -0.377 OA
BRANCH   9  12
HETATM   12  C6  UNL     1     -33.236   8.435   8.440  1.00  0.00     0.179 C
HETATM   13  O3  UNL     1     -32.808   8.410   9.600  1.00  0.00    -0.648 OA
HETATM   14  O4  UNL     1     -32.316   8.517   7.407  1.00  0.00    -0.648 OA
ENDBRANCH   9  12
ENDBRANCH   3   4
TORSDOF 2
ENDMDL