MODEL 3
REMARK VINA RESULT: -4.547950431      4.318      5.333
REMARK  5 active torsions:
REMARK  status: ('A' for Active; 'I' for Inactive)
REMARK    1  A    between atoms: N1_1  and  N2_4
REMARK    2  A    between atoms: N2_4  and  N3_5
REMARK    3  A    between atoms: N3_5  and  C1_7
REMARK    4  A    between atoms: C3_9  and  S1_10
REMARK    5  A    between atoms: S1_10  and  N4_11
ROOT
HETATM    1  C1  UNL     1     -34.952   6.893  10.900  1.00  0.00     0.251 C
HETATM    2  C2  UNL     1     -35.255   7.643  12.166  1.00  0.00     0.080 C
HETATM    3  C3  UNL     1     -35.546   6.538  13.151  1.00  0.00     0.157 C
HETATM    4  C4  UNL     1     -35.561   5.291  12.335  1.00  0.00     0.192 C
HETATM    5  O3  UNL     1     -35.515   5.647  10.995  1.00  0.00    -0.363 OA
ENDROOT
BRANCH   1   6
HETATM    6  N3  UNL     1     -35.564   7.550   9.735  1.00  0.00    -0.223 N
ATOM      7  H3  UNL     1     -35.555   8.565   9.637  1.00  0.00     0.200 HD
BRANCH   6   8
HETATM    8  N2  UNL     1     -36.097   6.824   8.871  1.00  0.00    -0.246 NA
BRANCH   8   9
HETATM    9  N1  UNL     1     -36.721   6.057   8.152  1.00  0.00    -0.261 N
ATOM     10  H12 UNL     1     -35.886   6.042   7.565  1.00  0.00     0.193 HD
ATOM     11  H11 UNL     1     -37.348   5.431   7.646  1.00  0.00     0.193 HD
ENDBRANCH   8   9
ENDBRANCH   6   8
ENDBRANCH   1   6
BRANCH   3  12
HETATM   12  S1  UNL     1     -34.269   6.403  14.372  1.00  0.00     0.230 S
HETATM   13  O1  UNL     1     -33.171   5.543  13.817  1.00  0.00    -0.206 OA
HETATM   14  O2  UNL     1     -33.785   7.791  14.682  1.00  0.00    -0.206 OA
BRANCH  12  15
HETATM   15  N4  UNL     1     -34.830   5.671  15.817  1.00  0.00    -0.328 N
ATOM     16  H42 UNL     1     -35.733   5.203  15.890  1.00  0.00     0.168 HD
ATOM     17  H41 UNL     1     -34.159   5.762  16.580  1.00  0.00     0.168 HD
ENDBRANCH  12  15
ENDBRANCH   3  12
TORSDOF 5
ENDMDL