MODEL 1
REMARK VINA RESULT: -5.364385436      0.000      0.000
REMARK  3 active torsions:
REMARK  status: ('A' for Active; 'I' for Inactive)
REMARK    1  A    between atoms: C2_2  and  C4_4
REMARK    2  A    between atoms: C4_4  and  N4_11
REMARK    3  A    between atoms: N1_5  and  N2_7
ROOT
HETATM    1  N2  UNL     1     -34.449   8.548  16.627  1.00  0.00    -0.235 N
ATOM      2  H2  UNL     1     -35.431   8.557  16.351  1.00  0.00     0.199 HD
HETATM    3  C5  UNL     1     -33.539   7.773  15.917  1.00  0.00     0.197 C
HETATM    4  N3  UNL     1     -32.768   7.130  15.317  1.00  0.00    -0.170 NA
ENDROOT
BRANCH   1   5
HETATM    5  N1  UNL     1     -34.035   9.294  17.688  1.00  0.00    -0.276 N
HETATM    6  C4  UNL     1     -33.921   8.955  18.900  1.00  0.00     0.123 C
ATOM      7  H1  UNL     1     -33.783  10.259  17.476  1.00  0.00     0.189 HD
BRANCH   6   8
HETATM    8  C2  UNL     1     -33.450   9.960  19.846  1.00  0.00    -0.026 C
HETATM    9  C1  UNL     1     -32.377   9.771  20.576  1.00  0.00     0.022 C
HETATM   10  C3  UNL     1     -34.199  11.259  20.007  1.00  0.00     0.051 C
ENDBRANCH   6   8
BRANCH   6  11
HETATM   11  N4  UNL     1     -34.218   7.662  19.410  1.00  0.00    -0.362 N
HETATM   12  C6  UNL     1     -33.212   6.624  19.573  1.00  0.00     0.150 C
HETATM   13  C7  UNL     1     -33.864   5.338  19.050  1.00  0.00     0.187 C
HETATM   14  O1  UNL     1     -34.949   4.974  19.806  1.00  0.00    -0.388 OA
HETATM   15  C8  UNL     1     -35.457   5.994  20.584  1.00  0.00     0.187 C
HETATM   16  C9  UNL     1     -35.576   7.293  19.807  1.00  0.00     0.150 C
ENDBRANCH   6  11
ENDBRANCH   1   5
TORSDOF 3
ENDMDL