MODEL 3
REMARK VINA RESULT: -5.422708472      1.718      2.152
REMARK  3 active torsions:
REMARK  status: ('A' for Active; 'I' for Inactive)
REMARK    1  A    between atoms: C1_2  and  C2_3
REMARK       I    between atoms: C1_2  and  N2_7
REMARK    2  A    between atoms: C2_3  and  N1_4
REMARK       I    between atoms: N2_7  and  C3_9
REMARK    3  A    between atoms: C3_9  and  C4_11
ROOT
HETATM    1  O1  UNL     1     -36.237   6.114  16.824  1.00  0.00    -0.271 OA
HETATM    2  C1  UNL     1     -35.192   6.447  17.411  1.00  0.00     0.248 C
HETATM    3  N2  UNL     1     -33.960   6.822  16.839  1.00  0.00    -0.290 N
ATOM      4  H2  UNL     1     -33.240   7.057  17.522  1.00  0.00     0.172 HD
HETATM    5  C3  UNL     1     -33.552   6.928  15.538  1.00  0.00     0.281 C
HETATM    6  O4  UNL     1     -32.336   7.303  15.290  1.00  0.00    -0.265 OA
ENDROOT
BRANCH   2   7
HETATM    7  C2  UNL     1     -35.315   6.431  18.925  1.00  0.00     0.304 C
BRANCH   7   8
HETATM    8  N1  UNL     1     -34.668   5.268  19.475  1.00  0.00    -0.147 N
HETATM    9  O2  UNL     1     -33.610   4.853  18.976  1.00  0.00    -0.536 OA
HETATM   10  O3  UNL     1     -35.232   4.633  20.546  1.00  0.00    -0.536 OA
ENDBRANCH   7   8
ENDBRANCH   2   7
BRANCH   5  11
HETATM   11  C4  UNL     1     -34.346   6.664  14.354  1.00  0.00     0.142 A
HETATM   12  C5  UNL     1     -34.171   5.588  13.468  1.00  0.00     0.045 A
HETATM   13  C6  UNL     1     -35.123   5.713  12.494  1.00  0.00     0.027 A
HETATM   14  C7  UNL     1     -35.857   6.836  12.779  1.00  0.00     0.143 A
HETATM   15  O5  UNL     1     -35.345   7.322  13.862  1.00  0.00    -0.317 OA
ENDBRANCH   5  11
TORSDOF 3
ENDMDL