MODEL 1
REMARK VINA RESULT: -5.865012292      0.000      0.000
REMARK  2 active torsions:
REMARK  status: ('A' for Active; 'I' for Inactive)
REMARK    1  A    between atoms: N2_9  and  N3_11
REMARK    2  A    between atoms: C8_13  and  C9_15
ROOT
HETATM    1  N1  UNL     1     -39.277   7.582  10.179  1.00  0.00    -0.197 NA
HETATM    2  C1  UNL     1     -38.470   7.109   9.472  1.00  0.00     0.070 C
HETATM    3  C2  UNL     1     -37.463   6.515   8.601  1.00  0.00     0.140 C
HETATM    4  C3  UNL     1     -37.478   5.011   8.853  1.00  0.00     0.025 C
HETATM    5  C4  UNL     1     -37.258   4.684  10.280  1.00  0.00     0.002 C
HETATM    6  C5  UNL     1     -36.192   5.412  10.979  1.00  0.00     0.006 C
HETATM    7  C6  UNL     1     -35.701   6.677  10.391  1.00  0.00     0.055 C
HETATM    8  C7  UNL     1     -36.098   6.941   9.008  1.00  0.00     0.021 C
HETATM    9  N2  UNL     1     -35.367   7.513   8.110  1.00  0.00    -0.306 N
ATOM     10  H2  UNL     1     -35.713   7.664   7.163  1.00  0.00     0.186 HD
ENDROOT
BRANCH   9  11
HETATM   11  N3  UNL     1     -34.092   7.914   8.485  1.00  0.00    -0.285 N
HETATM   12  C8  UNL     1     -33.176   8.231   7.608  1.00  0.00     0.168 C
HETATM   13  N4  UNL     1     -31.929   8.618   8.145  1.00  0.00    -0.078 NA
ATOM     14  H3  UNL     1     -33.862   7.962   9.477  1.00  0.00     0.188 HD
BRANCH  12  15
HETATM   15  C9  UNL     1     -33.406   8.192   6.191  1.00  0.00     0.304 C
HETATM   16  O1  UNL     1     -33.458   7.116   5.561  1.00  0.00    -0.299 OA
ENDBRANCH  12  15
ENDBRANCH   9  11
TORSDOF 2
ENDMDL