MODEL 1
REMARK VINA RESULT: -5.017509239      0.000      0.000
REMARK  2 active torsions:
REMARK  status: ('A' for Active; 'I' for Inactive)
REMARK    1  A    between atoms: C2_3  and  N2_4
REMARK    2  A    between atoms: N2_4  and  C3_7
ROOT
HETATM    1  N1  UNL     1     -34.318   5.322  18.353  1.00  0.00    -0.196 NA
HETATM    2  C1  UNL     1     -34.706   5.717  17.314  1.00  0.00     0.086 C
HETATM    3  C2  UNL     1     -35.136   6.196  16.017  1.00  0.00     0.356 C
ENDROOT
BRANCH   3   4
HETATM    4  N2  UNL     1     -34.472   5.409  14.977  1.00  0.00    -0.057 N
ATOM      5  H22 UNL     1     -33.599   4.973  15.277  1.00  0.00     0.278 HD
ATOM      6  H21 UNL     1     -34.955   4.542  14.739  1.00  0.00     0.278 HD
BRANCH   4   7
HETATM    7  C3  UNL     1     -34.324   6.332  13.864  1.00  0.00     0.218 C
HETATM    8  C4  UNL     1     -35.026   7.653  14.079  1.00  0.00     0.207 C
HETATM    9  O1  UNL     1     -35.412   8.108  12.828  1.00  0.00    -0.331 OA
HETATM   10  C5  UNL     1     -35.271   7.113  11.904  1.00  0.00     0.284 C
HETATM   11  C6  UNL     1     -35.163   5.816  12.670  1.00  0.00     0.137 C
HETATM   12  O2  UNL     1     -34.107   7.316  11.193  1.00  0.00    -0.331 OA
HETATM   13  O3  UNL     1     -36.310   6.981  11.014  1.00  0.00    -0.331 OA
HETATM   14  C7  UNL     1     -34.518   7.778   9.944  1.00  0.00     0.200 C
HETATM   15  C8  UNL     1     -35.748   6.942   9.720  1.00  0.00     0.200 C
ENDBRANCH   4   7
ENDBRANCH   3   4
TORSDOF 2
ENDMDL