MODEL 5
REMARK VINA RESULT: -5.377747205      3.761      5.680
REMARK  2 active torsions:
REMARK  status: ('A' for Active; 'I' for Inactive)
REMARK       I    between atoms: C1_2  and  N1_3
REMARK    1  A    between atoms: C1_2  and  C5_11
REMARK    2  A    between atoms: N1_3  and  N2_5
ROOT
HETATM    1  O1  UNL     1     -36.202   8.327  10.038  1.00  0.00    -0.264 OA
HETATM    2  C1  UNL     1     -35.062   7.812   9.944  1.00  0.00     0.289 C
HETATM    3  N1  UNL     1     -34.593   7.071  11.059  1.00  0.00    -0.281 N
ATOM      4  H1  UNL     1     -33.667   6.647  10.997  1.00  0.00     0.184 HD
ENDROOT
BRANCH   3   5
HETATM    5  N2  UNL     1     -35.304   6.890  12.211  1.00  0.00    -0.200 NA
HETATM    6  C2  UNL     1     -35.328   5.550  12.717  1.00  0.00     0.145 C
HETATM    7  C3  UNL     1     -34.254   5.306  13.759  1.00  0.00     0.226 C
HETATM    8  O2  UNL     1     -33.522   6.457  13.971  1.00  0.00    -0.239 OA
HETATM    9  O3  UNL     1     -34.339   7.422  14.293  1.00  0.00    -0.225 OA
HETATM   10  C4  UNL     1     -35.077   7.891  13.216  1.00  0.00     0.323 C
ENDBRANCH   3   5
BRANCH   2  11
HETATM   11  C5  UNL     1     -34.260   7.978   8.730  1.00  0.00     0.143 A
HETATM   12  C6  UNL     1     -32.938   8.268   8.661  1.00  0.00     0.045 A
HETATM   13  C7  UNL     1     -32.614   8.327   7.323  1.00  0.00     0.027 A
HETATM   14  C8  UNL     1     -33.774   8.065   6.621  1.00  0.00     0.143 A
HETATM   15  O4  UNL     1     -34.705   7.868   7.522  1.00  0.00    -0.317 OA
ENDBRANCH   2  11
TORSDOF 2
ENDMDL