MODEL 1
REMARK VINA RESULT: -6.183480583      0.000      0.000
REMARK  3 active torsions:
REMARK  status: ('A' for Active; 'I' for Inactive)
REMARK    1  A    between atoms: C8_9  and  O1_10
REMARK    2  A    between atoms: O1_10  and  N2_11
REMARK    3  A    between atoms: N2_11  and  O2_13
ROOT
HETATM    1  N1  UNL     1     -34.665   4.921  20.089  1.00  0.00    -0.195 NA
HETATM    2  C1  UNL     1     -34.804   5.604  19.145  1.00  0.00     0.099 C
HETATM    3  C2  UNL     1     -34.985   6.447  17.980  1.00  0.00     0.214 C
HETATM    4  C3  UNL     1     -36.244   7.265  18.101  1.00  0.00     0.059 C
HETATM    5  C4  UNL     1     -36.408   8.147  16.892  1.00  0.00    -0.009 C
HETATM    6  C5  UNL     1     -35.190   9.010  16.767  1.00  0.00     0.012 C
HETATM    7  C6  UNL     1     -33.952   8.161  16.595  1.00  0.00     0.023 C
HETATM    8  C7  UNL     1     -33.754   7.314  17.812  1.00  0.00     0.062 C
HETATM    9  C8  UNL     1     -34.137   7.341  15.340  1.00  0.00     0.189 C
HETATM   10  C9  UNL     1     -35.294   6.393  15.604  1.00  0.00     0.220 C
HETATM   11  C10 UNL     1     -36.542   7.248  15.683  1.00  0.00     0.040 C
HETATM   12  N3  UNL     1     -35.086   5.616  16.805  1.00  0.00    -0.046 N
ATOM     13  H31 UNL     1     -35.810   4.907  16.916  1.00  0.00     0.279 HD
ATOM     14  H32 UNL     1     -34.274   5.006  16.714  1.00  0.00     0.279 HD
ENDROOT
BRANCH   9  15
HETATM   15  O1  UNL     1     -32.986   6.688  14.927  1.00  0.00    -0.252 OA
BRANCH  15  16
HETATM   16  N2  UNL     1     -33.084   5.649  14.036  1.00  0.00    -0.174 N
ATOM     17  H2  UNL     1     -32.866   4.705  14.356  1.00  0.00     0.223 HD
BRANCH  16  18
HETATM   18  O2  UNL     1     -33.432   5.819  12.838  1.00  0.00    -0.269 OA
ATOM     19  H2  UNL     1     -32.802   5.889  12.131  1.00  0.00     0.246 HD
ENDBRANCH  16  18
ENDBRANCH  15  16
ENDBRANCH   9  15
TORSDOF 3
ENDMDL