MODEL 4
REMARK VINA RESULT: -5.083593101      1.344      1.576
REMARK  3 active torsions:
REMARK  status: ('A' for Active; 'I' for Inactive)
REMARK    1  A    between atoms: C2_2  and  S1_12
REMARK    2  A    between atoms: N1_3  and  C3_5
REMARK    3  A    between atoms: S1_12  and  N3_13
ROOT
HETATM    1  C1  UNL     1     -35.281   7.585  13.033  1.00  0.00     0.081 C
HETATM    2  C2  UNL     1     -35.426   6.554  14.096  1.00  0.00     0.095 C
HETATM    3  N1  UNL     1     -36.222   5.554  13.974  1.00  0.00    -0.337 N
ATOM      4  H1  UNL     1     -36.263   4.892  14.749  1.00  0.00     0.168 HD
ENDROOT
BRANCH   3   5
HETATM    5  C3  UNL     1     -37.045   5.295  12.856  1.00  0.00     0.105 A
HETATM    6  C4  UNL     1     -36.584   4.397  11.921  1.00  0.00     0.048 A
HETATM    7  C5  UNL     1     -37.340   4.103  10.810  1.00  0.00     0.005 A
HETATM    8  C6  UNL     1     -38.577   4.723  10.640  1.00  0.00     0.017 A
HETATM    9  C7  UNL     1     -38.998   5.618  11.607  1.00  0.00     0.089 A
HETATM   10  N2  UNL     1     -38.251   5.898  12.689  1.00  0.00    -0.352 N
ATOM     11  H2  UNL     1     -38.590   6.563  13.383  1.00  0.00     0.166 HD
ENDBRANCH   3   5
BRANCH   2  12
HETATM   12  S1  UNL     1     -34.474   6.728  15.547  1.00  0.00     0.156 S
HETATM   13  O1  UNL     1     -32.871   7.006  15.268  1.00  0.00    -0.229 OA
BRANCH  12  14
HETATM   14  N3  UNL     1     -34.748   5.376  16.579  1.00  0.00    -0.345 NA
ATOM     15  H32 UNL     1     -33.926   4.780  16.676  1.00  0.00     0.166 HD
ATOM     16  H31 UNL     1     -35.586   4.879  16.275  1.00  0.00     0.166 HD
ENDBRANCH  12  14
ENDBRANCH   2  12
TORSDOF 3
ENDMDL