MODEL 4
REMARK VINA RESULT: -4.915394882      1.758      2.388
REMARK  3 active torsions:
REMARK  status: ('A' for Active; 'I' for Inactive)
REMARK    1  A    between atoms: O1_2  and  C2_3
REMARK    2  A    between atoms: C2_3  and  C3_5
REMARK    3  A    between atoms: C3_5  and  N3_11
ROOT
HETATM    1  C3  UNL     1     -34.785   7.289  18.150  1.00  0.00     0.138 C
HETATM    2  C4  UNL     1     -34.564   7.887  16.986  1.00  0.00     0.157 C
HETATM    3  C5  UNL     1     -35.378   9.058  16.652  1.00  0.00     0.113 C
HETATM    4  N1  UNL     1     -36.008   9.984  16.373  1.00  0.00    -0.191 NA
HETATM    5  C6  UNL     1     -33.605   7.496  16.025  1.00  0.00     0.113 C
HETATM    6  N2  UNL     1     -32.818   7.193  15.212  1.00  0.00    -0.191 NA
ENDROOT
BRANCH   1   7
HETATM    7  C2  UNL     1     -33.976   6.121  18.491  1.00  0.00     0.311 C
HETATM    8  O2  UNL     1     -34.346   4.950  18.149  1.00  0.00    -0.258 OA
BRANCH   7   9
HETATM    9  O1  UNL     1     -32.800   6.192  19.178  1.00  0.00    -0.321 OA
HETATM   10  C1  UNL     1     -32.523   7.124  20.213  1.00  0.00     0.213 C
ENDBRANCH   7   9
ENDBRANCH   1   7
BRANCH   1  11
HETATM   11  N3  UNL     1     -35.781   7.772  19.042  1.00  0.00    -0.374 N
HETATM   12  C7  UNL     1     -35.854   8.756  20.084  1.00  0.00     0.125 C
HETATM   13  C8  UNL     1     -37.315   8.928  19.723  1.00  0.00     0.040 C
HETATM   14  C9  UNL     1     -37.164   7.484  19.292  1.00  0.00     0.125 C
ENDBRANCH   1  11
TORSDOF 3
ENDMDL