MODEL 4
REMARK VINA RESULT: -5.461223276      3.049      4.950
REMARK  8 active torsions:
REMARK  status: ('A' for Active; 'I' for Inactive)
REMARK    1  A    between atoms: C2_2  and  N1_4
REMARK    2  A    between atoms: C4_11  and  N5_12
REMARK       I    between atoms: N5_12  and  C5_13
REMARK       I    between atoms: C5_13  and  N8_18
REMARK    3  A    between atoms: N8_18  and  C7_20
REMARK    4  A    between atoms: C7_20  and  C8_21
REMARK    5  A    between atoms: C8_21  and  S1_22
REMARK    6  A    between atoms: S1_22  and  C9_23
REMARK    7  A    between atoms: C9_23  and  C10_24
REMARK    8  A    between atoms: C12_27  and  N9_28
ROOT
HETATM    1  N5  UNL     1     -13.683 -10.300   4.768  1.00  0.00    -0.332 NA
HETATM    2  C5  UNL     1     -13.980  -9.230   4.072  1.00  0.00     0.267 C
HETATM    3  N6  UNL     1     -13.147  -8.332   3.616  1.00  0.00    -0.253 N
ATOM      4  H6  UNL     1     -12.147  -8.427   3.793  1.00  0.00     0.182 HD
HETATM    5  C6  UNL     1     -13.623  -7.249   2.894  1.00  0.00     0.185 C
HETATM    6  N7  UNL     1     -13.998  -6.337   2.284  1.00  0.00    -0.172 NA
HETATM    7  N8  UNL     1     -15.395  -8.993   3.763  1.00  0.00    -0.349 N
ATOM      8  H8  UNL     1     -15.775  -9.230   2.846  1.00  0.00     0.163 HD
ENDROOT
BRANCH   1   9
HETATM    9  C4  UNL     1     -13.293 -11.183   5.469  1.00  0.00     0.297 A
HETATM   10  N1  UNL     1     -13.523 -12.529   5.410  1.00  0.00    -0.229 N
HETATM   11  N2  UNL     1     -12.865 -13.138   6.363  1.00  0.00    -0.222 N
HETATM   12  N3  UNL     1     -12.221 -12.217   7.034  1.00  0.00    -0.224 N
ATOM     13  H2  UNL     1     -12.855 -14.142   6.548  1.00  0.00     0.210 HD
HETATM   14  N4  UNL     1     -12.425 -11.039   6.567  1.00  0.00    -0.242 N
ATOM     15  H3  UNL     1     -11.624 -12.414   7.838  1.00  0.00     0.210 HD
ATOM     16  H4  UNL     1     -12.033 -10.166   6.923  1.00  0.00     0.192 HD
BRANCH  10  17
HETATM   17  C2  UNL     1     -14.384 -13.197   4.442  1.00  0.00     0.106 C
HETATM   18  C1  UNL     1     -13.581 -13.897   3.391  1.00  0.00     0.034 C
HETATM   19  C3  UNL     1     -15.343 -14.137   5.153  1.00  0.00     0.034 C
ENDBRANCH  10  17
ENDBRANCH   1   9
BRANCH   7  20
HETATM   20  C7  UNL     1     -16.237  -8.420   4.781  1.00  0.00     0.134 C
BRANCH  20  21
HETATM   21  C8  UNL     1     -17.186  -7.458   4.130  1.00  0.00     0.094 C
BRANCH  21  22
HETATM   22  S1  UNL     1     -17.920  -8.172   2.663  1.00  0.00    -0.161 SA
BRANCH  22  23
HETATM   23  C9  UNL     1     -17.300  -7.248   1.199  1.00  0.00     0.131 C
BRANCH  23  24
HETATM   24  C10 UNL     1     -16.726  -8.315   0.281  1.00  0.00     0.027 A
HETATM   25  C11 UNL     1     -17.530  -9.161  -0.422  1.00  0.00     0.079 A
HETATM   26  S2  UNL     1     -16.390 -10.127  -1.250  1.00  0.00    -0.064 SA
HETATM   27  C12 UNL     1     -14.970  -9.404  -0.658  1.00  0.00     0.142 A
HETATM   28  N10 UNL     1     -15.422  -8.453   0.151  1.00  0.00    -0.339 N
ATOM     29  H10 UNL     1     -14.778  -7.846   0.657  1.00  0.00     0.168 HD
BRANCH  27  30
HETATM   30  N9  UNL     1     -13.744  -9.746  -0.966  1.00  0.00    -0.380 N
ATOM     31  H92 UNL     1     -13.364 -10.152  -1.821  1.00  0.00     0.158 HD
ATOM     32  H91 UNL     1     -12.927  -9.658  -0.362  1.00  0.00     0.158 HD
ENDBRANCH  27  30
ENDBRANCH  23  24
ENDBRANCH  22  23
ENDBRANCH  21  22
ENDBRANCH  20  21
ENDBRANCH   7  20
TORSDOF 8
ENDMDL