MODEL 3
REMARK VINA RESULT: -6.023626087      2.743      4.749
REMARK  10 active torsions:
REMARK  status: ('A' for Active; 'I' for Inactive)
REMARK    1  A    between atoms: O1_2  and  C2_3
REMARK    2  A    between atoms: C2_3  and  C3_4
REMARK    3  A    between atoms: C3_4  and  O2_5
REMARK    4  A    between atoms: C3_4  and  S1_7
REMARK    5  A    between atoms: S1_7  and  C4_8
REMARK    6  A    between atoms: C4_8  and  C5_9
REMARK    7  A    between atoms: C7_13  and  N2_14
REMARK    8  A    between atoms: C8_19  and  N4_20
REMARK    9  A    between atoms: N6_26  and  C10_27
REMARK   10  A    between atoms: C10_27  and  C11_28
ROOT
HETATM    1  C5  UNL     1     -16.803  -8.307   5.213  1.00  0.00     0.088 A
HETATM    2  N1  UNL     1     -16.522  -9.137   6.187  1.00  0.00    -0.348 N
ATOM      3  H1  UNL     1     -17.182  -9.316   6.943  1.00  0.00     0.166 HD
HETATM    4  C6  UNL     1     -15.300  -9.753   6.140  1.00  0.00     0.123 A
HETATM    5  C7  UNL     1     -14.975 -10.654   7.113  1.00  0.00     0.145 A
HETATM    6  N3  UNL     1     -13.783 -11.297   7.049  1.00  0.00    -0.175 N
ATOM      7  H3  UNL     1     -13.534 -11.974   7.770  1.00  0.00     0.186 HD
HETATM    8  C8  UNL     1     -12.924 -11.047   6.039  1.00  0.00     0.679 A
HETATM    9  N5  UNL     1     -13.219 -10.178   5.092  1.00  0.00    -0.174 N
ATOM     10  H5  UNL     1     -12.549 -10.010   4.341  1.00  0.00     0.186 HD
HETATM   11  C9  UNL     1     -14.396  -9.504   5.096  1.00  0.00     0.160 A
HETATM   12  N6  UNL     1     -14.705  -8.668   4.126  1.00  0.00    -0.274 N
HETATM   13  C16 UNL     1     -15.960  -8.064   4.228  1.00  0.00     0.276 A
HETATM   14  O3  UNL     1     -16.263  -7.255   3.323  1.00  0.00    -0.265 OA
ENDROOT
BRANCH   1  15
HETATM   15  C4  UNL     1     -18.194  -7.605   5.192  1.00  0.00     0.139 C
BRANCH  15  16
HETATM   16  S1  UNL     1     -19.152  -8.900   4.439  1.00  0.00    -0.129 SA
BRANCH  16  17
HETATM   17  C3  UNL     1     -20.113 -10.019   5.303  1.00  0.00     0.203 C
BRANCH  17  18
HETATM   18  C2  UNL     1     -19.434 -11.193   5.924  1.00  0.00     0.209 C
BRANCH  18  19
HETATM   19  O1  UNL     1     -18.832 -10.841   7.159  1.00  0.00    -0.393 OA
HETATM   20  C1  UNL     1     -19.090 -11.818   8.129  1.00  0.00     0.201 C
ENDBRANCH  18  19
ENDBRANCH  17  18
BRANCH  17  21
HETATM   21  O2  UNL     1     -21.035  -9.481   6.258  1.00  0.00    -0.383 OA
ATOM     22  H2  UNL     1     -21.277  -8.607   5.976  1.00  0.00     0.211 HD
ENDBRANCH  17  21
ENDBRANCH  16  17
ENDBRANCH  15  16
ENDBRANCH   1  15
BRANCH  12  23
HETATM   23  C10 UNL     1     -14.024  -8.343   2.936  1.00  0.00     0.079 C
BRANCH  23  24
HETATM   24  C11 UNL     1     -13.957  -9.355   1.864  1.00  0.00     0.025 C
HETATM   25  C12 UNL     1     -14.309  -8.712   0.498  1.00  0.00     0.010 C
HETATM   26  C13 UNL     1     -14.256  -9.978  -0.374  1.00  0.00     0.001 C
HETATM   27  C14 UNL     1     -15.106 -10.944   0.436  1.00  0.00     0.001 C
HETATM   28  C15 UNL     1     -15.115 -10.379   1.869  1.00  0.00     0.010 C
ENDBRANCH  23  24
ENDBRANCH  12  23
BRANCH   5  29
HETATM   29  N2  UNL     1     -15.757 -10.929   8.112  1.00  0.00    -0.383 N
ATOM     30  H22 UNL     1     -15.833 -11.905   8.401  1.00  0.00     0.157 HD
ATOM     31  H21 UNL     1     -16.289 -10.218   8.614  1.00  0.00     0.157 HD
ENDBRANCH   5  29
BRANCH   8  32
HETATM   32  N4  UNL     1     -11.823 -11.721   6.002  1.00  0.00    -0.234 N
ATOM     33  H42 UNL     1     -10.971 -11.312   5.616  1.00  0.00     0.174 HD
ATOM     34  H41 UNL     1     -11.842 -12.686   6.334  1.00  0.00     0.174 HD
ENDBRANCH   8  32
TORSDOF 10
ENDMDL