MODEL 4
REMARK VINA RESULT: -6.281052166      2.362      5.239
REMARK  9 active torsions:
REMARK  status: ('A' for Active; 'I' for Inactive)
REMARK    1  A    between atoms: C3_5  and  C4_6
REMARK    2  A    between atoms: C4_6  and  C5_7
REMARK    3  A    between atoms: C7_11  and  N3_12
REMARK    4  A    between atoms: C8_17  and  O1_18
REMARK    5  A    between atoms: C9_22  and  N6_23
REMARK    6  A    between atoms: N6_23  and  C10_25
REMARK    7  A    between atoms: C10_25  and  C11_26
REMARK    8  A    between atoms: C13_30  and  O2_31
REMARK    9  A    between atoms: C17_35  and  O3_36
ROOT
HETATM    1  C1  UNL     1     -19.724  -6.859   4.540  1.00  0.00     0.047 C
HETATM    2  C2  UNL     1     -18.671  -7.603   4.887  1.00  0.00     0.068 A
HETATM    3  N1  UNL     1     -18.671  -8.795   5.507  1.00  0.00    -0.340 N
ATOM      4  H1  UNL     1     -19.507  -9.299   5.801  1.00  0.00     0.167 HD
HETATM    5  C3  UNL     1     -17.412  -9.229   5.685  1.00  0.00     0.108 A
HETATM    6  N5  UNL     1     -16.613  -8.288   5.164  1.00  0.00    -0.327 N
ATOM      7  H5  UNL     1     -15.594  -8.331   5.147  1.00  0.00     0.169 HD
HETATM    8  C9  UNL     1     -17.351  -7.278   4.667  1.00  0.00     0.129 A
ENDROOT
BRANCH   8   9
HETATM    9  N6  UNL     1     -16.895  -6.073   4.013  1.00  0.00    -0.370 N
ATOM     10  H6  UNL     1     -17.358  -5.189   4.224  1.00  0.00     0.161 HD
BRANCH   9  11
HETATM   11  C10 UNL     1     -15.809  -6.086   3.073  1.00  0.00     0.164 C
BRANCH  11  12
HETATM   12  C11 UNL     1     -15.961  -6.966   1.922  1.00  0.00     0.009 A
HETATM   13  C12 UNL     1     -17.093  -6.944   1.155  1.00  0.00     0.102 A
HETATM   14  N7  UNL     1     -17.295  -7.752   0.086  1.00  0.00    -0.346 N
HETATM   15  C13 UNL     1     -16.356  -8.637  -0.269  1.00  0.00     0.150 A
ATOM     16  H7  UNL     1     -18.163  -7.687  -0.446  1.00  0.00     0.167 HD
HETATM   17  C15 UNL     1     -15.193  -8.704   0.470  1.00  0.00     0.023 A
HETATM   18  C16 UNL     1     -14.158  -9.695   0.061  1.00  0.00     0.056 C
HETATM   19  C17 UNL     1     -14.969  -7.887   1.562  1.00  0.00     0.087 A
BRANCH  15  20
HETATM   20  O2  UNL     1     -16.553  -9.483  -1.377  1.00  0.00    -0.340 OA
HETATM   21  C14 UNL     1     -17.841  -9.937  -1.678  1.00  0.00     0.211 C
ENDBRANCH  15  20
BRANCH  19  22
HETATM   22  O3  UNL     1     -13.808  -7.958   2.296  1.00  0.00    -0.355 OA
HETATM   23  C18 UNL     1     -13.576  -8.842   3.356  1.00  0.00     0.210 C
ENDBRANCH  19  22
ENDBRANCH  11  12
ENDBRANCH   9  11
ENDBRANCH   8   9
BRANCH   5  24
HETATM   24  C4  UNL     1     -17.050 -10.383   6.273  1.00  0.00     0.065 C
BRANCH  24  25
HETATM   25  C5  UNL     1     -15.657 -10.730   6.456  1.00  0.00     0.035 A
HETATM   26  C6  UNL     1     -15.080 -11.730   5.702  1.00  0.00     0.122 A
HETATM   27  N2  UNL     1     -13.787 -12.085   5.840  1.00  0.00    -0.201 N
HETATM   28  C7  UNL     1     -13.031 -11.428   6.761  1.00  0.00     0.677 A
ATOM     29  H2  UNL     1     -13.386 -12.829   5.269  1.00  0.00     0.183 HD
HETATM   30  N4  UNL     1     -13.576 -10.449   7.506  1.00  0.00    -0.170 N
HETATM   31  C8  UNL     1     -14.864 -10.077   7.385  1.00  0.00     0.167 A
ATOM     32  H4  UNL     1     -12.990  -9.969   8.189  1.00  0.00     0.186 HD
BRANCH  28  33
HETATM   33  N3  UNL     1     -11.801 -11.789   6.869  1.00  0.00    -0.234 N
ATOM     34  H32 UNL     1     -11.518 -12.685   7.267  1.00  0.00     0.174 HD
ATOM     35  H31 UNL     1     -11.096 -11.132   6.536  1.00  0.00     0.174 HD
ENDBRANCH  28  33
BRANCH  31  36
HETATM   36  O1  UNL     1     -15.438  -9.070   8.145  1.00  0.00    -0.345 OA
ATOM     37  H1  UNL     1     -16.375  -8.930   8.071  1.00  0.00     0.219 HD
ENDBRANCH  31  36
ENDBRANCH  24  25
ENDBRANCH   5  24
TORSDOF 9
ENDMDL