MODEL 3
REMARK VINA RESULT: -5.958658140      2.855      5.765
REMARK  8 active torsions:
REMARK  status: ('A' for Active; 'I' for Inactive)
REMARK    1  A    between atoms: N1_1  and  C1_4
REMARK    2  A    between atoms: C2_7  and  N3_8
REMARK    3  A    between atoms: N3_8  and  C3_9
REMARK    4  A    between atoms: N3_8  and  C10_18
REMARK    5  A    between atoms: C3_9  and  C4_10
REMARK    6  A    between atoms: C4_10  and  C5_12
REMARK    7  A    between atoms: C5_12  and  N4_13
REMARK    8  A    between atoms: C16_27  and  N6_28
ROOT
HETATM    1  C1  UNL     1     -14.442  -6.921   3.233  1.00  0.00     0.679 A
HETATM    2  N2  UNL     1     -14.174  -8.207   3.141  1.00  0.00    -0.176 N
ATOM      3  H2  UNL     1     -13.281  -8.485   2.733  1.00  0.00     0.186 HD
HETATM    4  C2  UNL     1     -15.045  -9.214   3.572  1.00  0.00     0.141 A
HETATM    5  C15 UNL     1     -16.192  -8.794   4.098  1.00  0.00     0.097 A
HETATM    6  C16 UNL     1     -17.091  -9.710   4.563  1.00  0.00     0.117 A
HETATM    7  N7  UNL     1     -18.247  -9.249   5.107  1.00  0.00    -0.338 N
ATOM      8  H7  UNL     1     -18.929  -9.923   5.457  1.00  0.00     0.168 HD
HETATM    9  C17 UNL     1     -18.525  -7.942   5.201  1.00  0.00     0.183 A
HETATM   10  N8  UNL     1     -17.637  -7.058   4.745  1.00  0.00    -0.337 N
ATOM     11  H8  UNL     1     -17.847  -6.062   4.815  1.00  0.00     0.168 HD
HETATM   12  C18 UNL     1     -16.478  -7.441   4.197  1.00  0.00     0.139 A
HETATM   13  N9  UNL     1     -15.602  -6.540   3.763  1.00  0.00    -0.176 N
ATOM     14  H9  UNL     1     -15.821  -5.547   3.839  1.00  0.00     0.186 HD
ENDROOT
BRANCH   4  15
HETATM   15  N3  UNL     1     -14.525 -10.523   3.283  1.00  0.00    -0.333 N
BRANCH  15  16
HETATM   16  C3  UNL     1     -14.836 -11.037   2.003  1.00  0.00     0.149 C
BRANCH  16  17
HETATM   17  C4  UNL     1     -14.728 -10.342   0.762  1.00  0.00     0.202 C
HETATM   18  O1  UNL     1     -13.778  -9.752   0.345  1.00  0.00    -0.285 OA
BRANCH  17  19
HETATM   19  C5  UNL     1     -15.918 -10.312  -0.181  1.00  0.00     0.146 C
BRANCH  19  20
HETATM   20  N4  UNL     1     -16.409  -9.039  -0.427  1.00  0.00    -0.366 N
HETATM   21  C6  UNL     1     -16.829  -8.668  -1.720  1.00  0.00     0.063 A
HETATM   22  C7  UNL     1     -17.825  -7.536  -1.578  1.00  0.00     0.046 A
HETATM   23  C8  UNL     1     -17.907  -7.248  -0.109  1.00  0.00     0.025 A
HETATM   24  C9  UNL     1     -16.994  -8.272   0.576  1.00  0.00     0.128 A
ENDBRANCH  19  20
ENDBRANCH  17  19
ENDBRANCH  16  17
ENDBRANCH  15  16
BRANCH  15  25
HETATM   25  C10 UNL     1     -13.582 -11.021   4.233  1.00  0.00     0.094 C
HETATM   26  C11 UNL     1     -13.608 -10.576   5.640  1.00  0.00     0.053 C
HETATM   27  C12 UNL     1     -12.377 -11.247   6.302  1.00  0.00     0.234 C
HETATM   28  N5  UNL     1     -12.756 -12.633   6.569  1.00  0.00    -0.075 N
HETATM   29  C13 UNL     1     -13.762 -13.079   5.624  1.00  0.00     0.234 C
ATOM     30  H52 UNL     1     -11.946 -13.252   6.580  1.00  0.00     0.277 HD
ATOM     31  H51 UNL     1     -13.060 -12.763   7.534  1.00  0.00     0.277 HD
HETATM   32  C14 UNL     1     -13.515 -12.538   4.238  1.00  0.00     0.053 C
ENDBRANCH  15  25
ENDBRANCH   4  15
BRANCH   1  33
HETATM   33  N1  UNL     1     -13.618  -6.022   2.827  1.00  0.00    -0.234 N
ATOM     34  H12 UNL     1     -12.639  -6.273   2.693  1.00  0.00     0.174 HD
ATOM     35  H11 UNL     1     -13.914  -5.065   2.633  1.00  0.00     0.174 HD
ENDBRANCH   1  33
BRANCH   6  36
HETATM   36  N6  UNL     1     -16.887 -10.942   4.537  1.00  0.00    -0.385 N
ATOM     37  H62 UNL     1     -15.976 -11.295   4.829  1.00  0.00     0.157 HD
ATOM     38  H61 UNL     1     -17.581 -11.615   4.213  1.00  0.00     0.157 HD
ENDBRANCH   6  36
TORSDOF 8
ENDMDL