MODEL 1
REMARK VINA RESULT: -6.193984064      0.000      0.000
REMARK  8 active torsions:
REMARK  status: ('A' for Active; 'I' for Inactive)
REMARK    1  A    between atoms: C4_5  and  O1_6
REMARK    2  A    between atoms: C7_10  and  O2_11
REMARK    3  A    between atoms: C9_13  and  C11_15
REMARK    4  A    between atoms: C15_22  and  S1_23
REMARK    5  A    between atoms: S1_23  and  C16_24
REMARK    6  A    between atoms: C16_24  and  C17_25
REMARK    7  A    between atoms: C17_25  and  N3_26
REMARK    8  A    between atoms: N3_26  and  N4_27
ROOT
HETATM    1  C1  UNL     1     -15.777 -10.718   7.832  1.00  0.00     0.028 C
HETATM    2  C2  UNL     1     -16.279 -10.072   6.804  1.00  0.00     0.016 A
HETATM    3  C3  UNL     1     -17.631 -10.115   6.600  1.00  0.00     0.094 A
HETATM    4  N1  UNL     1     -18.510 -10.820   7.503  1.00  0.00    -0.098 NA
HETATM    5  C4  UNL     1     -18.119  -9.460   5.502  1.00  0.00     0.118 A
HETATM    6  C5  UNL     1     -17.302  -8.776   4.614  1.00  0.00     0.080 A
HETATM    7  C6  UNL     1     -15.907  -8.728   4.808  1.00  0.00     0.033 A
HETATM    8  C7  UNL     1     -15.471  -9.380   5.906  1.00  0.00     0.090 A
HETATM    9  C9  UNL     1     -14.993  -8.179   3.870  1.00  0.00     0.061 C
HETATM   10  C10 UNL     1     -13.564  -8.004   4.047  1.00  0.00     0.044 C
HETATM   11  N2  UNL     1     -15.419  -6.943   3.184  1.00  0.00    -0.343 N
ATOM     12  H2  UNL     1     -14.739  -6.182   3.209  1.00  0.00     0.164 HD
HETATM   13  C13 UNL     1     -16.616  -6.646   2.500  1.00  0.00     0.269 C
HETATM   14  O3  UNL     1     -16.714  -5.652   1.750  1.00  0.00    -0.266 OA
HETATM   15  C14 UNL     1     -17.839  -7.459   2.604  1.00  0.00     0.107 C
HETATM   16  C15 UNL     1     -18.680  -7.412   1.605  1.00  0.00     0.080 C
HETATM   17  N5  UNL     1     -18.109  -8.270   3.749  1.00  0.00    -0.349 N
ATOM     18  H5  UNL     1     -19.094  -8.480   3.906  1.00  0.00     0.166 HD
ENDROOT
BRANCH  16  19
HETATM   19  S1  UNL     1     -18.329  -6.402   0.207  1.00  0.00    -0.138 SA
BRANCH  19  20
HETATM   20  C16 UNL     1     -17.802  -7.347  -1.229  1.00  0.00     0.096 C
BRANCH  20  21
HETATM   21  C17 UNL     1     -16.845  -8.473  -0.873  1.00  0.00     0.144 C
BRANCH  21  22
HETATM   22  N3  UNL     1     -15.922  -8.680  -1.944  1.00  0.00    -0.148 NA
BRANCH  22  23
HETATM   23  N4  UNL     1     -14.689  -9.060  -1.422  1.00  0.00    -0.348 N
ATOM     24  H42 UNL     1     -14.101  -8.466  -0.838  1.00  0.00     0.172 HD
ATOM     25  H41 UNL     1     -14.476 -10.013  -1.717  1.00  0.00     0.172 HD
ENDBRANCH  22  23
ENDBRANCH  21  22
ENDBRANCH  20  21
ENDBRANCH  19  20
ENDBRANCH  16  19
BRANCH   9  26
HETATM   26  C11 UNL     1     -15.037  -9.194   2.651  1.00  0.00     0.031 C
HETATM   27  C12 UNL     1     -13.632  -9.438   2.148  1.00  0.00     0.008 C
ENDBRANCH   9  26
BRANCH   5  28
HETATM   28  O1  UNL     1     -19.504  -9.514   5.314  1.00  0.00    -0.357 OA
ATOM     29  H1  UNL     1     -19.952  -8.679   5.248  1.00  0.00     0.218 HD
ENDBRANCH   5  28
BRANCH   8  30
HETATM   30  O2  UNL     1     -14.136  -9.397   6.233  1.00  0.00    -0.354 OA
HETATM   31  C8  UNL     1     -13.333 -10.572   6.049  1.00  0.00     0.210 C
ENDBRANCH   8  30
TORSDOF 8
ENDMDL