MODEL 3
REMARK VINA RESULT: -6.690602169      2.821      4.066
REMARK  7 active torsions:
REMARK  status: ('A' for Active; 'I' for Inactive)
REMARK    1  A    between atoms: N1_1  and  C1_4
REMARK    2  A    between atoms: C4_12  and  C5_13
REMARK    3  A    between atoms: C5_13  and  N4_14
REMARK    4  A    between atoms: N4_14  and  C6_16
REMARK    5  A    between atoms: C6_16  and  C7_17
REMARK    6  A    between atoms: N5_20  and  C10_21
REMARK    7  A    between atoms: C10_21  and  C11_22
ROOT
HETATM    1  C1  UNL     1     -12.659 -11.654   6.721  1.00  0.00     0.678 A
HETATM    2  N2  UNL     1     -13.483 -10.660   7.072  1.00  0.00    -0.176 N
ATOM      3  H2  UNL     1     -13.157  -9.944   7.721  1.00  0.00     0.186 HD
HETATM    4  C2  UNL     1     -14.730 -10.589   6.587  1.00  0.00     0.137 A
HETATM    5  N3  UNL     1     -15.497  -9.578   6.970  1.00  0.00    -0.308 N
ATOM      6  H3  UNL     1     -15.140  -8.882   7.624  1.00  0.00     0.170 HD
HETATM    7  C3  UNL     1     -16.752  -9.477   6.490  1.00  0.00     0.254 A
HETATM    8  O1  UNL     1     -17.523  -8.526   6.821  1.00  0.00    -0.268 OA
HETATM    9  C4  UNL     1     -17.246 -10.414   5.609  1.00  0.00     0.028 A
HETATM   10  C16 UNL     1     -16.462 -11.474   5.200  1.00  0.00     0.033 A
HETATM   11  C17 UNL     1     -15.184 -11.542   5.705  1.00  0.00     0.051 A
HETATM   12  C18 UNL     1     -14.315 -12.592   5.334  1.00  0.00     0.145 A
HETATM   13  N8  UNL     1     -14.824 -13.565   4.429  1.00  0.00    -0.081 NA
HETATM   14  N9  UNL     1     -13.095 -12.609   5.850  1.00  0.00    -0.178 N
ATOM     15  H9  UNL     1     -12.460 -13.362   5.587  1.00  0.00     0.185 HD
ENDROOT
BRANCH   9  16
HETATM   16  C5  UNL     1     -18.651 -10.292   5.080  1.00  0.00     0.163 C
BRANCH  16  17
HETATM   17  N4  UNL     1     -18.568  -9.491   3.872  1.00  0.00    -0.397 N
ATOM     18  H4  UNL     1     -18.012  -9.785   3.069  1.00  0.00     0.158 HD
BRANCH  17  19
HETATM   19  C6  UNL     1     -19.297  -8.286   3.869  1.00  0.00     0.062 C
BRANCH  19  20
HETATM   20  C7  UNL     1     -18.487  -7.219   3.245  1.00  0.00     0.043 C
HETATM   21  C8  UNL     1     -18.398  -7.220   1.764  1.00  0.00     0.031 C
HETATM   22  C9  UNL     1     -17.092  -6.465   1.482  1.00  0.00     0.123 C
HETATM   23  N5  UNL     1     -16.351  -6.442   2.672  1.00  0.00    -0.388 N
HETATM   24  C15 UNL     1     -17.041  -7.119   3.715  1.00  0.00     0.132 C
BRANCH  23  25
HETATM   25  C10 UNL     1     -14.960  -6.389   2.686  1.00  0.00     0.099 C
BRANCH  25  26
HETATM   26  C11 UNL     1     -14.211  -7.633   2.833  1.00  0.00     0.010 A
HETATM   27  C12 UNL     1     -13.374  -7.832   3.944  1.00  0.00     0.103 A
HETATM   28  N6  UNL     1     -12.677  -8.979   4.097  1.00  0.00    -0.361 N
HETATM   29  C13 UNL     1     -12.760  -9.950   3.200  1.00  0.00     0.180 A
ATOM     30  H6  UNL     1     -12.080  -9.099   4.914  1.00  0.00     0.166 HD
HETATM   31  N7  UNL     1     -13.561  -9.773   2.123  1.00  0.00    -0.361 N
HETATM   32  C14 UNL     1     -14.276  -8.662   1.920  1.00  0.00     0.103 A
ATOM     33  H7  UNL     1     -13.623 -10.523   1.435  1.00  0.00     0.166 HD
ENDBRANCH  25  26
ENDBRANCH  23  25
ENDBRANCH  19  20
ENDBRANCH  17  19
ENDBRANCH  16  17
ENDBRANCH   9  16
BRANCH   1  34
HETATM   34  N1  UNL     1     -11.468 -11.743   7.144  1.00  0.00    -0.234 N
ATOM     35  H12 UNL     1     -10.810 -11.015   6.863  1.00  0.00     0.174 HD
ATOM     36  H11 UNL     1     -11.153 -12.493   7.760  1.00  0.00     0.174 HD
ENDBRANCH   1  34
TORSDOF 7
ENDMDL