MODEL 4
REMARK VINA RESULT: -6.042568958      2.123      3.214
REMARK  10 active torsions:
REMARK  status: ('A' for Active; 'I' for Inactive)
REMARK    1  A    between atoms: N1_2  and  C3_4
REMARK    2  A    between atoms: C3_4  and  C4_5
REMARK    3  A    between atoms: C4_5  and  C5_6
REMARK    4  A    between atoms: C5_6  and  N2_7
REMARK    5  A    between atoms: C5_6  and  N3_10
REMARK    6  A    between atoms: N3_10  and  C6_12
REMARK    7  A    between atoms: C6_12  and  C7_13
REMARK    8  A    between atoms: C6_12  and  C8_16
REMARK    9  A    between atoms: C9_17  and  C10_18
REMARK   10  A    between atoms: C12_20  and  N4_21
ROOT
HETATM    1  C8  UNL     1     -16.305 -10.554   5.807  1.00  0.00     0.053 A
HETATM    2  C9  UNL     1     -16.588  -9.806   4.672  1.00  0.00     0.090 A
HETATM    3  N7  UNL     1     -17.914  -9.891   4.496  1.00  0.00    -0.285 N
ATOM      4  H7  UNL     1     -18.416  -9.432   3.736  1.00  0.00     0.188 HD
HETATM    5  N8  UNL     1     -18.477 -10.615   5.388  1.00  0.00    -0.232 N
HETATM    6  C14 UNL     1     -17.559 -11.073   6.242  1.00  0.00     0.057 A
HETATM    7  C15 UNL     1     -18.075 -11.924   7.304  1.00  0.00     0.073 C
HETATM    8  C16 UNL     1     -19.556 -11.706   7.528  1.00  0.00     0.105 C
HETATM    9  S1  UNL     1     -20.058 -11.224   5.855  1.00  0.00    -0.030 SA
ENDROOT
BRANCH   1  10
HETATM   10  C6  UNL     1     -15.021 -10.652   6.423  1.00  0.00     0.126 C
BRANCH  10  11
HETATM   11  N3  UNL     1     -14.394 -11.894   6.715  1.00  0.00    -0.337 N
ATOM     12  H3  UNL     1     -14.837 -12.537   7.371  1.00  0.00     0.168 HD
BRANCH  11  13
HETATM   13  C5  UNL     1     -13.177 -12.251   6.118  1.00  0.00     0.100 C
BRANCH  13  14
HETATM   14  C4  UNL     1     -12.749 -12.598   4.833  1.00  0.00     0.065 C
BRANCH  14  15
HETATM   15  C3  UNL     1     -13.168 -12.790   3.613  1.00  0.00     0.088 C
BRANCH  15  16
HETATM   16  N1  UNL     1     -14.377 -13.607   3.479  1.00  0.00    -0.398 N
HETATM   17  C1  UNL     1     -14.066 -15.037   3.388  1.00  0.00     0.148 C
HETATM   18  C2  UNL     1     -15.704 -13.175   3.406  1.00  0.00     0.148 C
ENDBRANCH  15  16
ENDBRANCH  14  15
ENDBRANCH  13  14
BRANCH  13  19
HETATM   19  N2  UNL     1     -12.131 -12.161   6.998  1.00  0.00    -0.385 N
ATOM     20  H22 UNL     1     -11.241 -12.386   6.553  1.00  0.00     0.157 HD
ATOM     21  H21 UNL     1     -12.446 -11.943   7.943  1.00  0.00     0.157 HD
ENDBRANCH  13  19
ENDBRANCH  11  13
ENDBRANCH  10  11
BRANCH  10  22
HETATM   22  C7  UNL     1     -14.653  -9.743   7.521  1.00  0.00     0.227 C
HETATM   23  O1  UNL     1     -13.526  -9.552   8.005  1.00  0.00    -0.643 OA
HETATM   24  O2  UNL     1     -15.680  -8.974   8.152  1.00  0.00    -0.643 OA
ENDBRANCH  10  22
ENDBRANCH   1  10
BRANCH   2  25
HETATM   25  C10 UNL     1     -15.729  -9.129   3.706  1.00  0.00     0.066 A
HETATM   26  C11 UNL     1     -15.267  -7.863   4.004  1.00  0.00     0.080 A
HETATM   27  C12 UNL     1     -14.561  -7.078   3.104  1.00  0.00     0.101 A
HETATM   28  N5  UNL     1     -14.318  -7.590   1.885  1.00  0.00    -0.339 N
HETATM   29  C13 UNL     1     -14.773  -8.838   1.616  1.00  0.00     0.182 A
ATOM     30  H5  UNL     1     -13.807  -7.055   1.183  1.00  0.00     0.168 HD
HETATM   31  N6  UNL     1     -15.457  -9.587   2.490  1.00  0.00    -0.350 N
ATOM     32  H6  UNL     1     -15.771 -10.519   2.219  1.00  0.00     0.166 HD
BRANCH  27  33
HETATM   33  N4  UNL     1     -14.153  -5.926   3.442  1.00  0.00    -0.385 N
ATOM     34  H42 UNL     1     -14.787  -5.212   3.800  1.00  0.00     0.157 HD
ATOM     35  H41 UNL     1     -13.167  -5.681   3.351  1.00  0.00     0.157 HD
ENDBRANCH  27  33
ENDBRANCH   2  25
TORSDOF 10
ENDMDL