MODEL 3
REMARK VINA RESULT: -6.403881805      1.418      1.977
REMARK  9 active torsions:
REMARK  status: ('A' for Active; 'I' for Inactive)
REMARK    1  A    between atoms: N1_1  and  C1_4
REMARK    2  A    between atoms: N6_16  and  C5_17
REMARK    3  A    between atoms: C5_17  and  C6_18
REMARK    4  A    between atoms: C6_18  and  N7_19
REMARK    5  A    between atoms: N7_19  and  C7_21
REMARK    6  A    between atoms: C9_23  and  N8_24
REMARK    7  A    between atoms: N8_24  and  C10_26
REMARK    8  A    between atoms: C14_32  and  N10_33
REMARK    9  A    between atoms: N10_33  and  C15_35
ROOT
HETATM    1  N7  UNL     1     -12.349  -9.616   4.369  1.00  0.00    -0.374 N
ATOM      2  H7  UNL     1     -11.719  -8.922   4.772  1.00  0.00     0.161 HD
ENDROOT
BRANCH   1   3
HETATM    3  C6  UNL     1     -11.979 -11.005   4.497  1.00  0.00     0.143 C
BRANCH   3   4
HETATM    4  C5  UNL     1     -11.976 -11.455   5.940  1.00  0.00     0.172 C
BRANCH   4   5
HETATM    5  N6  UNL     1     -13.270 -11.271   6.535  1.00  0.00    -0.258 N
HETATM    6  C3  UNL     1     -14.417 -11.949   6.258  1.00  0.00     0.157 A
HETATM    7  N3  UNL     1     -14.678 -12.939   5.396  1.00  0.00    -0.335 N
HETATM    8  C4  UNL     1     -15.425 -11.452   7.057  1.00  0.00     0.139 A
HETATM    9  C2  UNL     1     -15.913 -13.450   5.307  1.00  0.00     0.183 A
ATOM     10  H3  UNL     1     -13.933 -13.306   4.804  1.00  0.00     0.168 HD
HETATM   11  N2  UNL     1     -16.885 -12.957   6.091  1.00  0.00    -0.337 N
HETATM   12  C1  UNL     1     -16.711 -11.966   6.983  1.00  0.00     0.132 A
ATOM     13  H2  UNL     1     -17.818 -13.361   6.004  1.00  0.00     0.168 HD
HETATM   14  N4  UNL     1     -14.866 -10.500   7.788  1.00  0.00    -0.279 N
HETATM   15  N5  UNL     1     -13.599 -10.402   7.472  1.00  0.00    -0.238 N
ATOM     16  H4  UNL     1     -15.347  -9.932   8.486  1.00  0.00     0.189 HD
ATOM     17  H5  UNL     1     -12.951  -9.739   7.896  1.00  0.00     0.208 HD
BRANCH  12  18
HETATM   18  N1  UNL     1     -17.662 -11.510   7.724  1.00  0.00    -0.383 N
ATOM     19  H12 UNL     1     -18.505 -12.056   7.905  1.00  0.00     0.157 HD
ATOM     20  H11 UNL     1     -17.631 -10.592   8.169  1.00  0.00     0.157 HD
ENDBRANCH  12  18
ENDBRANCH   4   5
ENDBRANCH   3   4
ENDBRANCH   1   3
BRANCH   1  21
HETATM   21  C7  UNL     1     -13.412  -9.186   3.786  1.00  0.00     0.120 A
HETATM   22  C8  UNL     1     -13.522  -9.169   2.417  1.00  0.00     0.097 A
HETATM   23  C9  UNL     1     -14.671  -8.705   1.789  1.00  0.00     0.120 A
HETATM   24  N9  UNL     1     -15.645  -8.280   2.619  1.00  0.00    -0.177 N
HETATM   25  C14 UNL     1     -15.532  -8.299   3.952  1.00  0.00     0.681 A
ATOM     26  H9  UNL     1     -16.511  -7.928   2.211  1.00  0.00     0.185 HD
HETATM   27  N11 UNL     1     -14.420  -8.749   4.551  1.00  0.00    -0.177 N
ATOM     28  H11 UNL     1     -14.344  -8.759   5.568  1.00  0.00     0.185 HD
BRANCH  23  29
HETATM   29  N8  UNL     1     -14.814  -8.676   0.380  1.00  0.00    -0.371 N
ATOM     30  H8  UNL     1     -15.371  -7.933  -0.041  1.00  0.00     0.161 HD
BRANCH  29  31
HETATM   31  C10 UNL     1     -14.203  -9.653  -0.478  1.00  0.00     0.083 C
HETATM   32  C11 UNL     1     -14.650  -9.546  -1.942  1.00  0.00     0.025 C
HETATM   33  C12 UNL     1     -15.859 -10.392  -1.526  1.00  0.00     0.004 C
HETATM   34  C13 UNL     1     -14.947 -10.970  -0.438  1.00  0.00     0.025 C
ENDBRANCH  29  31
ENDBRANCH  23  29
BRANCH  25  35
HETATM   35  N10 UNL     1     -16.507  -7.876   4.716  1.00  0.00    -0.221 N
ATOM     36  H10 UNL     1     -16.641  -8.311   5.629  1.00  0.00     0.178 HD
BRANCH  35  37
HETATM   37  C15 UNL     1     -17.390  -6.827   4.314  1.00  0.00     0.099 A
HETATM   38  C16 UNL     1     -18.770  -7.179   3.902  1.00  0.00     0.028 A
HETATM   39  C17 UNL     1     -18.510  -6.382   5.173  1.00  0.00     0.028 A
ENDBRANCH  35  37
ENDBRANCH  25  35
ENDBRANCH   1  21
TORSDOF 9
ENDMDL