MODEL 3
REMARK VINA RESULT: -5.095410226      3.305      5.421
REMARK  9 active torsions:
REMARK  status: ('A' for Active; 'I' for Inactive)
REMARK    1  A    between atoms: C4_6  and  N2_7
REMARK    2  A    between atoms: N2_7  and  C5_9
REMARK    3  A    between atoms: C5_9  and  C6_10
REMARK    4  A    between atoms: C6_10  and  N3_11
REMARK    5  A    between atoms: N3_11  and  C7_13
REMARK    6  A    between atoms: C7_13  and  N4_15
REMARK    7  A    between atoms: N4_15  and  C8_17
REMARK    8  A    between atoms: N8_29  and  C13_30
REMARK    9  A    between atoms: C13_30  and  S2_31
ROOT
HETATM    1  S2  UNL     1     -15.335 -10.663   7.267  1.00  0.00    -0.005 SA
HETATM    2  C14 UNL     1     -16.553  -9.475   6.816  1.00  0.00     0.139 C
HETATM    3  N9  UNL     1     -17.375  -8.695   6.509  1.00  0.00    -0.184 NA
ENDROOT
BRANCH   1   4
HETATM    4  C13 UNL     1     -13.780 -10.316   6.449  1.00  0.00     0.160 C
BRANCH   4   5
HETATM    5  N8  UNL     1     -13.803 -10.409   5.028  1.00  0.00    -0.288 N
HETATM    6  C2  UNL     1     -13.707 -11.516   4.285  1.00  0.00     0.086 A
HETATM    7  C1  UNL     1     -13.560 -12.882   4.855  1.00  0.00     0.089 C
HETATM    8  N1  UNL     1     -13.770 -11.143   2.984  1.00  0.00    -0.340 N
HETATM    9  C3  UNL     1     -13.902  -9.825   2.899  1.00  0.00     0.124 A
ATOM     10  H1  UNL     1     -13.723 -11.780   2.189  1.00  0.00     0.167 HD
HETATM   11  C4  UNL     1     -14.011  -8.931   1.821  1.00  0.00     0.147 A
HETATM   12  C12 UNL     1     -13.925  -9.343   4.187  1.00  0.00     0.160 A
HETATM   13  N5  UNL     1     -14.135  -7.625   2.081  1.00  0.00    -0.175 N
HETATM   14  C11 UNL     1     -14.158  -7.143   3.364  1.00  0.00     0.679 A
ATOM     15  H5  UNL     1     -14.214  -6.970   1.304  1.00  0.00     0.186 HD
HETATM   16  N6  UNL     1     -14.280  -5.864   3.568  1.00  0.00    -0.234 N
HETATM   17  N7  UNL     1     -14.053  -8.014   4.355  1.00  0.00    -0.174 N
ATOM     18  H62 UNL     1     -14.361  -5.192   2.805  1.00  0.00     0.174 HD
ATOM     19  H61 UNL     1     -14.297  -5.505   4.523  1.00  0.00     0.174 HD
ATOM     20  H7  UNL     1     -14.070  -7.654   5.310  1.00  0.00     0.186 HD
BRANCH  11  21
HETATM   21  N2  UNL     1     -13.989  -9.374   0.627  1.00  0.00    -0.372 N
ATOM     22  H2  UNL     1     -13.245 -10.022   0.370  1.00  0.00     0.161 HD
BRANCH  21  23
HETATM   23  C5  UNL     1     -14.941  -9.018  -0.372  1.00  0.00     0.141 C
BRANCH  23  24
HETATM   24  C6  UNL     1     -14.665  -9.750  -1.714  1.00  0.00     0.141 C
BRANCH  24  25
HETATM   25  N3  UNL     1     -14.409 -11.132  -1.419  1.00  0.00    -0.366 N
ATOM     26  H3  UNL     1     -13.426 -11.363  -1.278  1.00  0.00     0.161 HD
BRANCH  25  27
HETATM   27  C7  UNL     1     -15.280 -12.204  -1.294  1.00  0.00     0.167 C
HETATM   28  S1  UNL     1     -16.770 -11.988  -2.044  1.00  0.00    -0.041 SA
BRANCH  27  29
HETATM   29  N4  UNL     1     -15.136 -13.433  -0.652  1.00  0.00    -0.363 N
ATOM     30  H4  UNL     1     -14.251 -13.909  -0.823  1.00  0.00     0.162 HD
BRANCH  29  31
HETATM   31  C8  UNL     1     -16.047 -14.131   0.212  1.00  0.00     0.075 C
HETATM   32  C9  UNL     1     -15.541 -14.006   1.674  1.00  0.00     0.032 C
HETATM   33  C10 UNL     1     -16.015 -15.628  -0.134  1.00  0.00     0.032 C
ENDBRANCH  29  31
ENDBRANCH  27  29
ENDBRANCH  25  27
ENDBRANCH  24  25
ENDBRANCH  23  24
ENDBRANCH  21  23
ENDBRANCH  11  21
ENDBRANCH   4   5
ENDBRANCH   1   4
TORSDOF 9
ENDMDL