MODEL 1
REMARK VINA RESULT: -7.080715769      0.000      0.000
REMARK  6 active torsions:
REMARK  status: ('A' for Active; 'I' for Inactive)
REMARK    1  A    between atoms: C6_9  and  S1_10
REMARK    2  A    between atoms: S1_10  and  C7_11
REMARK    3  A    between atoms: C7_11  and  C8_12
REMARK    4  A    between atoms: C8_12  and  N3_13
REMARK    5  A    between atoms: C9_15  and  C10_16
REMARK    6  A    between atoms: C11_17  and  O1_18
ROOT
HETATM    1  C7  UNL     1     -12.163 -11.803   4.781  1.00  0.00     0.102 C
ENDROOT
BRANCH   1   2
HETATM    2  S1  UNL     1     -11.683 -10.162   4.121  1.00  0.00    -0.092 SA
BRANCH   2   3
HETATM    3  C6  UNL     1     -13.174  -9.203   3.779  1.00  0.00     0.147 A
HETATM    4  N2  UNL     1     -14.364  -9.756   4.105  1.00  0.00    -0.338 N
HETATM    5  C5  UNL     1     -15.469  -9.063   3.861  1.00  0.00     0.043 A
ATOM      6  H2  UNL     1     -14.411 -10.683   4.529  1.00  0.00     0.168 HD
HETATM    7  C4  UNL     1     -16.849  -9.528   4.160  1.00  0.00     0.061 C
HETATM    8  C15 UNL     1     -15.383  -7.793   3.276  1.00  0.00     0.121 A
HETATM    9  C3  UNL     1     -17.557  -8.363   4.816  1.00  0.00     0.026 C
HETATM   10  C2  UNL     1     -17.759  -7.210   3.888  1.00  0.00     0.123 C
HETATM   11  N1  UNL     1     -16.588  -7.046   3.011  1.00  0.00    -0.379 N
HETATM   12  C1  UNL     1     -16.581  -6.161   1.882  1.00  0.00     0.150 C
HETATM   13  C14 UNL     1     -14.167  -7.243   2.949  1.00  0.00     0.276 A
HETATM   14  N6  UNL     1     -13.067  -7.981   3.215  1.00  0.00    -0.302 N
HETATM   15  O4  UNL     1     -14.113  -6.101   2.425  1.00  0.00    -0.266 OA
ATOM     16  H6  UNL     1     -12.144  -7.610   2.987  1.00  0.00     0.171 HD
ENDBRANCH   2   3
ENDBRANCH   1   2
BRANCH   1  17
HETATM   17  C8  UNL     1     -12.428 -11.663   6.263  1.00  0.00     0.129 C
BRANCH  17  18
HETATM   18  N3  UNL     1     -13.767 -12.067   6.616  1.00  0.00    -0.397 N
HETATM   19  C9  UNL     1     -14.734 -11.253   6.797  1.00  0.00     0.104 C
ATOM     20  H3  UNL     1     -13.953 -13.064   6.729  1.00  0.00     0.158 HD
BRANCH  19  21
HETATM   21  C10 UNL     1     -16.048 -11.754   7.150  1.00  0.00     0.098 A
HETATM   22  C11 UNL     1     -16.603 -11.421   8.368  1.00  0.00     0.161 A
HETATM   23  N4  UNL     1     -17.831 -11.881   8.718  1.00  0.00    -0.288 N
HETATM   24  C12 UNL     1     -18.508 -12.663   7.876  1.00  0.00     0.329 A
ATOM     25  H4  UNL     1     -18.234 -11.630   9.621  1.00  0.00     0.172 HD
HETATM   26  O2  UNL     1     -19.654 -13.099   8.189  1.00  0.00    -0.247 OA
HETATM   27  N5  UNL     1     -17.997 -13.009   6.679  1.00  0.00    -0.275 N
HETATM   28  C13 UNL     1     -16.787 -12.565   6.315  1.00  0.00     0.265 A
ATOM     29  H5  UNL     1     -18.532 -13.608   6.050  1.00  0.00     0.173 HD
HETATM   30  O3  UNL     1     -16.268 -12.861   5.205  1.00  0.00    -0.267 OA
BRANCH  22  31
HETATM   31  O1  UNL     1     -15.897 -10.612   9.237  1.00  0.00    -0.345 OA
ATOM     32  H1  UNL     1     -14.951 -10.559   9.161  1.00  0.00     0.219 HD
ENDBRANCH  22  31
ENDBRANCH  19  21
ENDBRANCH  17  18
ENDBRANCH   1  17
TORSDOF 6
ENDMDL