MODEL 1
REMARK VINA RESULT: -5.940617518      0.000      0.000
REMARK  9 active torsions:
REMARK  status: ('A' for Active; 'I' for Inactive)
REMARK    1  A    between atoms: O1_2  and  C2_3
REMARK    2  A    between atoms: C4_5  and  C5_6
REMARK    3  A    between atoms: C5_6  and  N1_7
REMARK    4  A    between atoms: N1_7  and  O2_8
REMARK    5  A    between atoms: O2_8  and  C6_9
REMARK    6  A    between atoms: C6_9  and  O3_11
REMARK    7  A    between atoms: C8_13  and  N2_14
REMARK    8  A    between atoms: N2_14  and  N3_16
REMARK    9  A    between atoms: C9_21  and  O4_22
ROOT
HETATM    1  C2  UNL     1      -3.529  15.244  12.060  1.00  0.00     0.119 A
HETATM    2  C3  UNL     1      -2.683  16.325  12.172  1.00  0.00     0.053 A
HETATM    3  C4  UNL     1      -1.550  16.386  11.392  1.00  0.00     0.007 A
HETATM    4  C8  UNL     1      -1.230  15.392  10.493  1.00  0.00     0.129 A
HETATM    5  N4  UNL     1      -2.072  14.348  10.402  1.00  0.00    -0.319 N
ATOM      6  H4  UNL     1      -1.859  13.597   9.743  1.00  0.00     0.169 HD
HETATM    7  C9  UNL     1      -3.181  14.261  11.148  1.00  0.00     0.177 A
ENDROOT
BRANCH   3   8
HETATM    8  C5  UNL     1      -0.615  17.536  11.487  1.00  0.00     0.185 C
BRANCH   8   9
HETATM    9  N1  UNL     1      -1.316  18.648  12.112  1.00  0.00    -0.093 NA
BRANCH   9  10
HETATM   10  O2  UNL     1      -1.630  19.600  11.203  1.00  0.00    -0.254 OA
BRANCH  10  11
HETATM   11  C6  UNL     1      -2.453  20.582  11.727  1.00  0.00     0.276 C
HETATM   12  C7  UNL     1      -2.797  20.320  13.178  1.00  0.00     0.072 C
BRANCH  11  13
HETATM   13  O3  UNL     1      -1.730  21.793  11.631  1.00  0.00    -0.370 OA
ATOM     14  H3  UNL     1      -2.379  22.483  11.555  1.00  0.00     0.212 HD
ENDBRANCH  11  13
ENDBRANCH  10  11
ENDBRANCH   9  10
ENDBRANCH   8   9
ENDBRANCH   3   8
BRANCH   4  15
HETATM   15  N2  UNL     1      -0.146  15.469   9.758  1.00  0.00    -0.292 N
ATOM     16  H2  UNL     1       0.078  16.312   9.230  1.00  0.00     0.188 HD
BRANCH  15  17
HETATM   17  N3  UNL     1       0.681  14.364   9.726  1.00  0.00    -0.344 N
ATOM     18  H32 UNL     1       0.432  13.519  10.242  1.00  0.00     0.176 HD
ATOM     19  H31 UNL     1       1.535  14.431   9.173  1.00  0.00     0.176 HD
ENDBRANCH  15  17
ENDBRANCH   4  15
BRANCH   1  20
HETATM   20  O1  UNL     1      -4.692  15.109  12.812  1.00  0.00    -0.352 OA
HETATM   21  C1  UNL     1      -5.583  16.192  12.858  1.00  0.00     0.210 C
ENDBRANCH   1  20
BRANCH   7  22
HETATM   22  O4  UNL     1      -4.024  13.172  11.027  1.00  0.00    -0.339 OA
HETATM   23  C10 UNL     1      -4.883  12.978   9.931  1.00  0.00     0.211 C
ENDBRANCH   7  22
TORSDOF 9
ENDMDL