MODEL 3
REMARK VINA RESULT: -5.473463262      1.668      1.858
REMARK  7 active torsions:
REMARK  status: ('A' for Active; 'I' for Inactive)
REMARK    1  A    between atoms: N1_1  and  C1_5
REMARK    2  A    between atoms: C1_5  and  C2_6
REMARK    3  A    between atoms: C1_5  and  C3_9
REMARK    4  A    between atoms: C2_6  and  O1_7
REMARK    5  A    between atoms: C3_9  and  O2_10
REMARK    6  A    between atoms: O2_10  and  C4_11
REMARK    7  A    between atoms: N3_15  and  C6_17
ROOT
HETATM    1  C4  UNL     1      -3.588  17.976  14.274  1.00  0.00     0.251 C
HETATM    2  N2  UNL     1      -3.788  17.423  13.126  1.00  0.00    -0.153 N
ATOM      3  H2  UNL     1      -4.710  17.087  12.848  1.00  0.00     0.188 HD
HETATM    4  C5  UNL     1      -2.645  17.303  12.250  1.00  0.00     0.699 C
HETATM    5  N3  UNL     1      -2.782  16.768  11.099  1.00  0.00    -0.191 N
ATOM      6  H3  UNL     1      -3.710  16.440  10.828  1.00  0.00     0.184 HD
HETATM    7  N4  UNL     1      -1.400  17.801  12.715  1.00  0.00    -0.116 N
ATOM      8  H4  UNL     1      -0.689  18.091  12.043  1.00  0.00     0.203 HD
HETATM    9  N5  UNL     1      -1.135  17.900  14.104  1.00  0.00    -0.005 NA
HETATM   10  N6  UNL     1      -2.307  18.450  14.684  1.00  0.00    -0.248 N
ATOM     11  H6  UNL     1      -2.234  19.181  15.392  1.00  0.00     0.188 HD
ENDROOT
BRANCH   1  12
HETATM   12  O2  UNL     1      -4.650  18.130  15.175  1.00  0.00    -0.319 OA
BRANCH  12  13
HETATM   13  C3  UNL     1      -5.779  18.890  14.822  1.00  0.00     0.213 C
BRANCH  13  14
HETATM   14  C1  UNL     1      -6.963  18.096  14.363  1.00  0.00     0.231 C
BRANCH  14  15
HETATM   15  N1  UNL     1      -8.234  18.703  14.534  1.00  0.00    -0.071 N
ATOM     16  H13 UNL     1      -8.977  18.009  14.616  1.00  0.00     0.274 HD
ATOM     17  H12 UNL     1      -8.326  19.135  15.453  1.00  0.00     0.274 HD
ATOM     18  H11 UNL     1      -8.419  19.368  13.782  1.00  0.00     0.274 HD
ENDBRANCH  14  15
BRANCH  14  19
HETATM   19  C2  UNL     1      -6.912  16.745  15.075  1.00  0.00     0.199 C
BRANCH  19  20
HETATM   20  O1  UNL     1      -6.305  15.853  14.192  1.00  0.00    -0.399 OA
ATOM     21  H1  UNL     1      -5.653  15.377  14.692  1.00  0.00     0.209 HD
ENDBRANCH  19  20
ENDBRANCH  14  19
ENDBRANCH  13  14
ENDBRANCH  12  13
ENDBRANCH   1  12
BRANCH   5  22
HETATM   22  C6  UNL     1      -1.728  16.606  10.182  1.00  0.00     0.049 A
HETATM   23  C7  UNL     1      -0.819  15.565  10.192  1.00  0.00     0.030 A
HETATM   24  C8  UNL     1       0.206  15.430   9.281  1.00  0.00     0.002 A
HETATM   25  C9  UNL     1       0.376  16.365   8.282  1.00  0.00     0.000 A
HETATM   26  C10 UNL     1      -0.514  17.416   8.246  1.00  0.00     0.002 A
HETATM   27  C11 UNL     1      -1.536  17.546   9.157  1.00  0.00     0.030 A
ENDBRANCH   5  22
TORSDOF 7
ENDMDL