MODEL 1
REMARK VINA RESULT: -5.328107503      0.000      0.000
REMARK  10 active torsions:
REMARK  status: ('A' for Active; 'I' for Inactive)
REMARK    1  A    between atoms: C2_2  and  N4_21
REMARK    2  A    between atoms: C3_3  and  C4_4
REMARK    3  A    between atoms: C4_4  and  C5_5
REMARK    4  A    between atoms: C5_5  and  C7_8
REMARK    5  A    between atoms: C7_8  and  N2_9
REMARK    6  A    between atoms: C7_8  and  C8_13
REMARK    7  A    between atoms: C8_13  and  O1_14
REMARK    8  A    between atoms: C8_13  and  N3_16
REMARK    9  A    between atoms: N3_16  and  S1_18
REMARK   10  A    between atoms: N4_21  and  N5_23
ROOT
HETATM    1  C5  UNL     1      -0.712  16.910  10.015  1.00  0.00     0.131 C
HETATM    2  C6  UNL     1      -0.921  17.400   8.676  1.00  0.00     0.066 C
HETATM    3  N1  UNL     1      -1.104  17.819   7.602  1.00  0.00    -0.197 NA
ENDROOT
BRANCH   1   4
HETATM    4  C4  UNL     1      -1.787  17.489  10.927  1.00  0.00     0.050 C
BRANCH   4   5
HETATM    5  C3  UNL     1      -1.210  17.846  12.265  1.00  0.00     0.001 C
HETATM    6  C2  UNL     1      -1.917  17.717  13.371  1.00  0.00     0.017 C
HETATM    7  C1  UNL     1      -3.310  17.216  13.362  1.00  0.00     0.069 C
BRANCH   6   8
HETATM    8  N4  UNL     1      -1.325  18.069  14.608  1.00  0.00    -0.312 N
ATOM      9  H4  UNL     1      -0.309  18.036  14.689  1.00  0.00     0.186 HD
BRANCH   8  10
HETATM   10  N5  UNL     1      -2.059  18.452  15.706  1.00  0.00    -0.345 N
ATOM     11  H52 UNL     1      -2.480  19.381  15.691  1.00  0.00     0.176 HD
ATOM     12  H51 UNL     1      -2.196  17.850  16.519  1.00  0.00     0.176 HD
ENDBRANCH   8  10
ENDBRANCH   6   8
ENDBRANCH   4   5
ENDBRANCH   1   4
BRANCH   1  13
HETATM   13  C7  UNL     1      -0.677  15.392  10.130  1.00  0.00     0.249 C
BRANCH  13  14
HETATM   14  N2  UNL     1      -0.549  14.868   8.765  1.00  0.00    -0.070 N
ATOM     15  H23 UNL     1      -1.286  15.193   8.139  1.00  0.00     0.275 HD
ATOM     16  H22 UNL     1       0.238  15.266   8.254  1.00  0.00     0.275 HD
ATOM     17  H21 UNL     1      -0.507  13.852   8.843  1.00  0.00     0.275 HD
ENDBRANCH  13  14
BRANCH  13  18
HETATM   18  C8  UNL     1      -1.936  14.922  10.773  1.00  0.00     0.257 C
BRANCH  18  19
HETATM   19  O1  UNL     1      -1.671  13.831  11.582  1.00  0.00    -0.374 OA
ATOM     20  H1  UNL     1      -2.183  13.084  11.293  1.00  0.00     0.212 HD
ENDBRANCH  18  19
BRANCH  18  21
HETATM   21  N3  UNL     1      -2.950  14.541   9.848  1.00  0.00    -0.312 N
ATOM     22  H3  UNL     1      -2.735  14.630   8.856  1.00  0.00     0.172 HD
BRANCH  21  23
HETATM   23  S1  UNL     1      -4.201  14.060  10.184  1.00  0.00     0.107 S
HETATM   24  C9  UNL     1      -5.438  14.550   9.278  1.00  0.00     0.152 C
HETATM   25  O2  UNL     1      -4.254  12.599  10.636  1.00  0.00    -0.236 OA
ENDBRANCH  21  23
ENDBRANCH  18  21
ENDBRANCH  13  18
ENDBRANCH   1  13
TORSDOF 10
ENDMDL