MODEL 5
REMARK VINA RESULT: -5.445495806      2.400      6.029
REMARK  5 active torsions:
REMARK  status: ('A' for Active; 'I' for Inactive)
REMARK    1  A    between atoms: C2_3  and  N2_4
REMARK    2  A    between atoms: N2_4  and  C3_7
REMARK    3  A    between atoms: C3_7  and  C4_8
REMARK    4  A    between atoms: C4_8  and  C5_9
REMARK    5  A    between atoms: C8_12  and  N3_13
REMARK       I    between atoms: N3_13  and  C9_15
REMARK       I    between atoms: C9_15  and  N4_16
REMARK       I    between atoms: C9_15  and  N5_20
ROOT
HETATM    1  N1  UNL     1      -3.807  15.998   7.459  1.00  0.00    -0.196 NA
HETATM    2  C1  UNL     1      -2.688  16.010   7.685  1.00  0.00     0.086 C
HETATM    3  C2  UNL     1      -1.233  16.025   7.950  1.00  0.00     0.355 C
ENDROOT
BRANCH   3   4
HETATM    4  N2  UNL     1      -0.943  15.161   9.066  1.00  0.00    -0.063 N
ATOM      5  H22 UNL     1      -1.797  14.877   9.548  1.00  0.00     0.278 HD
ATOM      6  H21 UNL     1      -0.624  14.244   8.754  1.00  0.00     0.278 HD
BRANCH   4   7
HETATM    7  C3  UNL     1      -0.006  15.762   9.972  1.00  0.00     0.239 C
BRANCH   7   8
HETATM    8  C4  UNL     1      -0.094  17.251   9.906  1.00  0.00     0.084 C
BRANCH   8   9
HETATM    9  C5  UNL     1      -0.794  17.785  11.132  1.00  0.00     0.013 A
HETATM   10  C6  UNL     1      -1.882  18.623  11.168  1.00  0.00     0.044 A
HETATM   11  C7  UNL     1      -2.239  18.877  12.480  1.00  0.00     0.054 A
HETATM   12  C8  UNL     1      -3.228  19.627  13.076  1.00  0.00     0.119 A
HETATM   13  C11 UNL     1      -1.323  18.158  13.244  1.00  0.00     0.120 A
HETATM   14  N6  UNL     1      -3.256  19.627  14.415  1.00  0.00    -0.338 N
HETATM   15  C10 UNL     1      -2.390  18.945  15.189  1.00  0.00     0.183 A
ATOM     16  H6  UNL     1      -3.980  20.177  14.877  1.00  0.00     0.168 HD
HETATM   17  N7  UNL     1      -1.436  18.222  14.590  1.00  0.00    -0.338 N
ATOM     18  H7  UNL     1      -0.774  17.704  15.166  1.00  0.00     0.168 HD
HETATM   19  N8  UNL     1      -0.480  17.524  12.411  1.00  0.00    -0.345 N
ATOM     20  H8  UNL     1       0.291  16.927  12.709  1.00  0.00     0.167 HD
BRANCH  12  21
HETATM   21  N3  UNL     1      -4.039  20.271  12.331  1.00  0.00    -0.326 N
HETATM   22  C9  UNL     1      -3.908  21.658  11.955  1.00  0.00     0.481 C
HETATM   23  N4  UNL     1      -5.113  22.345  12.438  1.00  0.00    -0.033 N
HETATM   24  N5  UNL     1      -2.793  22.341  12.515  1.00  0.00    -0.033 N
ATOM     25  H43 UNL     1      -5.979  21.919  12.107  1.00  0.00     0.278 HD
ATOM     26  H42 UNL     1      -5.278  22.213  13.436  1.00  0.00     0.278 HD
ATOM     27  H41 UNL     1      -5.021  23.325  12.171  1.00  0.00     0.278 HD
ATOM     28  H53 UNL     1      -2.804  22.255  13.531  1.00  0.00     0.278 HD
ATOM     29  H52 UNL     1      -1.932  21.839  12.300  1.00  0.00     0.278 HD
ATOM     30  H51 UNL     1      -2.700  23.321  12.248  1.00  0.00     0.278 HD
ATOM     31  H3  UNL     1      -4.847  19.763  11.972  1.00  0.00     0.164 HD
ENDBRANCH  12  21
ENDBRANCH   8   9
ENDBRANCH   7   8
ENDBRANCH   4   7
ENDBRANCH   3   4
TORSDOF 5
ENDMDL