MODEL 4
REMARK VINA RESULT: -5.932207472      1.245      1.511
REMARK  6 active torsions:
REMARK  status: ('A' for Active; 'I' for Inactive)
REMARK    1  A    between atoms: N1_1  and  C1_5
REMARK    2  A    between atoms: C1_5  and  C2_6
REMARK    3  A    between atoms: C2_6  and  N2_7
REMARK    4  A    between atoms: N2_7  and  C3_9
REMARK    5  A    between atoms: C6_15  and  N4_16
REMARK    6  A    between atoms: N4_16  and  C7_18
ROOT
HETATM    1  C3  UNL     1      -1.670  15.645  10.090  1.00  0.00     0.122 A
HETATM    2  C4  UNL     1      -2.459  14.674  10.719  1.00  0.00     0.123 A
HETATM    3  C5  UNL     1      -2.794  14.785  12.051  1.00  0.00     0.263 A
HETATM    4  O1  UNL     1      -3.505  13.880  12.553  1.00  0.00    -0.268 OA
HETATM    5  N3  UNL     1      -2.340  15.850  12.719  1.00  0.00    -0.156 N
ATOM      6  H3  UNL     1      -2.584  15.939  13.706  1.00  0.00     0.187 HD
HETATM    7  C6  UNL     1      -1.583  16.808  12.166  1.00  0.00     0.688 A
HETATM    8  N7  UNL     1      -1.268  16.668  10.845  1.00  0.00    -0.176 N
ATOM      9  H7  UNL     1      -0.692  17.388  10.409  1.00  0.00     0.186 HD
ENDROOT
BRANCH   7  10
HETATM   10  N4  UNL     1      -1.159  17.824  12.834  1.00  0.00    -0.176 N
ATOM     11  H4  UNL     1      -0.280  17.802  13.353  1.00  0.00     0.186 HD
BRANCH  10  12
HETATM   12  C7  UNL     1      -2.004  18.998  12.804  1.00  0.00     0.120 A
HETATM   13  C8  UNL     1      -2.937  19.200  13.797  1.00  0.00     0.051 A
HETATM   14  C9  UNL     1      -3.735  20.317  13.760  1.00  0.00     0.032 A
HETATM   15  C10 UNL     1      -3.625  21.246  12.747  1.00  0.00     0.061 A
HETATM   16  N5  UNL     1      -4.456  22.400  12.718  1.00  0.00    -0.101 NA
HETATM   17  C11 UNL     1      -2.673  20.980  11.790  1.00  0.00     0.116 A
HETATM   18  N6  UNL     1      -1.891  19.895  11.817  1.00  0.00    -0.350 N
ATOM     19  H6  UNL     1      -1.201  19.750  11.079  1.00  0.00     0.166 HD
ENDBRANCH  10  12
ENDBRANCH   7  10
BRANCH   1  20
HETATM   20  N2  UNL     1      -1.340  15.504   8.716  1.00  0.00    -0.374 N
ATOM     21  H2  UNL     1      -0.644  14.826   8.406  1.00  0.00     0.161 HD
BRANCH  20  22
HETATM   22  C2  UNL     1      -2.027  16.359   7.772  1.00  0.00     0.148 C
BRANCH  22  23
HETATM   23  C1  UNL     1      -1.178  17.550   7.381  1.00  0.00     0.249 C
BRANCH  23  24
HETATM   24  N1  UNL     1      -1.900  18.458   6.516  1.00  0.00    -0.078 N
ATOM     25  H13 UNL     1      -2.027  18.063   5.585  1.00  0.00     0.274 HD
ATOM     26  H12 UNL     1      -2.880  18.533   6.790  1.00  0.00     0.274 HD
ATOM     27  H11 UNL     1      -1.453  19.373   6.476  1.00  0.00     0.274 HD
ENDBRANCH  23  24
ENDBRANCH  22  23
ENDBRANCH  20  22
ENDBRANCH   1  20
TORSDOF 6
ENDMDL