MODEL 3
REMARK VINA RESULT: -4.780824450      2.546      4.131
REMARK  10 active torsions:
REMARK  status: ('A' for Active; 'I' for Inactive)
REMARK    1  A    between atoms: N1_1  and  N2_4
REMARK    2  A    between atoms: N2_4  and  C1_5
REMARK    3  A    between atoms: C1_5  and  C2_6
REMARK    4  A    between atoms: C2_6  and  O1_7
REMARK    5  A    between atoms: O1_7  and  C3_8
REMARK    6  A    between atoms: C3_8  and  C4_9
REMARK    7  A    between atoms: C4_9  and  N3_10
REMARK    8  A    between atoms: N3_10  and  C5_12
REMARK    9  A    between atoms: C6_15  and  N5_16
REMARK   10  A    between atoms: C9_27  and  N9_28
ROOT
HETATM    1  C5  UNL     1      -1.188  17.159  10.507  1.00  0.00     0.134 A
HETATM    2  N4  UNL     1      -0.229  16.228  10.582  1.00  0.00    -0.176 N
ATOM      3  H4  UNL     1       0.471  16.300  11.320  1.00  0.00     0.186 HD
HETATM    4  C6  UNL     1      -0.154  15.186   9.707  1.00  0.00     0.679 A
HETATM    5  N6  UNL     1      -1.074  15.099   8.744  1.00  0.00    -0.176 N
ATOM      6  H6  UNL     1      -1.017  14.318   8.090  1.00  0.00     0.186 HD
HETATM    7  C7  UNL     1      -2.062  15.977   8.594  1.00  0.00     0.139 A
HETATM    8  N7  UNL     1      -2.976  15.869   7.618  1.00  0.00    -0.337 N
ATOM      9  H7  UNL     1      -2.919  15.089   6.963  1.00  0.00     0.168 HD
HETATM   10  C8  UNL     1      -3.981  16.783   7.485  1.00  0.00     0.183 A
HETATM   11  N8  UNL     1      -4.065  17.811   8.338  1.00  0.00    -0.338 N
ATOM     12  H8  UNL     1      -4.815  18.496   8.241  1.00  0.00     0.168 HD
HETATM   13  C9  UNL     1      -3.161  17.940   9.324  1.00  0.00     0.117 A
HETATM   14  C10 UNL     1      -2.132  17.028   9.482  1.00  0.00     0.096 A
ENDROOT
BRANCH   1  15
HETATM   15  N3  UNL     1      -1.329  18.166  11.288  1.00  0.00    -0.373 N
ATOM     16  H3  UNL     1      -1.751  19.023  10.931  1.00  0.00     0.161 HD
BRANCH  15  17
HETATM   17  C4  UNL     1      -0.899  18.103  12.662  1.00  0.00     0.147 C
BRANCH  17  18
HETATM   18  C3  UNL     1      -2.023  17.791  13.611  1.00  0.00     0.187 C
BRANCH  18  19
HETATM   19  O1  UNL     1      -3.132  18.544  13.328  1.00  0.00    -0.383 OA
BRANCH  19  20
HETATM   20  C2  UNL     1      -3.263  19.706  14.042  1.00  0.00     0.229 C
BRANCH  20  21
HETATM   21  C1  UNL     1      -3.584  20.849  13.131  1.00  0.00     0.207 C
BRANCH  21  22
HETATM   22  N2  UNL     1      -2.758  21.245  12.286  1.00  0.00    -0.348 NA
BRANCH  22  23
HETATM   23  N1  UNL     1      -1.937  21.871  11.585  1.00  0.00    -0.281 N
ATOM     24  H12 UNL     1      -1.499  22.266  12.417  1.00  0.00     0.191 HD
ATOM     25  H11 UNL     1      -1.374  22.287  10.844  1.00  0.00     0.191 HD
ENDBRANCH  22  23
ENDBRANCH  21  22
ENDBRANCH  20  21
ENDBRANCH  19  20
ENDBRANCH  18  19
ENDBRANCH  17  18
ENDBRANCH  15  17
ENDBRANCH   1  15
BRANCH   4  26
HETATM   26  N5  UNL     1       0.792  14.304   9.811  1.00  0.00    -0.234 N
ATOM     27  H52 UNL     1       0.579  13.323   9.996  1.00  0.00     0.174 HD
ATOM     28  H51 UNL     1       1.769  14.576   9.711  1.00  0.00     0.174 HD
ENDBRANCH   4  26
BRANCH  13  29
HETATM   29  N9  UNL     1      -3.208  18.928  10.176  1.00  0.00    -0.385 N
ATOM     30  H92 UNL     1      -4.072  19.036  10.708  1.00  0.00     0.157 HD
ATOM     31  H91 UNL     1      -2.421  19.564  10.304  1.00  0.00     0.157 HD
ENDBRANCH  13  29
TORSDOF 10
ENDMDL