MODEL 3
REMARK VINA RESULT: -5.438547798      1.712      2.607
REMARK  6 active torsions:
REMARK  status: ('A' for Active; 'I' for Inactive)
REMARK    1  A    between atoms: C2_2  and  C3_3
REMARK    2  A    between atoms: C3_3  and  C4_4
REMARK    3  A    between atoms: C4_4  and  C5_5
REMARK    4  A    between atoms: C4_4  and  N1_8
REMARK    5  A    between atoms: C5_5  and  O1_6
REMARK    6  A    between atoms: C8_13  and  N3_14
REMARK       I    between atoms: N3_14  and  C9_16
REMARK       I    between atoms: C9_16  and  N4_17
REMARK       I    between atoms: C9_16  and  N5_21
ROOT
HETATM    1  N1  UNL     1      -2.486  18.442  13.266  1.00  0.00    -0.320 N
HETATM    2  C6  UNL     1      -1.214  18.350  12.835  1.00  0.00     0.185 A
HETATM    3  N2  UNL     1      -1.126  17.205  12.127  1.00  0.00    -0.346 N
ATOM      4  H2  UNL     1      -0.280  16.861  11.672  1.00  0.00     0.167 HD
HETATM    5  C7  UNL     1      -2.318  16.586  12.110  1.00  0.00     0.122 A
HETATM    6  C8  UNL     1      -2.792  15.396  11.540  1.00  0.00     0.136 A
HETATM    7  N6  UNL     1      -4.077  15.041  11.707  1.00  0.00    -0.337 N
ATOM      8  H6  UNL     1      -4.419  14.174  11.293  1.00  0.00     0.168 HD
HETATM    9  C10 UNL     1      -4.918  15.819  12.418  1.00  0.00     0.183 A
HETATM   10  N7  UNL     1      -4.456  16.958  12.961  1.00  0.00    -0.336 N
ATOM     11  H7  UNL     1      -5.101  17.538  13.497  1.00  0.00     0.168 HD
HETATM   12  C11 UNL     1      -3.169  17.372  12.828  1.00  0.00     0.141 A
ENDROOT
BRANCH   6  13
HETATM   13  N3  UNL     1      -1.918  14.722  10.882  1.00  0.00    -0.325 N
HETATM   14  C9  UNL     1      -1.334  15.289   9.705  1.00  0.00     0.481 C
HETATM   15  N4  UNL     1      -2.236  15.322   8.568  1.00  0.00    -0.033 N
HETATM   16  N5  UNL     1      -0.136  14.585   9.285  1.00  0.00    -0.033 N
ATOM     17  H43 UNL     1      -2.608  14.392   8.374  1.00  0.00     0.278 HD
ATOM     18  H42 UNL     1      -3.103  15.804   8.809  1.00  0.00     0.278 HD
ATOM     19  H41 UNL     1      -1.820  15.727   7.729  1.00  0.00     0.278 HD
ATOM     20  H53 UNL     1       0.544  14.532  10.044  1.00  0.00     0.278 HD
ATOM     21  H52 UNL     1      -0.321  13.589   9.161  1.00  0.00     0.278 HD
ATOM     22  H51 UNL     1       0.280  14.989   8.446  1.00  0.00     0.278 HD
ATOM     23  H3  UNL     1      -1.643  13.791  11.196  1.00  0.00     0.165 HD
ENDBRANCH   6  13
BRANCH   1  24
HETATM   24  C4  UNL     1      -3.060  19.498  14.064  1.00  0.00     0.119 C
BRANCH  24  25
HETATM   25  C3  UNL     1      -4.071  20.326  13.315  1.00  0.00     0.054 C
BRANCH  25  26
HETATM   26  C2  UNL     1      -3.374  21.570  12.841  1.00  0.00    -0.035 C
HETATM   27  C1  UNL     1      -2.797  21.617  11.651  1.00  0.00     0.007 C
ENDBRANCH  25  26
ENDBRANCH  24  25
BRANCH  24  28
HETATM   28  C5  UNL     1      -3.648  18.881  15.314  1.00  0.00     0.190 C
BRANCH  28  29
HETATM   29  O1  UNL     1      -2.657  18.439  16.163  1.00  0.00    -0.399 OA
ATOM     30  H1  UNL     1      -1.876  18.195  15.679  1.00  0.00     0.209 HD
ENDBRANCH  28  29
ENDBRANCH  24  28
ENDBRANCH   1  24
TORSDOF 6
ENDMDL