MODEL 1
REMARK VINA RESULT: -4.963124808      0.000      0.000
REMARK  10 active torsions:
REMARK  status: ('A' for Active; 'I' for Inactive)
REMARK    1  A    between atoms: C2_2  and  N1_3
REMARK    2  A    between atoms: C4_8  and  C5_9
REMARK    3  A    between atoms: C4_8  and  C6_14
REMARK    4  A    between atoms: C5_9  and  N2_10
REMARK    5  A    between atoms: C6_14  and  N3_15
REMARK    6  A    between atoms: C6_14  and  C7_19
REMARK    7  A    between atoms: C11_23  and  C12_24
REMARK    8  A    between atoms: C12_24  and  C13_25
REMARK    9  A    between atoms: C13_25  and  N4_26
REMARK   10  A    between atoms: C13_25  and  N5_30
ROOT
HETATM    1  C6  UNL     1      -2.019  18.262   8.881  1.00  0.00     0.245 C
ENDROOT
BRANCH   1   2
HETATM    2  C4  UNL     1      -1.600  16.853   8.540  1.00  0.00     0.052 A
HETATM    3  C2  UNL     1      -0.434  16.222   9.186  1.00  0.00     0.132 A
HETATM    4  C1  UNL     1       0.354  16.928  10.253  1.00  0.00     0.047 C
HETATM    5  C3  UNL     1      -0.253  16.765   7.800  1.00  0.00     0.055 A
BRANCH   3   6
HETATM    6  N1  UNL     1      -0.436  14.771   9.251  1.00  0.00    -0.070 N
ATOM      7  H13 UNL     1      -0.405  14.382   8.309  1.00  0.00     0.275 HD
ATOM      8  H12 UNL     1       0.457  14.439   9.615  1.00  0.00     0.275 HD
ATOM      9  H11 UNL     1      -1.202  14.349   9.776  1.00  0.00     0.275 HD
ENDBRANCH   3   6
BRANCH   2  10
HETATM   10  C5  UNL     1      -2.720  15.965   8.060  1.00  0.00     0.244 C
BRANCH  10  11
HETATM   11  N2  UNL     1      -3.263  15.140   9.115  1.00  0.00    -0.078 N
ATOM     12  H23 UNL     1      -3.159  14.149   8.897  1.00  0.00     0.274 HD
ATOM     13  H22 UNL     1      -2.682  15.185   9.952  1.00  0.00     0.274 HD
ATOM     14  H21 UNL     1      -4.234  15.369   9.329  1.00  0.00     0.274 HD
ENDBRANCH  10  11
ENDBRANCH   2  10
ENDBRANCH   1   2
BRANCH   1  15
HETATM   15  N3  UNL     1      -2.675  18.920   7.774  1.00  0.00    -0.069 N
ATOM     16  H33 UNL     1      -2.545  18.400   6.906  1.00  0.00     0.275 HD
ATOM     17  H32 UNL     1      -3.689  18.852   7.853  1.00  0.00     0.275 HD
ATOM     18  H31 UNL     1      -2.378  19.891   7.670  1.00  0.00     0.275 HD
ENDBRANCH   1  15
BRANCH   1  19
HETATM   19  C7  UNL     1      -2.985  18.266  10.023  1.00  0.00     0.041 A
HETATM   20  C8  UNL     1      -4.276  18.706   9.789  1.00  0.00     0.027 A
HETATM   21  C9  UNL     1      -5.143  18.702  10.854  1.00  0.00     0.004 A
HETATM   22  C10 UNL     1      -4.774  18.280  12.136  1.00  0.00     0.025 A
HETATM   23  C11 UNL     1      -3.478  17.853  12.312  1.00  0.00     0.013 A
HETATM   24  N6  UNL     1      -2.627  17.861  11.253  1.00  0.00    -0.361 N
ATOM     25  H6  UNL     1      -1.669  17.544  11.400  1.00  0.00     0.165 HD
BRANCH  23  26
HETATM   26  C12 UNL     1      -3.002  17.401  13.629  1.00  0.00     0.119 C
BRANCH  26  27
HETATM   27  C13 UNL     1      -2.173  18.387  14.375  1.00  0.00     0.383 C
BRANCH  27  28
HETATM   28  N4  UNL     1      -2.656  18.468  15.766  1.00  0.00    -0.050 N
ATOM     29  H43 UNL     1      -3.274  17.693  16.007  1.00  0.00     0.276 HD
ATOM     30  H42 UNL     1      -1.919  18.280  16.445  1.00  0.00     0.276 HD
ATOM     31  H41 UNL     1      -3.098  19.375  15.912  1.00  0.00     0.276 HD
ENDBRANCH  27  28
BRANCH  27  32
HETATM   32  N5  UNL     1      -0.821  17.814  14.522  1.00  0.00    -0.050 N
ATOM     33  H53 UNL     1      -0.211  18.028  13.734  1.00  0.00     0.276 HD
ATOM     34  H52 UNL     1      -0.270  18.274  15.247  1.00  0.00     0.276 HD
ATOM     35  H51 UNL     1      -0.927  16.812  14.681  1.00  0.00     0.276 HD
ENDBRANCH  27  32
ENDBRANCH  26  27
ENDBRANCH  23  26
ENDBRANCH   1  19
TORSDOF 10
ENDMDL