MODEL 2
REMARK VINA RESULT: -5.343879870      1.929      2.814
REMARK  10 active torsions:
REMARK  status: ('A' for Active; 'I' for Inactive)
REMARK    1  A    between atoms: O1_1  and  C1_3
REMARK    2  A    between atoms: N1_7  and  C5_8
REMARK    3  A    between atoms: C5_8  and  C6_9
REMARK    4  A    between atoms: C6_9  and  O2_10
REMARK    5  A    between atoms: C6_9  and  C7_12
REMARK    6  A    between atoms: C7_12  and  O3_13
REMARK    7  A    between atoms: C7_12  and  C8_15
REMARK    8  A    between atoms: C8_15  and  O4_16
REMARK    9  A    between atoms: C8_15  and  N2_18
REMARK   10  A    between atoms: N2_18  and  C9_20
ROOT
HETATM    1  C6  UNL     1      -4.026  15.083  11.942  1.00  0.00     0.169 C
ENDROOT
BRANCH   1   2
HETATM    2  C5  UNL     1      -3.775  16.548  11.672  1.00  0.00     0.165 C
BRANCH   2   3
HETATM    3  N1  UNL     1      -3.081  17.190  12.767  1.00  0.00    -0.336 N
HETATM    4  C1  UNL     1      -1.748  17.337  12.797  1.00  0.00     0.141 A
HETATM    5  C2  UNL     1      -1.382  17.981  13.955  1.00  0.00     0.057 A
HETATM    6  C3  UNL     1      -2.548  18.232  14.649  1.00  0.00     0.022 A
HETATM    7  C4  UNL     1      -3.567  17.727  13.880  1.00  0.00     0.093 A
BRANCH   4   8
HETATM    8  O1  UNL     1      -0.819  16.922  11.835  1.00  0.00    -0.346 OA
ATOM      9  H1  UNL     1      -0.665  16.007  11.629  1.00  0.00     0.219 HD
ENDBRANCH   4   8
ENDBRANCH   2   3
ENDBRANCH   1   2
BRANCH   1  10
HETATM   10  O2  UNL     1      -5.375  14.796  11.789  1.00  0.00    -0.391 OA
ATOM     11  H2  UNL     1      -5.598  14.014  12.280  1.00  0.00     0.210 HD
ENDBRANCH   1  10
BRANCH   1  12
HETATM   12  C7  UNL     1      -3.173  14.292  10.958  1.00  0.00     0.197 C
BRANCH  12  13
HETATM   13  O3  UNL     1      -1.956  13.987  11.542  1.00  0.00    -0.389 OA
ATOM     14  H3  UNL     1      -1.386  13.584  10.897  1.00  0.00     0.210 HD
ENDBRANCH  12  13
BRANCH  12  15
HETATM   15  C8  UNL     1      -2.942  15.116   9.685  1.00  0.00     0.249 C
BRANCH  15  16
HETATM   16  O4  UNL     1      -3.764  14.709   8.665  1.00  0.00    -0.374 OA
ATOM     17  H4  UNL     1      -4.680  14.798   8.898  1.00  0.00     0.212 HD
ENDBRANCH  15  16
BRANCH  15  18
HETATM   18  N2  UNL     1      -1.543  15.066   9.379  1.00  0.00    -0.362 N
ATOM     19  H2  UNL     1      -1.000  14.303   9.782  1.00  0.00     0.162 HD
BRANCH  18  20
HETATM   20  C9  UNL     1      -0.926  15.899   8.644  1.00  0.00     0.030 A
HETATM   21  C10 UNL     1       0.226  16.661   8.410  1.00  0.00     0.031 A
HETATM   22  C11 UNL     1      -0.877  16.718   7.505  1.00  0.00     0.031 A
ENDBRANCH  18  20
ENDBRANCH  15  18
ENDBRANCH  12  15
ENDBRANCH   1  12
TORSDOF 10
ENDMDL