MODEL 4
REMARK VINA RESULT: -5.724079796      2.603      3.395
REMARK  6 active torsions:
REMARK  status: ('A' for Active; 'I' for Inactive)
REMARK    1  A    between atoms: N2_4  and  N3_6
REMARK    2  A    between atoms: N3_6  and  N4_8
REMARK    3  A    between atoms: N4_8  and  C1_9
REMARK    4  A    between atoms: C1_9  and  C2_10
REMARK    5  A    between atoms: C9_22  and  C10_23
REMARK    6  A    between atoms: N8_24  and  O1_26
ROOT
HETATM    1  C2  UNL     1      -3.461  16.955  10.989  1.00  0.00     0.054 A
HETATM    2  N5  UNL     1      -4.620  16.580  11.552  1.00  0.00    -0.355 N
ATOM      3  H5  UNL     1      -5.290  16.050  10.996  1.00  0.00     0.166 HD
HETATM    4  C3  UNL     1      -4.931  16.886  12.844  1.00  0.00     0.061 A
HETATM    5  C4  UNL     1      -6.115  16.501  13.414  1.00  0.00     0.032 A
HETATM    6  C5  UNL     1      -6.420  16.815  14.722  1.00  0.00     0.004 A
HETATM    7  C6  UNL     1      -5.502  17.532  15.458  1.00  0.00     0.029 A
HETATM    8  C7  UNL     1      -4.304  17.926  14.897  1.00  0.00     0.075 A
HETATM    9  N6  UNL     1      -3.336  18.663  15.620  1.00  0.00    -0.100 NA
HETATM   10  C8  UNL     1      -4.015  17.602  13.585  1.00  0.00     0.084 A
HETATM   11  N7  UNL     1      -2.839  17.995  13.049  1.00  0.00    -0.350 N
ATOM     12  H7  UNL     1      -2.166  18.526  13.603  1.00  0.00     0.166 HD
HETATM   13  C9  UNL     1      -2.568  17.669  11.753  1.00  0.00     0.074 A
ENDROOT
BRANCH   1  14
HETATM   14  C1  UNL     1      -3.143  16.612   9.581  1.00  0.00     0.196 C
BRANCH  14  15
HETATM   15  N4  UNL     1      -3.110  15.202   9.345  1.00  0.00    -0.118 NA
BRANCH  15  16
HETATM   16  N3  UNL     1      -1.933  14.683   9.865  1.00  0.00    -0.232 N
ATOM     17  H3  UNL     1      -1.975  14.127  10.719  1.00  0.00     0.205 HD
BRANCH  16  18
HETATM   18  N2  UNL     1      -0.694  14.896   9.257  1.00  0.00    -0.238 N
HETATM   19  N1  UNL     1       0.370  14.427   9.768  1.00  0.00    -0.330 N
ATOM     20  H12 UNL     1       0.301  13.891  10.633  1.00  0.00     0.178 HD
ATOM     21  H11 UNL     1       1.275  14.583   9.324  1.00  0.00     0.178 HD
ATOM     22  H2  UNL     1      -0.642  15.434   8.392  1.00  0.00     0.209 HD
ENDBRANCH  16  18
ENDBRANCH  15  16
ENDBRANCH  14  15
ENDBRANCH   1  14
BRANCH  13  23
HETATM   23  C10 UNL     1      -1.303  18.087  11.170  1.00  0.00     0.145 C
HETATM   24  N8  UNL     1      -0.210  17.488  11.488  1.00  0.00    -0.278 N
ATOM     25  H8  UNL     1      -0.233  16.716  12.153  1.00  0.00     0.193 HD
BRANCH  24  26
HETATM   26  O1  UNL     1       0.977  17.876  10.946  1.00  0.00    -0.290 OA
ATOM     27  H1  UNL     1       1.345  18.729  11.146  1.00  0.00     0.244 HD
ENDBRANCH  24  26
ENDBRANCH  13  23
TORSDOF 6
ENDMDL