MODEL 2
REMARK VINA RESULT: -7.226578035      2.884     10.495
REMARK  22 active torsions:
REMARK  status: ('A' for Active; 'I' for Inactive)
REMARK    1  A    between atoms: C3_3  and  N1_4
REMARK    2  A    between atoms: N1_4  and  C4_5
REMARK    3  A    between atoms: C4_5  and  C5_6
REMARK    4  A    between atoms: C5_6  and  C6_7
REMARK    5  A    between atoms: C6_7  and  C7_8
REMARK    6  A    between atoms: C7_8  and  C8_9
REMARK    7  A    between atoms: C8_9  and  C9_10
REMARK    8  A    between atoms: C9_10  and  N2_12
REMARK    9  A    between atoms: C9_10  and  C16_27
REMARK       I    between atoms: N2_12  and  C11_14
REMARK   10  A    between atoms: C11_14  and  C12_16
REMARK   11  A    between atoms: C12_16  and  N3_17
REMARK       I    between atoms: N3_17  and  C13_19
REMARK       I    between atoms: C13_19  and  N5_23
REMARK   12  A    between atoms: N5_23  and  C14_25
REMARK   13  A    between atoms: C16_27  and  O3_29
REMARK   14  A    between atoms: O3_29  and  C17_30
REMARK   15  A    between atoms: C20_33  and  O4_34
REMARK   16  A    between atoms: O4_34  and  C21_35
REMARK   17  A    between atoms: C21_35  and  C22_37
REMARK   18  A    between atoms: C22_37  and  C23_38
REMARK   19  A    between atoms: C23_38  and  O6_39
REMARK   20  A    between atoms: C23_38  and  C24_41
REMARK   21  A    between atoms: C24_41  and  N6_42
REMARK   22  A    between atoms: C24_41  and  C25_46
ROOT
HETATM    1  C1  UNL     1       9.879   7.395  29.043  1.00  0.00     0.013 C
HETATM    2  C2  UNL     1      10.277   6.585  28.231  1.00  0.00    -0.089 C
HETATM    3  C3  UNL     1      10.773   5.623  27.293  1.00  0.00     0.330 C
ENDROOT
BRANCH   3   4
HETATM    4  N1  UNL     1       9.846   5.154  26.288  1.00  0.00    -0.049 N
HETATM    5  C19 UNL     1       9.368   6.322  25.583  1.00  0.00     0.271 C
HETATM    6  C20 UNL     1      10.335   6.828  24.541  1.00  0.00     0.163 C
HETATM    7  C27 UNL     1      10.570   5.766  23.474  1.00  0.00     0.115 C
HETATM    8  C28 UNL     1      10.350   4.392  23.958  1.00  0.00     0.270 C
HETATM    9  F1  UNL     1       9.206   3.878  23.319  1.00  0.00    -0.204 F
HETATM   10  F2  UNL     1      11.371   3.576  23.427  1.00  0.00    -0.204 F
HETATM   11  C29 UNL     1      10.342   4.134  25.413  1.00  0.00     0.317 C
BRANCH   4  12
HETATM   12  C4  UNL     1       8.711   4.618  27.029  1.00  0.00     0.239 C
BRANCH  12  13
HETATM   13  C5  UNL     1       8.043   3.434  26.459  1.00  0.00     0.028 C
BRANCH  13  14
HETATM   14  C6  UNL     1       8.167   2.317  27.507  1.00  0.00     0.002 C
BRANCH  14  15
HETATM   15  C7  UNL     1       7.900   2.792  28.895  1.00  0.00     0.003 C
BRANCH  15  16
HETATM   16  C8  UNL     1       6.983   1.884  29.669  1.00  0.00     0.041 C
BRANCH  16  17
HETATM   17  C9  UNL     1       5.715   2.530  30.134  1.00  0.00     0.117 C
HETATM   18  C10 UNL     1       6.135   3.584  31.173  1.00  0.00     0.049 C
BRANCH  17  19
HETATM   19  N2  UNL     1       4.952   3.190  29.111  1.00  0.00    -0.341 N
HETATM   20  C11 UNL     1       4.449   2.526  27.980  1.00  0.00     0.236 C
HETATM   21  O1  UNL     1       4.677   1.277  27.873  1.00  0.00    -0.272 OA
ATOM     22  H2  UNL     1       4.768   4.189  29.210  1.00  0.00     0.163 HD
BRANCH  20  23
HETATM   23  C12 UNL     1       3.671   3.128  26.891  1.00  0.00     0.240 C
BRANCH  23  24
HETATM   24  N3  UNL     1       4.272   4.272  26.252  1.00  0.00    -0.218 N
HETATM   25  C13 UNL     1       3.670   5.066  25.268  1.00  0.00     0.667 C
HETATM   26  N4  UNL     1       2.453   4.801  24.883  1.00  0.00    -0.235 N
HETATM   27  N5  UNL     1       4.335   6.174  24.680  1.00  0.00    -0.227 N
ATOM     28  H42 UNL     1       1.975   4.005  25.306  1.00  0.00     0.174 HD
ATOM     29  H41 UNL     1       2.014   5.379  24.166  1.00  0.00     0.174 HD
ATOM     30  H5  UNL     1       4.343   7.056  25.191  1.00  0.00     0.177 HD
ATOM     31  H3  UNL     1       5.217   4.525  26.541  1.00  0.00     0.178 HD
BRANCH  27  32
HETATM   32  C14 UNL     1       4.997   6.124  23.402  1.00  0.00     0.133 C
HETATM   33  C15 UNL     1       6.449   5.758  23.578  1.00  0.00     0.027 C
ENDBRANCH  27  32
ENDBRANCH  23  24
ENDBRANCH  20  23
ENDBRANCH  17  19
BRANCH  17  34
HETATM   34  C16 UNL     1       4.835   1.564  30.856  1.00  0.00     0.287 C
HETATM   35  O2  UNL     1       3.708   1.859  31.321  1.00  0.00    -0.262 OA
BRANCH  34  36
HETATM   36  O3  UNL     1       5.258   0.243  31.045  1.00  0.00    -0.320 OA
BRANCH  36  37
HETATM   37  C17 UNL     1       5.335  -0.389  32.289  1.00  0.00     0.174 C
HETATM   38  C18 UNL     1       6.524   0.220  33.042  1.00  0.00     0.034 C
ENDBRANCH  36  37
ENDBRANCH  34  36
ENDBRANCH  17  34
ENDBRANCH  16  17
ENDBRANCH  15  16
ENDBRANCH  14  15
ENDBRANCH  13  14
ENDBRANCH  12  13
ENDBRANCH   4  12
BRANCH   6  39
HETATM   39  O4  UNL     1      11.571   7.240  25.008  1.00  0.00    -0.314 OA
BRANCH  39  40
HETATM   40  C21 UNL     1      12.292   8.360  24.668  1.00  0.00     0.261 C
HETATM   41  O5  UNL     1      12.217   8.754  23.492  1.00  0.00    -0.265 OA
BRANCH  40  42
HETATM   42  C22 UNL     1      13.091   8.992  25.725  1.00  0.00     0.144 C
BRANCH  42  43
HETATM   43  C23 UNL     1      14.101   9.963  25.223  1.00  0.00     0.157 C
BRANCH  43  44
HETATM   44  O6  UNL     1      13.389  11.125  24.842  1.00  0.00    -0.393 OA
ATOM     45  H6  UNL     1      13.473  11.741  25.560  1.00  0.00     0.210 HD
ENDBRANCH  43  44
BRANCH  43  46
HETATM   46  C24 UNL     1      15.105  10.425  26.253  1.00  0.00     0.212 C
BRANCH  46  47
HETATM   47  N6  UNL     1      15.507   9.361  27.138  1.00  0.00    -0.073 N
ATOM     48  H63 UNL     1      14.903   8.546  27.032  1.00  0.00     0.274 HD
ATOM     49  H62 UNL     1      16.391   8.949  26.841  1.00  0.00     0.274 HD
ATOM     50  H61 UNL     1      15.550   9.663  28.111  1.00  0.00     0.274 HD
ENDBRANCH  46  47
BRANCH  46  51
HETATM   51  C25 UNL     1      14.584  11.622  27.011  1.00  0.00     0.031 C
HETATM   52  C26 UNL     1      15.308  11.926  28.277  1.00  0.00     0.007 C
ENDBRANCH  46  51
ENDBRANCH  43  46
ENDBRANCH  42  43
ENDBRANCH  40  42
ENDBRANCH  39  40
ENDBRANCH   6  39
ENDBRANCH   3   4
TORSDOF 22
ENDMDL