MODEL 3
REMARK VINA RESULT: -6.866088310      3.937      9.149
REMARK  22 active torsions:
REMARK  status: ('A' for Active; 'I' for Inactive)
REMARK    1  A    between atoms: C1_2  and  O1_3
REMARK    2  A    between atoms: C1_2  and  C2_5
REMARK    3  A    between atoms: C3_8  and  N3_9
REMARK    4  A    between atoms: N3_9  and  C4_11
REMARK    5  A    between atoms: C4_11  and  C5_12
REMARK    6  A    between atoms: C5_12  and  C6_13
REMARK    7  A    between atoms: C6_13  and  N4_14
REMARK       I    between atoms: N4_14  and  C7_16
REMARK    8  A    between atoms: C7_16  and  C8_18
REMARK    9  A    between atoms: C8_18  and  N5_19
REMARK   10  A    between atoms: N5_19  and  O3_20
REMARK   11  A    between atoms: N5_19  and  C9_22
REMARK   12  A    between atoms: C9_22  and  C10_23
REMARK   13  A    between atoms: C10_23  and  O4_24
REMARK   14  A    between atoms: C10_23  and  C11_26
REMARK   15  A    between atoms: C11_26  and  O5_27
REMARK   16  A    between atoms: O5_27  and  C12_28
REMARK   17  A    between atoms: C12_28  and  C13_29
REMARK   18  A    between atoms: C13_29  and  N6_30
REMARK   19  A    between atoms: N6_30  and  C14_32
REMARK   20  A    between atoms: C14_32  and  C15_33
REMARK   21  A    between atoms: C22_44  and  C23_45
REMARK   22  A    between atoms: C23_45  and  C24_46
ROOT
HETATM    1  C6  UNL     1      10.957   7.623  26.165  1.00  0.00     0.128 C
ENDROOT
BRANCH   1   2
HETATM    2  C5  UNL     1      11.743   6.477  25.638  1.00  0.00     0.065 C
BRANCH   2   3
HETATM    3  C4  UNL     1      11.690   5.235  26.485  1.00  0.00     0.080 C
BRANCH   3   4
HETATM    4  N3  UNL     1      11.003   4.135  25.957  1.00  0.00    -0.205 N
ATOM      5  H3  UNL     1      11.475   3.617  25.216  1.00  0.00     0.183 HD
BRANCH   4   6
HETATM    6  C3  UNL     1       9.853   3.713  26.303  1.00  0.00     0.685 A
HETATM    7  N2  UNL     1       8.736   4.436  26.364  1.00  0.00    -0.187 N
HETATM    8  C2  UNL     1       7.515   3.965  26.758  1.00  0.00     0.109 A
ATOM      9  H2  UNL     1       8.796   5.418  26.096  1.00  0.00     0.184 HD
HETATM   10  C22 UNL     1       7.474   2.649  27.107  1.00  0.00     0.046 A
HETATM   11  C21 UNL     1       8.636   1.839  27.056  1.00  0.00     0.268 A
HETATM   12  N7  UNL     1       9.766   2.405  26.658  1.00  0.00    -0.155 N
HETATM   13  O6  UNL     1       8.572   0.632  27.379  1.00  0.00    -0.267 OA
ATOM     14  H7  UNL     1      10.609   1.832  26.617  1.00  0.00     0.187 HD
BRANCH   8  15
HETATM   15  C1  UNL     1       6.372   4.858  26.775  1.00  0.00     0.178 C
HETATM   16  N1  UNL     1       5.285   4.950  25.926  1.00  0.00    -0.073 NA
BRANCH  15  17
HETATM   17  O1  UNL     1       6.389   5.711  27.761  1.00  0.00    -0.347 OA
ATOM     18  H1  UNL     1       6.677   6.588  27.539  1.00  0.00     0.219 HD
ENDBRANCH  15  17
ENDBRANCH   8  15
BRANCH  10  19
HETATM   19  C23 UNL     1       6.241   2.004  27.605  1.00  0.00     0.085 C
BRANCH  19  20
HETATM   20  C24 UNL     1       6.241   1.954  29.085  1.00  0.00    -0.051 A
HETATM   21  C25 UNL     1       6.246   0.757  29.800  1.00  0.00     0.007 A
HETATM   22  C26 UNL     1       6.204   0.713  31.175  1.00  0.00     0.004 A
HETATM   23  C27 UNL     1       6.152   1.864  31.927  1.00  0.00     0.042 A
HETATM   24  C28 UNL     1       6.146   3.058  31.237  1.00  0.00     0.116 A
HETATM   25  F2  UNL     1       6.096   4.202  31.955  1.00  0.00    -0.206 F
HETATM   26  C29 UNL     1       6.188   3.114  29.861  1.00  0.00     0.049 A
ENDBRANCH  19  20
ENDBRANCH  10  19
ENDBRANCH   4   6
ENDBRANCH   3   4
ENDBRANCH   2   3
ENDBRANCH   1   2
BRANCH   1  27
HETATM   27  N4  UNL     1      10.770   7.636  27.609  1.00  0.00    -0.356 N
HETATM   28  C7  UNL     1       9.418   7.653  28.042  1.00  0.00     0.258 C
HETATM   29  O2  UNL     1       8.460   7.654  27.200  1.00  0.00    -0.267 OA
ATOM     30  H4  UNL     1      11.553   7.632  28.262  1.00  0.00     0.162 HD
BRANCH  28  31
HETATM   31  C8  UNL     1       9.035   7.666  29.442  1.00  0.00     0.190 C
BRANCH  31  32
HETATM   32  N5  UNL     1       7.689   7.890  29.789  1.00  0.00    -0.264 N
BRANCH  32  33
HETATM   33  O3  UNL     1       7.176   6.952  30.629  1.00  0.00    -0.288 OA
ATOM     34  H3  UNL     1       6.234   7.007  30.735  1.00  0.00     0.244 HD
ENDBRANCH  32  33
BRANCH  32  35
HETATM   35  C9  UNL     1       7.279   9.210  30.107  1.00  0.00     0.189 C
BRANCH  35  36
HETATM   36  C10 UNL     1       5.959   9.570  29.383  1.00  0.00     0.162 C
BRANCH  36  37
HETATM   37  O4  UNL     1       5.872   8.657  28.339  1.00  0.00    -0.392 OA
ATOM     38  H4  UNL     1       5.121   8.117  28.555  1.00  0.00     0.210 HD
ENDBRANCH  36  37
BRANCH  36  39
HETATM   39  C11 UNL     1       4.904   9.461  30.415  1.00  0.00     0.201 C
BRANCH  39  40
HETATM   40  O5  UNL     1       4.450   8.281  30.818  1.00  0.00    -0.387 OA
BRANCH  40  41
HETATM   41  C12 UNL     1       3.566   8.116  31.812  1.00  0.00     0.186 C
BRANCH  41  42
HETATM   42  C13 UNL     1       2.627   6.950  31.591  1.00  0.00     0.140 C
BRANCH  42  43
HETATM   43  N6  UNL     1       3.251   5.703  31.314  1.00  0.00    -0.415 N
ATOM     44  H6  UNL     1       4.124   5.654  30.789  1.00  0.00     0.153 HD
BRANCH  43  45
HETATM   45  C14 UNL     1       2.614   4.529  31.793  1.00  0.00     0.152 C
BRANCH  45  46
HETATM   46  C15 UNL     1       2.623   3.488  30.723  1.00  0.00    -0.041 A
HETATM   47  C16 UNL     1       2.688   3.871  29.412  1.00  0.00     0.012 A
HETATM   48  C17 UNL     1       2.708   2.887  28.439  1.00  0.00     0.043 A
HETATM   49  C18 UNL     1       2.666   1.540  28.727  1.00  0.00     0.116 A
HETATM   50  F1  UNL     1       2.685   0.592  27.736  1.00  0.00    -0.206 F
HETATM   51  C19 UNL     1       2.601   1.200  30.064  1.00  0.00     0.043 A
HETATM   52  C20 UNL     1       2.579   2.131  31.065  1.00  0.00     0.012 A
ENDBRANCH  45  46
ENDBRANCH  43  45
ENDBRANCH  42  43
ENDBRANCH  41  42
ENDBRANCH  40  41
ENDBRANCH  39  40
ENDBRANCH  36  39
ENDBRANCH  35  36
ENDBRANCH  32  35
ENDBRANCH  31  32
ENDBRANCH  28  31
ENDBRANCH   1  27
TORSDOF 22
ENDMDL