MODEL 4
REMARK VINA RESULT: -6.380255670      2.676      4.745
REMARK  24 active torsions:
REMARK  status: ('A' for Active; 'I' for Inactive)
REMARK    1  A    between atoms: N1_1  and  C1_5
REMARK    2  A    between atoms: C1_5  and  C2_6
REMARK    3  A    between atoms: C2_6  and  O1_7
REMARK    4  A    between atoms: O1_7  and  C3_8
REMARK    5  A    between atoms: C3_8  and  C4_9
REMARK    6  A    between atoms: C4_9  and  O2_10
REMARK    7  A    between atoms: O2_10  and  C5_11
REMARK    8  A    between atoms: C5_11  and  C6_12
REMARK    9  A    between atoms: C6_12  and  O3_13
REMARK   10  A    between atoms: O3_13  and  C7_14
REMARK   11  A    between atoms: C7_14  and  C8_15
REMARK   12  A    between atoms: C8_15  and  N2_16
REMARK   13  A    between atoms: N2_16  and  C9_18
REMARK   14  A    between atoms: C9_18  and  O4_19
REMARK   15  A    between atoms: C9_18  and  N3_21
REMARK   16  A    between atoms: N3_21  and  C10_22
REMARK   17  A    between atoms: C13_28  and  N5_29
REMARK   18  A    between atoms: N5_29  and  C14_31
REMARK   19  A    between atoms: C14_31  and  C15_32
REMARK   20  A    between atoms: C15_32  and  N6_33
REMARK   21  A    between atoms: N6_33  and  S1_35
REMARK   22  A    between atoms: S1_35  and  C16_37
REMARK   23  A    between atoms: S1_35  and  C17_40
REMARK   24  A    between atoms: C16_37  and  O6_38
ROOT
HETATM    1  C10 UNL     1       9.772   6.963  24.621  1.00  0.00     0.265 A
HETATM    2  N4  UNL     1       8.621   6.779  23.891  1.00  0.00    -0.310 N
ATOM      3  H4  UNL     1       8.148   5.877  23.953  1.00  0.00     0.170 HD
HETATM    4  C11 UNL     1       8.096   7.715  23.110  1.00  0.00     0.086 A
HETATM    5 BR1  UNL     1       6.484   7.347  22.146  1.00  0.00    -0.031 Br
HETATM    6  C12 UNL     1       8.684   8.940  22.991  1.00  0.00     0.086 A
HETATM    7  C13 UNL     1       9.868   9.168  23.728  1.00  0.00     0.110 A
HETATM    8  N7  UNL     1      10.322   8.202  24.471  1.00  0.00    -0.302 N
ATOM      9  H7  UNL     1      11.178   8.390  24.994  1.00  0.00     0.171 HD
ENDROOT
BRANCH   1  10
HETATM   10  N3  UNL     1      10.238   6.113  25.293  1.00  0.00    -0.329 NA
BRANCH  10  11
HETATM   11  C9  UNL     1      10.816   5.196  25.994  1.00  0.00     0.297 C
BRANCH  11  12
HETATM   12  N2  UNL     1      10.379   3.835  26.047  1.00  0.00    -0.343 N
ATOM     13  H2  UNL     1      10.356   3.280  25.192  1.00  0.00     0.164 HD
BRANCH  12  14
HETATM   14  C8  UNL     1       9.974   3.241  27.283  1.00  0.00     0.150 C
BRANCH  14  15
HETATM   15  C7  UNL     1       8.871   3.960  27.987  1.00  0.00     0.187 C
BRANCH  15  16
HETATM   16  O3  UNL     1       8.071   3.076  28.741  1.00  0.00    -0.387 OA
BRANCH  16  17
HETATM   17  C6  UNL     1       7.005   3.869  29.256  1.00  0.00     0.193 C
BRANCH  17  18
HETATM   18  C5  UNL     1       6.744   4.846  28.071  1.00  0.00     0.193 C
BRANCH  18  19
HETATM   19  O2  UNL     1       5.968   5.833  28.601  1.00  0.00    -0.387 OA
BRANCH  19  20
HETATM   20  C4  UNL     1       6.094   6.124  29.926  1.00  0.00     0.193 C
BRANCH  20  21
HETATM   21  C3  UNL     1       6.442   7.575  30.082  1.00  0.00     0.193 C
BRANCH  21  22
HETATM   22  O1  UNL     1       7.695   7.861  30.551  1.00  0.00    -0.387 OA
BRANCH  22  23
HETATM   23  C2  UNL     1       8.528   8.367  29.542  1.00  0.00     0.195 C
BRANCH  23  24
HETATM   24  C1  UNL     1       9.702   7.395  29.415  1.00  0.00     0.255 C
BRANCH  24  25
HETATM   25  N1  UNL     1      10.412   7.736  28.198  1.00  0.00    -0.077 N
ATOM     26  H13 UNL     1      11.117   8.459  28.337  1.00  0.00     0.274 HD
ATOM     27  H12 UNL     1      11.041   6.998  27.883  1.00  0.00     0.274 HD
ATOM     28  H11 UNL     1       9.712   7.989  27.500  1.00  0.00     0.274 HD
ENDBRANCH  24  25
ENDBRANCH  23  24
ENDBRANCH  22  23
ENDBRANCH  21  22
ENDBRANCH  20  21
ENDBRANCH  19  20
ENDBRANCH  18  19
ENDBRANCH  17  18
ENDBRANCH  16  17
ENDBRANCH  15  16
ENDBRANCH  14  15
ENDBRANCH  12  14
ENDBRANCH  11  12
BRANCH  11  29
HETATM   29  O4  UNL     1      11.875   5.496  26.718  1.00  0.00    -0.321 OA
ATOM     30  H4  UNL     1      12.155   6.403  26.698  1.00  0.00     0.222 HD
ENDBRANCH  11  29
ENDBRANCH  10  11
ENDBRANCH   1  10
BRANCH   7  31
HETATM   31  N5  UNL     1      10.428  10.303  23.634  1.00  0.00    -0.354 N
ATOM     32  H5  UNL     1      10.295  10.924  24.433  1.00  0.00     0.166 HD
BRANCH  31  33
HETATM   33  C14 UNL     1      11.201  10.823  22.596  1.00  0.00     0.082 C
BRANCH  33  34
HETATM   34  C15 UNL     1      12.550  10.127  22.367  1.00  0.00     0.173 C
BRANCH  34  35
HETATM   35  N6  UNL     1      13.412  10.439  23.493  1.00  0.00    -0.341 N
ATOM     36  H6  UNL     1      13.542  11.420  23.740  1.00  0.00     0.169 HD
BRANCH  35  37
HETATM   37  S1  UNL     1      14.251   9.221  24.460  1.00  0.00     0.077 S
HETATM   38  O5  UNL     1      16.251   9.109  24.288  1.00  0.00    -0.243 OA
BRANCH  37  39
HETATM   39  C16 UNL     1      13.431   7.906  25.477  1.00  0.00     0.286 C
BRANCH  39  40
HETATM   40  O6  UNL     1      12.422   8.474  26.304  1.00  0.00    -0.387 OA
ATOM     41  H6  UNL     1      12.778   8.702  27.154  1.00  0.00     0.210 HD
ENDBRANCH  39  40
ENDBRANCH  37  39
BRANCH  37  42
HETATM   42  C17 UNL     1      14.645  10.334  26.010  1.00  0.00     0.079 A
HETATM   43  C18 UNL     1      14.136  11.599  26.142  1.00  0.00     0.025 A
HETATM   44  C19 UNL     1      14.346  12.409  27.228  1.00  0.00     0.002 A
HETATM   45  C20 UNL     1      15.104  11.951  28.253  1.00  0.00     0.003 A
HETATM   46  C21 UNL     1      15.655  10.710  28.218  1.00  0.00     0.044 A
HETATM   47  C22 UNL     1      15.407   9.946  27.099  1.00  0.00     0.136 A
HETATM   48  F1  UNL     1      15.975   8.689  27.019  1.00  0.00    -0.205 F
ENDBRANCH  37  42
ENDBRANCH  35  37
ENDBRANCH  34  35
ENDBRANCH  33  34
ENDBRANCH  31  33
ENDBRANCH   7  31
TORSDOF 24
ENDMDL