MODEL 3
REMARK VINA RESULT: -7.793615572      1.907      2.587
REMARK  22 active torsions:
REMARK  status: ('A' for Active; 'I' for Inactive)
REMARK    1  A    between atoms: C2_2  and  C3_3
REMARK    2  A    between atoms: C3_3  and  O1_4
REMARK    3  A    between atoms: C3_3  and  C4_6
REMARK    4  A    between atoms: C4_6  and  O2_7
REMARK    5  A    between atoms: C4_6  and  C5_9
REMARK    6  A    between atoms: C5_9  and  O3_10
REMARK    7  A    between atoms: C5_9  and  C6_12
REMARK    8  A    between atoms: C6_12  and  O4_13
REMARK    9  A    between atoms: C6_12  and  C7_15
REMARK   10  A    between atoms: C7_15  and  C8_16
REMARK   11  A    between atoms: C7_15  and  S1_42
REMARK   12  A    between atoms: C8_16  and  N1_17
REMARK   13  A    between atoms: N1_17  and  C9_19
REMARK   14  A    between atoms: C9_19  and  C10_20
REMARK   15  A    between atoms: C10_20  and  N2_21
REMARK   16  A    between atoms: C10_20  and  C21_36
REMARK       I    between atoms: N2_21  and  C11_23
REMARK   17  A    between atoms: C11_23  and  C12_25
REMARK   18  A    between atoms: C12_25  and  C13_26
REMARK   19  A    between atoms: C12_25  and  C15_30
REMARK   20  A    between atoms: C13_26  and  C14_27
REMARK   21  A    between atoms: C21_36  and  C22_38
REMARK   22  A    between atoms: S1_42  and  N3_45
ROOT
HETATM    1  N1  UNL     1      10.911   8.326  25.393  1.00  0.00    -0.379 N
ATOM      2  H1  UNL     1      10.309   9.148  25.411  1.00  0.00     0.164 HD
ENDROOT
BRANCH   1   3
HETATM    3  C8  UNL     1      11.832   8.162  24.369  1.00  0.00     0.084 C
BRANCH   3   4
HETATM    4  C7  UNL     1      12.532   9.362  23.819  1.00  0.00     0.193 C
BRANCH   4   5
HETATM    5  C6  UNL     1      14.007   9.463  23.837  1.00  0.00     0.174 C
BRANCH   5   6
HETATM    6  C5  UNL     1      14.798   8.959  24.944  1.00  0.00     0.180 C
BRANCH   6   7
HETATM    7  C4  UNL     1      15.383   9.918  25.951  1.00  0.00     0.181 C
BRANCH   7   8
HETATM    8  C3  UNL     1      14.510  10.537  26.958  1.00  0.00     0.171 C
BRANCH   8   9
HETATM    9  C2  UNL     1      15.253  10.784  28.247  1.00  0.00    -0.003 C
HETATM   10  C1  UNL     1      15.215  11.997  28.756  1.00  0.00     0.009 C
ENDBRANCH   8   9
BRANCH   8  11
HETATM   11  O1  UNL     1      13.922  11.738  26.606  1.00  0.00    -0.389 OA
ATOM     12  H1  UNL     1      13.981  11.800  25.660  1.00  0.00     0.210 HD
ENDBRANCH   8  11
ENDBRANCH   7   8
BRANCH   7  13
HETATM   13  O2  UNL     1      16.251   9.042  26.716  1.00  0.00    -0.390 OA
ATOM     14  H2  UNL     1      16.858   9.631  27.149  1.00  0.00     0.210 HD
ENDBRANCH   7  13
ENDBRANCH   6   7
BRANCH   6  15
HETATM   15  O3  UNL     1      15.946   8.194  24.566  1.00  0.00    -0.390 OA
ATOM     16  H3  UNL     1      16.470   8.842  24.110  1.00  0.00     0.210 HD
ENDBRANCH   6  15
ENDBRANCH   5   6
BRANCH   5  17
HETATM   17  O4  UNL     1      14.209  10.902  23.765  1.00  0.00    -0.391 OA
ATOM     18  H4  UNL     1      14.106  11.165  22.858  1.00  0.00     0.210 HD
ENDBRANCH   5  17
ENDBRANCH   4   5
BRANCH   4  19
HETATM   19  S1  UNL     1      11.910   9.520  22.117  1.00  0.00     0.222 S
HETATM   20  O7  UNL     1      11.421   8.173  21.719  1.00  0.00    -0.210 OA
HETATM   21  O8  UNL     1      13.138   9.822  21.280  1.00  0.00    -0.210 OA
BRANCH  19  22
HETATM   22  N3  UNL     1      10.735  10.742  21.987  1.00  0.00    -0.218 NA
HETATM   23  C26 UNL     1      10.888  11.670  23.101  1.00  0.00     0.128 C
HETATM   24  C27 UNL     1      10.908  11.509  20.756  1.00  0.00     0.128 C
ENDBRANCH  19  22
ENDBRANCH   4  19
ENDBRANCH   3   4
ENDBRANCH   1   3
BRANCH   1  25
HETATM   25  C9  UNL     1      10.810   7.374  26.389  1.00  0.00     0.093 C
BRANCH  25  26
HETATM   26  C10 UNL     1      10.215   6.027  26.189  1.00  0.00     0.193 C
BRANCH  26  27
HETATM   27  N2  UNL     1       9.763   5.426  27.461  1.00  0.00    -0.345 N
HETATM   28  C11 UNL     1       8.534   4.745  27.510  1.00  0.00     0.223 C
HETATM   29  O5  UNL     1       7.846   4.685  26.421  1.00  0.00    -0.273 OA
ATOM     30  H2  UNL     1      10.340   5.504  28.298  1.00  0.00     0.163 HD
BRANCH  28  31
HETATM   31  C12 UNL     1       7.924   4.077  28.675  1.00  0.00     0.087 C
BRANCH  31  32
HETATM   32  C13 UNL     1       8.175   2.641  28.656  1.00  0.00     0.085 C
BRANCH  32  33
HETATM   33  C14 UNL     1       9.359   2.193  27.844  1.00  0.00     0.354 C
HETATM   34  F1  UNL     1       9.068   1.010  27.157  1.00  0.00    -0.214 F
HETATM   35  F2  UNL     1      10.467   1.897  28.605  1.00  0.00    -0.214 F
ENDBRANCH  32  33
ENDBRANCH  31  32
BRANCH  31  36
HETATM   36  C15 UNL     1       6.510   4.521  28.832  1.00  0.00    -0.001 C
HETATM   37  C16 UNL     1       6.417   5.992  29.158  1.00  0.00     0.005 C
HETATM   38  C17 UNL     1       6.608   6.256  30.619  1.00  0.00     0.000 C
HETATM   39  C18 UNL     1       5.399   5.636  31.336  1.00  0.00     0.000 C
HETATM   40  C19 UNL     1       5.639   4.129  31.178  1.00  0.00     0.000 C
HETATM   41  C20 UNL     1       5.638   3.744  29.725  1.00  0.00     0.005 C
ENDBRANCH  31  36
ENDBRANCH  28  31
ENDBRANCH  26  27
BRANCH  26  42
HETATM   42  C21 UNL     1      11.029   5.065  25.447  1.00  0.00     0.162 C
HETATM   43  O6  UNL     1      12.152   4.777  25.901  1.00  0.00    -0.294 OA
BRANCH  42  44
HETATM   44  C22 UNL     1      10.657   4.382  24.198  1.00  0.00     0.019 A
HETATM   45  C23 UNL     1      10.037   5.190  23.094  1.00  0.00     0.023 C
HETATM   46  C24 UNL     1      11.398   3.159  23.770  1.00  0.00     0.018 A
HETATM   47  C25 UNL     1      10.042   2.971  24.365  1.00  0.00     0.018 A
ENDBRANCH  42  44
ENDBRANCH  26  42
ENDBRANCH  25  26
ENDBRANCH   1  25
TORSDOF 22
ENDMDL