MODEL 2
REMARK VINA RESULT: -7.071447816      1.157      2.057
REMARK  21 active torsions:
REMARK  status: ('A' for Active; 'I' for Inactive)
REMARK    1  A    between atoms: C2_2  and  C3_3
REMARK    2  A    between atoms: C3_3  and  O1_4
REMARK    3  A    between atoms: O1_4  and  C4_5
REMARK    4  A    between atoms: C4_5  and  C5_6
REMARK    5  A    between atoms: C4_5  and  N7_47
REMARK    6  A    between atoms: C5_6  and  C6_7
REMARK    7  A    between atoms: C6_7  and  C7_8
REMARK       I    between atoms: N1_9  and  C8_10
REMARK    8  A    between atoms: C8_10  and  C9_12
REMARK    9  A    between atoms: C9_12  and  C10_13
REMARK   10  A    between atoms: C9_12  and  N3_21
REMARK   11  A    between atoms: C10_13  and  C11_14
REMARK   12  A    between atoms: C11_14  and  C12_15
REMARK   13  A    between atoms: C12_15  and  C13_16
REMARK   14  A    between atoms: C13_16  and  N2_17
REMARK       I    between atoms: N3_21  and  C14_23
REMARK   15  A    between atoms: C14_23  and  C15_25
REMARK   16  A    between atoms: C18_30  and  C19_31
REMARK       I    between atoms: C19_31  and  N4_33
REMARK   17  A    between atoms: N4_33  and  C20_35
REMARK   18  A    between atoms: C20_35  and  C21_36
REMARK   19  A    between atoms: C21_36  and  N5_37
REMARK   20  A    between atoms: C21_36  and  O5_41
REMARK   21  A    between atoms: N7_47  and  C25_49
ROOT
HETATM    1  C7  UNL     1       7.457   6.895  25.592  1.00  0.00     0.188 C
HETATM    2  N1  UNL     1       8.587   5.998  25.567  1.00  0.00    -0.298 N
HETATM    3  C8  UNL     1       8.520   4.738  26.153  1.00  0.00     0.248 C
HETATM    4  O2  UNL     1       7.429   4.367  26.682  1.00  0.00    -0.271 OA
HETATM    5  C17 UNL     1       9.785   6.398  24.892  1.00  0.00     0.149 C
HETATM    6  C18 UNL     1       9.528   7.276  23.673  1.00  0.00     0.123 C
HETATM    7  C22 UNL     1       8.621   8.371  24.119  1.00  0.00     0.260 C
HETATM    8  N6  UNL     1       7.348   7.804  24.515  1.00  0.00    -0.033 N
HETATM    9  C23 UNL     1       6.853   7.125  23.297  1.00  0.00     0.280 C
HETATM   10  C24 UNL     1       6.467   8.917  24.711  1.00  0.00     0.280 C
ENDROOT
BRANCH   1  11
HETATM   11  C6  UNL     1       7.096   7.429  26.942  1.00  0.00     0.089 C
BRANCH  11  12
HETATM   12  C5  UNL     1       8.154   7.486  27.968  1.00  0.00     0.061 C
BRANCH  12  13
HETATM   13  C4  UNL     1       7.492   7.141  29.314  1.00  0.00     0.217 C
BRANCH  13  14
HETATM   14  O1  UNL     1       7.930   7.903  30.352  1.00  0.00    -0.363 OA
BRANCH  14  15
HETATM   15  C3  UNL     1       8.038   9.252  30.139  1.00  0.00     0.197 C
BRANCH  15  16
HETATM   16  C2  UNL     1       6.647   9.824  30.294  1.00  0.00    -0.011 C
HETATM   17  C1  UNL     1       6.245  10.758  29.453  1.00  0.00     0.009 C
ENDBRANCH  15  16
ENDBRANCH  14  15
ENDBRANCH  13  14
BRANCH  13  18
HETATM   18  N7  UNL     1       7.466   5.728  29.496  1.00  0.00    -0.393 N
ATOM     19  H7  UNL     1       8.312   5.168  29.387  1.00  0.00     0.156 HD
BRANCH  18  20
HETATM   20  C25 UNL     1       6.229   5.123  29.833  1.00  0.00     0.079 C
HETATM   21  C26 UNL     1       6.263   4.001  30.806  1.00  0.00     0.025 C
HETATM   22  C27 UNL     1       5.479   4.428  32.033  1.00  0.00     0.002 C
HETATM   23  C28 UNL     1       4.587   5.528  31.563  1.00  0.00     0.002 C
HETATM   24  C29 UNL     1       5.318   6.200  30.446  1.00  0.00     0.025 C
ENDBRANCH  18  20
ENDBRANCH  13  18
ENDBRANCH  12  13
ENDBRANCH  11  12
ENDBRANCH   1  11
BRANCH   3  25
HETATM   25  C9  UNL     1       9.628   3.758  26.215  1.00  0.00     0.177 C
BRANCH  25  26
HETATM   26  C10 UNL     1       9.865   3.154  27.553  1.00  0.00     0.035 C
BRANCH  26  27
HETATM   27  C11 UNL     1       9.411   1.792  27.837  1.00  0.00     0.004 C
BRANCH  27  28
HETATM   28  C12 UNL     1       8.470   1.434  28.895  1.00  0.00     0.027 C
BRANCH  28  29
HETATM   29  C13 UNL     1       7.034   1.253  28.561  1.00  0.00     0.229 C
BRANCH  29  30
HETATM   30  N2  UNL     1       6.549   1.689  27.300  1.00  0.00    -0.079 N
ATOM     31  H23 UNL     1       6.710   2.693  27.219  1.00  0.00     0.274 HD
ATOM     32  H22 UNL     1       7.165   1.326  26.572  1.00  0.00     0.274 HD
ATOM     33  H21 UNL     1       5.583   1.492  27.038  1.00  0.00     0.274 HD
ENDBRANCH  29  30
ENDBRANCH  28  29
ENDBRANCH  27  28
ENDBRANCH  26  27
ENDBRANCH  25  26
BRANCH  25  34
HETATM   34  N3  UNL     1       9.546   2.777  25.176  1.00  0.00    -0.343 N
HETATM   35  C14 UNL     1      10.584   2.594  24.200  1.00  0.00     0.290 C
HETATM   36  O3  UNL     1      11.587   3.337  24.294  1.00  0.00    -0.267 OA
ATOM     37  H3  UNL     1       8.717   2.185  25.127  1.00  0.00     0.163 HD
BRANCH  35  38
HETATM   38  C15 UNL     1      10.538   1.599  23.113  1.00  0.00     0.318 C
HETATM   39  C16 UNL     1      11.865   1.575  22.343  1.00  0.00     0.101 C
HETATM   40  F1  UNL     1       9.510   1.807  22.223  1.00  0.00    -0.196 F
HETATM   41  F2  UNL     1      10.403   0.287  23.584  1.00  0.00    -0.196 F
ENDBRANCH  35  38
ENDBRANCH  25  34
ENDBRANCH   3  25
BRANCH   6  42
HETATM   42  C19 UNL     1      10.830   7.875  23.189  1.00  0.00     0.225 C
HETATM   43  O4  UNL     1      11.140   7.684  21.989  1.00  0.00    -0.273 OA
HETATM   44  N4  UNL     1      11.634   8.607  24.072  1.00  0.00    -0.356 N
ATOM     45  H4  UNL     1      11.255   8.691  25.015  1.00  0.00     0.162 HD
BRANCH  44  46
HETATM   46  C20 UNL     1      12.881   9.252  23.885  1.00  0.00     0.183 C
BRANCH  46  47
HETATM   47  C21 UNL     1      13.654   9.653  25.090  1.00  0.00     0.334 C
BRANCH  47  48
HETATM   48  N5  UNL     1      13.774  11.062  25.224  1.00  0.00    -0.051 N
ATOM     49  H53 UNL     1      14.752  11.350  25.196  1.00  0.00     0.277 HD
ATOM     50  H52 UNL     1      13.437  11.539  24.387  1.00  0.00     0.277 HD
ATOM     51  H51 UNL     1      13.311  11.421  26.059  1.00  0.00     0.277 HD
ENDBRANCH  47  48
BRANCH  47  52
HETATM   52  O5  UNL     1      12.943   9.231  26.256  1.00  0.00    -0.369 OA
ATOM     53  H5  UNL     1      13.482   9.397  27.021  1.00  0.00     0.212 HD
ENDBRANCH  47  52
ENDBRANCH  46  47
ENDBRANCH  44  46
ENDBRANCH   6  42
TORSDOF 21
ENDMDL