MODEL 4
REMARK VINA RESULT: -8.082410191      2.046      3.051
REMARK  21 active torsions:
REMARK  status: ('A' for Active; 'I' for Inactive)
REMARK    1  A    between atoms: C2_2  and  C3_3
REMARK    2  A    between atoms: C3_3  and  C5_5
REMARK    3  A    between atoms: C5_5  and  O1_6
REMARK    4  A    between atoms: C5_5  and  C6_8
REMARK    5  A    between atoms: C6_8  and  N1_9
REMARK    6  A    between atoms: N1_9  and  C7_12
REMARK    7  A    between atoms: C7_12  and  C9_14
REMARK    8  A    between atoms: C9_14  and  C10_15
REMARK    9  A    between atoms: C10_15  and  C11_16
REMARK       I    between atoms: C11_16  and  N2_18
REMARK   10  A    between atoms: N3_21  and  C14_22
REMARK   11  A    between atoms: C14_22  and  C15_23
REMARK   12  A    between atoms: C16_24  and  C17_25
REMARK   13  A    between atoms: C20_28  and  O3_29
REMARK   14  A    between atoms: O3_29  and  C21_30
REMARK   15  A    between atoms: C25_36  and  C26_37
REMARK   16  A    between atoms: C26_37  and  C27_38
REMARK   17  A    between atoms: C27_38  and  N4_39
REMARK   18  A    between atoms: C27_38  and  C28_43
REMARK   19  A    between atoms: C28_43  and  O4_44
REMARK   20  A    between atoms: C28_43  and  C29_46
REMARK   21  A    between atoms: C29_46  and  N5_47
ROOT
HETATM    1  C11 UNL     1       9.360   7.531  26.132  1.00  0.00     0.220 C
HETATM    2  O2  UNL     1       8.859   8.348  25.277  1.00  0.00    -0.273 OA
HETATM    3  N2  UNL     1       8.475   6.933  27.047  1.00  0.00    -0.341 N
HETATM    4  C12 UNL     1       7.050   7.302  26.966  1.00  0.00     0.170 C
HETATM    5  C13 UNL     1       6.728   7.974  28.274  1.00  0.00     0.078 C
HETATM    6  N3  UNL     1       6.992   7.119  29.359  1.00  0.00    -0.386 N
HETATM    7  C24 UNL     1       8.278   6.505  29.437  1.00  0.00     0.147 C
HETATM    8  C25 UNL     1       8.771   5.998  28.091  1.00  0.00     0.107 C
ENDROOT
BRANCH   1   9
HETATM    9  C10 UNL     1      10.797   7.323  26.040  1.00  0.00     0.105 C
BRANCH   9  10
HETATM   10  C9  UNL     1      11.479   7.485  24.752  1.00  0.00     0.042 C
BRANCH  10  11
HETATM   11  C7  UNL     1      12.119   8.766  24.383  1.00  0.00     0.182 C
HETATM   12  C8  UNL     1      12.000   9.294  23.021  1.00  0.00     0.040 C
BRANCH  11  13
HETATM   13  N1  UNL     1      13.534   8.768  24.789  1.00  0.00    -0.069 N
ATOM     14  H12 UNL     1      14.140   9.161  24.068  1.00  0.00     0.277 HD
ATOM     15  H11 UNL     1      13.928   7.828  24.815  1.00  0.00     0.277 HD
BRANCH  13  16
HETATM   16  C6  UNL     1      13.673   9.444  26.033  1.00  0.00     0.264 C
BRANCH  16  17
HETATM   17  C5  UNL     1      15.150   9.709  26.352  1.00  0.00     0.147 C
BRANCH  17  18
HETATM   18  C3  UNL     1      15.332  11.079  26.915  1.00  0.00     0.012 C
HETATM   19  C4  UNL     1      14.136  11.936  26.621  1.00  0.00     0.012 C
BRANCH  18  20
HETATM   20  C2  UNL     1      15.481  10.941  28.429  1.00  0.00     0.002 C
HETATM   21  C1  UNL     1      15.123  12.228  29.112  1.00  0.00     0.005 C
ENDBRANCH  18  20
ENDBRANCH  17  18
BRANCH  17  22
HETATM   22  O1  UNL     1      15.919   9.499  25.219  1.00  0.00    -0.394 OA
ATOM     23  H1  UNL     1      15.982   8.579  24.992  1.00  0.00     0.210 HD
ENDBRANCH  17  22
ENDBRANCH  16  17
ENDBRANCH  13  16
ENDBRANCH  11  13
ENDBRANCH  10  11
ENDBRANCH   9  10
ENDBRANCH   1   9
BRANCH   8  24
HETATM   24  C26 UNL     1       8.099   4.683  27.772  1.00  0.00     0.062 C
BRANCH  24  25
HETATM   25  C27 UNL     1       8.991   3.494  27.858  1.00  0.00     0.215 C
BRANCH  25  26
HETATM   26  N4  UNL     1      10.341   3.969  27.538  1.00  0.00    -0.072 N
ATOM     27  H43 UNL     1      10.850   3.348  26.910  1.00  0.00     0.274 HD
ATOM     28  H42 UNL     1      10.349   4.792  26.935  1.00  0.00     0.274 HD
ATOM     29  H41 UNL     1      10.812   4.116  28.431  1.00  0.00     0.274 HD
ENDBRANCH  25  26
BRANCH  25  30
HETATM   30  C28 UNL     1       8.658   2.496  26.760  1.00  0.00     0.166 C
BRANCH  30  31
HETATM   31  O4  UNL     1       7.996   3.155  25.710  1.00  0.00    -0.392 OA
ATOM     32  H4  UNL     1       7.125   3.408  25.993  1.00  0.00     0.210 HD
ENDBRANCH  30  31
BRANCH  30  33
HETATM   33  C29 UNL     1       9.920   1.821  26.320  1.00  0.00     0.155 C
BRANCH  33  34
HETATM   34  N5  UNL     1       9.914   1.477  24.933  1.00  0.00    -0.364 N
HETATM   35  C30 UNL     1      10.657   2.102  24.100  1.00  0.00     0.197 C
HETATM   36  N6  UNL     1      11.491   3.143  24.560  1.00  0.00    -0.067 NA
HETATM   37  N7  UNL     1      10.626   1.734  22.738  1.00  0.00    -0.067 NA
ATOM     38  H5  UNL     1       9.311   0.724  24.603  1.00  0.00     0.161 HD
ENDBRANCH  33  34
ENDBRANCH  30  33
ENDBRANCH  25  30
ENDBRANCH  24  25
ENDBRANCH   8  24
BRANCH   6  39
HETATM   39  C14 UNL     1       5.884   6.351  29.790  1.00  0.00     0.149 C
BRANCH  39  40
HETATM   40  C15 UNL     1       6.386   4.978  30.185  1.00  0.00    -0.006 C
HETATM   41  C16 UNL     1       5.575   4.068  30.649  1.00  0.00     0.009 C
BRANCH  41  42
HETATM   42  C17 UNL     1       6.014   2.760  31.031  1.00  0.00    -0.036 A
HETATM   43  C18 UNL     1       5.735   2.180  32.239  1.00  0.00     0.014 A
HETATM   44  C19 UNL     1       6.197   0.901  32.563  1.00  0.00     0.038 A
HETATM   45  C20 UNL     1       6.944   0.199  31.673  1.00  0.00     0.074 A
HETATM   46  C22 UNL     1       7.247   0.764  30.430  1.00  0.00     0.038 A
HETATM   47  C23 UNL     1       6.782   2.023  30.133  1.00  0.00     0.014 A
BRANCH  45  48
HETATM   48  O3  UNL     1       7.425  -1.049  31.924  1.00  0.00    -0.290 OA
BRANCH  48  49
HETATM   49  C21 UNL     1       6.724  -2.252  31.880  1.00  0.00     0.505 C
HETATM   50  F1  UNL     1       5.805  -2.241  30.840  1.00  0.00    -0.184 F
HETATM   51  F2  UNL     1       7.636  -3.269  31.641  1.00  0.00    -0.184 F
ENDBRANCH  48  49
ENDBRANCH  45  48
ENDBRANCH  41  42
ENDBRANCH  39  40
ENDBRANCH   6  39
TORSDOF 21
ENDMDL