MODEL 3
REMARK VINA RESULT: -7.312778329      1.766      2.215
REMARK  19 active torsions:
REMARK  status: ('A' for Active; 'I' for Inactive)
REMARK    1  A    between atoms: C2_2  and  C3_3
REMARK    2  A    between atoms: C3_3  and  C5_5
REMARK    3  A    between atoms: C5_5  and  N1_6
REMARK    4  A    between atoms: N1_6  and  C6_8
REMARK    5  A    between atoms: C8_14  and  N4_15
REMARK    6  A    between atoms: N4_15  and  C9_17
REMARK    7  A    between atoms: C9_17  and  C10_18
REMARK    8  A    between atoms: C10_18  and  C11_19
REMARK    9  A    between atoms: C11_19  and  C12_20
REMARK   10  A    between atoms: C12_20  and  N5_21
REMARK       I    between atoms: N5_21  and  C13_23
REMARK       I    between atoms: C13_23  and  N8_28
REMARK   11  A    between atoms: N8_28  and  C15_30
REMARK   12  A    between atoms: C15_30  and  C16_31
REMARK   13  A    between atoms: C16_31  and  C17_32
REMARK   14  A    between atoms: C17_32  and  N9_33
REMARK   15  A    between atoms: N9_33  and  O1_34
REMARK   16  A    between atoms: O1_34  and  C18_35
REMARK   17  A    between atoms: C18_35  and  O2_36
REMARK   18  A    between atoms: C18_35  and  C19_38
REMARK   19  A    between atoms: C19_38  and  N10_39
REMARK       I    between atoms: N10_39  and  C22_42
ROOT
HETATM    1  N5  UNL     1      13.180   9.075  26.187  1.00  0.00    -0.226 N
ATOM      2  H5  UNL     1      13.097   9.429  27.141  1.00  0.00     0.177 HD
HETATM    3  C13 UNL     1      13.943   9.776  25.176  1.00  0.00     0.682 C
HETATM    4  N6  UNL     1      14.919  10.507  25.567  1.00  0.00    -0.126 N
ATOM      5  H6  UNL     1      15.479  11.017  24.883  1.00  0.00     0.197 HD
HETATM    6  C14 UNL     1      15.216  10.609  26.923  1.00  0.00     0.196 C
HETATM    7  N7  UNL     1      15.479  10.710  28.051  1.00  0.00    -0.171 NA
HETATM    8  N8  UNL     1      13.572   9.616  23.808  1.00  0.00    -0.226 N
ATOM      9  H8  UNL     1      14.001   8.859  23.277  1.00  0.00     0.177 HD
ENDROOT
BRANCH   1  10
HETATM   10  C12 UNL     1      12.557   7.875  25.784  1.00  0.00     0.138 C
BRANCH  10  11
HETATM   11  C11 UNL     1      11.089   7.774  25.824  1.00  0.00     0.022 C
BRANCH  11  12
HETATM   12  C10 UNL     1      10.528   6.414  25.741  1.00  0.00     0.024 C
BRANCH  12  13
HETATM   13  C9  UNL     1      11.258   5.241  26.229  1.00  0.00     0.163 C
BRANCH  13  14
HETATM   14  N4  UNL     1      10.798   4.801  27.526  1.00  0.00    -0.198 N
HETATM   15  F1  UNL     1      11.203   5.269  28.714  1.00  0.00    -0.097 F
BRANCH  14  16
HETATM   16  C8  UNL     1       9.828   3.733  27.540  1.00  0.00     0.154 A
HETATM   17  N3  UNL     1      10.069   2.483  27.190  1.00  0.00    -0.336 N
HETATM   18  C7  UNL     1       9.098   1.526  27.247  1.00  0.00     0.183 A
ATOM     19  H3  UNL     1      11.003   2.226  26.871  1.00  0.00     0.168 HD
HETATM   20  N2  UNL     1       7.870   1.859  27.668  1.00  0.00    -0.337 N
HETATM   21  C6  UNL     1       7.532   3.094  28.040  1.00  0.00     0.127 A
ATOM     22  H2  UNL     1       7.156   1.131  27.705  1.00  0.00     0.168 HD
HETATM   23  C23 UNL     1       8.557   4.046  27.966  1.00  0.00     0.101 A
HETATM   24 BR1  UNL     1       8.106   5.826  28.482  1.00  0.00    -0.043 Br
BRANCH  21  25
HETATM   25  N1  UNL     1       6.394   3.418  28.442  1.00  0.00    -0.354 N
ATOM     26  H1  UNL     1       5.901   4.046  27.808  1.00  0.00     0.166 HD
BRANCH  25  27
HETATM   27  C5  UNL     1       5.655   3.088  29.596  1.00  0.00     0.067 C
BRANCH  27  28
HETATM   28  C3  UNL     1       6.414   2.839  30.853  1.00  0.00     0.019 C
HETATM   29  C4  UNL     1       5.642   3.548  31.975  1.00  0.00     0.015 C
BRANCH  28  30
HETATM   30  C2  UNL     1       6.523   1.380  31.218  1.00  0.00     0.005 C
HETATM   31  C1  UNL     1       6.061   1.079  32.614  1.00  0.00     0.006 C
ENDBRANCH  28  30
ENDBRANCH  27  28
ENDBRANCH  25  27
ENDBRANCH  21  25
ENDBRANCH  14  16
ENDBRANCH  13  14
ENDBRANCH  12  13
ENDBRANCH  11  12
ENDBRANCH  10  11
ENDBRANCH   1  10
BRANCH   8  32
HETATM   32  C15 UNL     1      12.630  10.460  23.139  1.00  0.00     0.139 C
BRANCH  32  33
HETATM   33  C16 UNL     1      12.482  10.051  21.712  1.00  0.00     0.038 C
BRANCH  33  34
HETATM   34  C17 UNL     1      11.215   9.302  21.428  1.00  0.00     0.144 C
BRANCH  34  35
HETATM   35  N9  UNL     1      11.171   8.884  20.017  1.00  0.00    -0.098 NA
BRANCH  35  36
HETATM   36  O1  UNL     1       9.885   8.738  19.718  1.00  0.00    -0.253 OA
BRANCH  36  37
HETATM   37  C18 UNL     1       9.460   9.305  18.547  1.00  0.00     0.307 C
BRANCH  37  38
HETATM   38  O2  UNL     1       8.665   8.500  17.767  1.00  0.00    -0.368 OA
ATOM     39  H2  UNL     1       8.444   7.660  18.152  1.00  0.00     0.212 HD
ENDBRANCH  37  38
BRANCH  37  40
HETATM   40  C19 UNL     1       8.882  10.669  18.819  1.00  0.00     0.308 C
BRANCH  40  41
HETATM   41  N10 UNL     1       9.630  11.769  18.313  1.00  0.00    -0.013 N
HETATM   42  C20 UNL     1      10.096  11.555  16.940  1.00  0.00     0.282 C
HETATM   43  C21 UNL     1       8.666  12.884  18.185  1.00  0.00     0.282 C
HETATM   44  C22 UNL     1      10.695  12.215  19.102  1.00  0.00     0.286 C
HETATM   45  N11 UNL     1      11.929  11.964  18.844  1.00  0.00    -0.367 N
HETATM   46  N12 UNL     1      10.430  12.998  20.260  1.00  0.00    -0.057 NA
ATOM     47 2H11 UNL     1      12.120  11.403  18.014  1.00  0.00     0.158 HD
ATOM     48 1H11 UNL     1      12.706  12.289  19.420  1.00  0.00     0.158 HD
ENDBRANCH  40  41
ENDBRANCH  37  40
ENDBRANCH  36  37
ENDBRANCH  35  36
ENDBRANCH  34  35
ENDBRANCH  33  34
ENDBRANCH  32  33
ENDBRANCH   8  32
TORSDOF 19
ENDMDL