MODEL 2
REMARK VINA RESULT: -7.798885852      2.303      3.068
REMARK  20 active torsions:
REMARK  status: ('A' for Active; 'I' for Inactive)
REMARK    1  A    between atoms: C2_2  and  C3_3
REMARK    2  A    between atoms: C3_3  and  C4_4
REMARK    3  A    between atoms: C4_4  and  C5_5
REMARK    4  A    between atoms: C5_5  and  C6_6
REMARK    5  A    between atoms: C5_5  and  N2_11
REMARK    6  A    between atoms: C6_6  and  N1_7
REMARK       I    between atoms: N2_11  and  C8_13
REMARK    7  A    between atoms: C8_13  and  C9_15
REMARK    8  A    between atoms: N3_21  and  C14_22
REMARK    9  A    between atoms: C14_22  and  O3_23
REMARK   10  A    between atoms: C14_22  and  C15_25
REMARK   11  A    between atoms: C15_25  and  C16_26
REMARK   12  A    between atoms: C15_25  and  N5_34
REMARK   13  A    between atoms: C16_26  and  C17_27
REMARK   14  A    between atoms: C17_27  and  C18_28
REMARK   15  A    between atoms: C18_28  and  C19_29
REMARK   16  A    between atoms: C19_29  and  N4_30
REMARK       I    between atoms: N5_34  and  C20_36
REMARK   17  A    between atoms: C20_36  and  C21_38
REMARK   18  A    between atoms: C21_38  and  N6_39
REMARK   19  A    between atoms: C21_38  and  C25_47
REMARK       I    between atoms: N6_39  and  C22_41
REMARK   20  A    between atoms: C22_41  and  C23_43
ROOT
HETATM    1  C15 UNL     1       9.204   6.541  28.029  1.00  0.00     0.143 C
ENDROOT
BRANCH   1   2
HETATM    2  C14 UNL     1       8.833   7.275  26.807  1.00  0.00     0.381 C
BRANCH   2   3
HETATM    3  N3  UNL     1       9.763   7.410  25.757  1.00  0.00     0.142 N
HETATM    4  C9  UNL     1      11.144   7.323  26.061  1.00  0.00     0.320 C
HETATM    5  C10 UNL     1      11.548   5.884  25.831  1.00  0.00     0.080 C
HETATM    6  C11 UNL     1      10.639   5.460  24.710  1.00  0.00     0.159 C
HETATM    7  O2  UNL     1      10.927   5.984  23.466  1.00  0.00    -0.381 OA
HETATM    8  C13 UNL     1       9.460   6.374  24.783  1.00  0.00     0.279 C
HETATM    9  C12 UNL     1       9.716   6.668  23.354  1.00  0.00     0.207 C
BRANCH   4  10
HETATM   10  C8  UNL     1      11.995   8.295  25.366  1.00  0.00     0.252 C
HETATM   11  N2  UNL     1      13.337   8.579  25.766  1.00  0.00    -0.353 N
ATOM     12  H2  UNL     1      13.710   8.080  26.575  1.00  0.00     0.163 HD
HETATM   13  O1  UNL     1      11.575   8.932  24.371  1.00  0.00    -0.271 OA
BRANCH  11  14
HETATM   14  C5  UNL     1      14.192   9.518  25.104  1.00  0.00     0.110 C
BRANCH  14  15
HETATM   15  C4  UNL     1      14.391  10.817  25.803  1.00  0.00     0.027 C
BRANCH  15  16
HETATM   16  C3  UNL     1      15.072  10.673  27.142  1.00  0.00     0.002 C
BRANCH  16  17
HETATM   17  C2  UNL     1      15.548  12.003  27.673  1.00  0.00    -0.004 C
HETATM   18  C1  UNL     1      15.172  12.099  29.125  1.00  0.00     0.005 C
ENDBRANCH  16  17
ENDBRANCH  15  16
ENDBRANCH  14  15
BRANCH  14  19
HETATM   19  C6  UNL     1      15.532   8.819  24.808  1.00  0.00     0.256 C
BRANCH  19  20
HETATM   20  N1  UNL     1      16.023   9.103  23.494  1.00  0.00    -0.077 N
HETATM   21  C7  UNL     1      14.969   9.596  22.620  1.00  0.00     0.267 C
ATOM     22  H12 UNL     1      16.813   9.747  23.523  1.00  0.00     0.276 HD
ATOM     23  H11 UNL     1      16.493   8.294  23.089  1.00  0.00     0.276 HD
ENDBRANCH  19  20
ENDBRANCH  14  19
ENDBRANCH  11  14
ENDBRANCH   4  10
ENDBRANCH   2   3
BRANCH   2  24
HETATM   24  O3  UNL     1       7.672   6.653  26.287  1.00  0.00    -0.366 OA
ATOM     25  H3  UNL     1       7.894   5.756  26.065  1.00  0.00     0.212 HD
ENDBRANCH   2  24
ENDBRANCH   1   2
BRANCH   1  26
HETATM   26  C16 UNL     1       9.361   7.387  29.256  1.00  0.00     0.030 C
BRANCH  26  27
HETATM   27  C17 UNL     1       8.142   7.579  30.083  1.00  0.00     0.004 C
BRANCH  27  28
HETATM   28  C18 UNL     1       7.787   9.070  29.974  1.00  0.00     0.027 C
BRANCH  28  29
HETATM   29  C19 UNL     1       6.434   9.259  29.324  1.00  0.00     0.229 C
BRANCH  29  30
HETATM   30  N4  UNL     1       5.659  10.089  30.249  1.00  0.00    -0.079 N
ATOM     31  H43 UNL     1       5.413   9.613  31.117  1.00  0.00     0.274 HD
ATOM     32  H42 UNL     1       6.200  10.843  30.672  1.00  0.00     0.274 HD
ATOM     33  H41 UNL     1       4.849  10.415  29.720  1.00  0.00     0.274 HD
ENDBRANCH  29  30
ENDBRANCH  28  29
ENDBRANCH  27  28
ENDBRANCH  26  27
ENDBRANCH   1  26
BRANCH   1  34
HETATM   34  N5  UNL     1       8.218   5.481  28.195  1.00  0.00    -0.350 N
HETATM   35  C20 UNL     1       8.478   4.098  28.149  1.00  0.00     0.241 C
HETATM   36  O4  UNL     1       9.640   3.699  27.962  1.00  0.00    -0.271 OA
ATOM     37  H5  UNL     1       7.253   5.767  28.358  1.00  0.00     0.163 HD
BRANCH  35  38
HETATM   38  C21 UNL     1       7.408   3.079  28.315  1.00  0.00     0.180 C
BRANCH  38  39
HETATM   39  N6  UNL     1       6.114   3.568  27.907  1.00  0.00    -0.342 N
HETATM   40  C22 UNL     1       5.774   3.971  26.616  1.00  0.00     0.290 C
HETATM   41  O5  UNL     1       6.625   3.909  25.700  1.00  0.00    -0.267 OA
ATOM     42  H6  UNL     1       5.388   3.624  28.621  1.00  0.00     0.163 HD
BRANCH  40  43
HETATM   43  C23 UNL     1       4.422   4.472  26.310  1.00  0.00     0.318 C
HETATM   44  C24 UNL     1       3.376   3.477  26.734  1.00  0.00     0.101 C
HETATM   45  F1  UNL     1       4.252   4.723  24.958  1.00  0.00    -0.196 F
HETATM   46  F2  UNL     1       4.147   5.663  26.957  1.00  0.00    -0.196 F
ENDBRANCH  40  43
ENDBRANCH  38  39
BRANCH  38  47
HETATM   47  C25 UNL     1       7.304   2.617  29.749  1.00  0.00     0.018 C
HETATM   48  C26 UNL     1       6.643   1.268  29.860  1.00  0.00     0.007 C
HETATM   49  C27 UNL     1       6.727   0.909  31.352  1.00  0.00     0.000 C
HETATM   50  C28 UNL     1       5.636   1.737  32.027  1.00  0.00     0.000 C
HETATM   51  C29 UNL     1       5.301   2.958  31.226  1.00  0.00     0.000 C
HETATM   52  C30 UNL     1       6.506   3.595  30.587  1.00  0.00     0.007 C
ENDBRANCH  38  47
ENDBRANCH  35  38
ENDBRANCH   1  34
TORSDOF 20
ENDMDL