MODEL 3
REMARK VINA RESULT: -8.099244260      2.437      3.681
REMARK  19 active torsions:
REMARK  status: ('A' for Active; 'I' for Inactive)
REMARK    1  A    between atoms: C2_2  and  C3_3
REMARK    2  A    between atoms: C3_3  and  N1_4
REMARK    3  A    between atoms: N1_4  and  C4_6
REMARK    4  A    between atoms: C4_6  and  C5_7
REMARK    5  A    between atoms: C5_7  and  O1_8
REMARK    6  A    between atoms: C5_7  and  C13_16
REMARK    7  A    between atoms: O1_8  and  C6_9
REMARK    8  A    between atoms: C6_9  and  C7_10
REMARK    9  A    between atoms: C13_16  and  C14_17
REMARK   10  A    between atoms: C13_16  and  N2_27
REMARK   11  A    between atoms: C14_17  and  C15_18
REMARK   12  A    between atoms: C15_18  and  C16_19
REMARK   13  A    between atoms: N2_27  and  C22_29
REMARK   14  A    between atoms: C22_29  and  C23_30
REMARK   15  A    between atoms: C22_29  and  C27_37
REMARK   16  A    between atoms: C23_30  and  C24_31
REMARK   17  A    between atoms: C24_31  and  C25_32
REMARK   18  A    between atoms: C25_32  and  N3_33
REMARK       I    between atoms: N3_33  and  C26_34
REMARK   19  A    between atoms: C27_37  and  N6_38
ROOT
HETATM    1  C13 UNL     1      11.045   5.557  25.333  1.00  0.00     0.140 C
ENDROOT
BRANCH   1   2
HETATM    2  C5  UNL     1      10.425   4.672  24.352  1.00  0.00     0.084 C
BRANCH   2   3
HETATM    3  C4  UNL     1      11.344   3.596  23.861  1.00  0.00     0.117 C
BRANCH   3   4
HETATM    4  N1  UNL     1      11.001   2.269  24.179  1.00  0.00    -0.393 N
ATOM      5  H1  UNL     1      11.002   1.893  25.127  1.00  0.00     0.159 HD
BRANCH   4   6
HETATM    6  C3  UNL     1      10.646   1.500  23.006  1.00  0.00     0.145 C
BRANCH   6   7
HETATM    7  C2  UNL     1      11.778   1.428  22.042  1.00  0.00    -0.018 C
HETATM    8  C1  UNL     1      11.935   0.466  21.146  1.00  0.00     0.008 C
ENDBRANCH   6   7
ENDBRANCH   4   6
ENDBRANCH   3   4
ENDBRANCH   2   3
BRANCH   2   9
HETATM    9  O1  UNL     1       9.107   4.361  24.380  1.00  0.00    -0.347 OA
BRANCH   9  10
HETATM   10  C6  UNL     1       8.239   5.222  23.764  1.00  0.00     0.214 C
BRANCH  10  11
HETATM   11  C7  UNL     1       6.862   5.170  24.286  1.00  0.00    -0.034 A
HETATM   12  C8  UNL     1       6.592   4.409  25.394  1.00  0.00     0.009 A
HETATM   13  C9  UNL     1       5.297   4.344  25.894  1.00  0.00     0.001 A
HETATM   14  C10 UNL     1       4.271   5.039  25.289  1.00  0.00     0.000 A
HETATM   15  C11 UNL     1       4.539   5.799  24.182  1.00  0.00     0.001 A
HETATM   16  C12 UNL     1       5.815   5.870  23.680  1.00  0.00     0.009 A
ENDBRANCH  10  11
ENDBRANCH   9  10
ENDBRANCH   2   9
ENDBRANCH   1   2
BRANCH   1  17
HETATM   17  C14 UNL     1      10.990   4.967  26.749  1.00  0.00     0.036 C
BRANCH  17  18
HETATM   18  C15 UNL     1      10.008   5.463  27.704  1.00  0.00     0.041 C
BRANCH  18  19
HETATM   19  C16 UNL     1       9.068   4.301  28.013  1.00  0.00    -0.052 A
HETATM   20  C17 UNL     1       9.330   3.039  27.541  1.00  0.00     0.049 A
HETATM   21  C18 UNL     1       8.496   1.965  27.814  1.00  0.00     0.119 A
HETATM   22  F1  UNL     1       8.752   0.715  27.350  1.00  0.00    -0.206 F
HETATM   23  C19 UNL     1       7.366   2.198  28.588  1.00  0.00     0.084 A
HETATM   24  C20 UNL     1       7.084   3.451  29.069  1.00  0.00     0.119 A
HETATM   25  F2  UNL     1       5.993   3.679  29.817  1.00  0.00    -0.206 F
HETATM   26  C21 UNL     1       7.944   4.494  28.774  1.00  0.00     0.049 A
ENDBRANCH  18  19
ENDBRANCH  17  18
ENDBRANCH   1  17
BRANCH   1  27
HETATM   27  N2  UNL     1      10.401   6.842  25.574  1.00  0.00    -0.381 N
ATOM     28  H2  UNL     1       9.474   6.855  26.001  1.00  0.00     0.160 HD
BRANCH  27  29
HETATM   29  C22 UNL     1      10.998   8.040  25.244  1.00  0.00     0.022 C
BRANCH  29  30
HETATM   30  C23 UNL     1      12.495   7.875  25.606  1.00  0.00     0.064 C
BRANCH  30  31
HETATM   31  C24 UNL     1      13.400   8.792  24.875  1.00  0.00     0.065 C
BRANCH  31  32
HETATM   32  C25 UNL     1      14.711   8.861  25.714  1.00  0.00     0.158 C
BRANCH  32  33
HETATM   33  N3  UNL     1      14.850   9.952  26.456  1.00  0.00    -0.393 NA
HETATM   34  C26 UNL     1      15.070  10.801  27.239  1.00  0.00     0.274 C
HETATM   35  N4  UNL     1      14.587  12.163  26.967  1.00  0.00    -0.052 NA
HETATM   36  N5  UNL     1      15.791  10.662  28.497  1.00  0.00    -0.052 NA
ENDBRANCH  32  33
ENDBRANCH  31  32
ENDBRANCH  30  31
ENDBRANCH  29  30
BRANCH  29  37
HETATM   37  C27 UNL     1      10.729   8.815  24.039  1.00  0.00     0.131 C
BRANCH  37  38
HETATM   38  N6  UNL     1       9.669   8.627  23.153  1.00  0.00    -0.224 N
HETATM   39  C28 UNL     1       9.891   8.032  21.941  1.00  0.00     0.338 A
HETATM   40  O2  UNL     1      11.016   7.625  21.561  1.00  0.00    -0.246 OA
HETATM   41  N7  UNL     1       8.880   7.851  21.073  1.00  0.00    -0.260 N
HETATM   42  C29 UNL     1       7.627   8.235  21.334  1.00  0.00     0.332 A
ATOM     43  H7  UNL     1       9.078   7.403  20.178  1.00  0.00     0.175 HD
HETATM   44  O3  UNL     1       6.671   8.063  20.506  1.00  0.00    -0.246 OA
HETATM   45  N8  UNL     1       7.388   8.814  22.500  1.00  0.00    -0.260 N
HETATM   46  C30 UNL     1       8.415   9.000  23.389  1.00  0.00     0.338 A
ATOM     47  H8  UNL     1       6.444   9.122  22.737  1.00  0.00     0.175 HD
HETATM   48  O4  UNL     1       8.035   9.564  24.450  1.00  0.00    -0.246 OA
ENDBRANCH  37  38
ENDBRANCH  29  37
ENDBRANCH  27  29
ENDBRANCH   1  27
TORSDOF 19
ENDMDL