MODEL 4
REMARK VINA RESULT: -7.353713405      2.146      2.917
REMARK  22 active torsions:
REMARK  status: ('A' for Active; 'I' for Inactive)
REMARK    1  A    between atoms: C2_2  and  C3_3
REMARK    2  A    between atoms: C3_3  and  C4_4
REMARK    3  A    between atoms: C4_4  and  C5_5
REMARK    4  A    between atoms: C5_5  and  C6_6
REMARK    5  A    between atoms: C6_6  and  C7_7
REMARK    6  A    between atoms: C6_6  and  C23_40
REMARK    7  A    between atoms: C7_7  and  N1_8
REMARK    8  A    between atoms: C9_12  and  C10_13
REMARK    9  A    between atoms: C12_17  and  O3_18
REMARK   10  A    between atoms: C13_20  and  C14_21
REMARK   11  A    between atoms: C14_21  and  C15_22
REMARK   12  A    between atoms: C15_22  and  C16_23
REMARK   13  A    between atoms: C17_28  and  O6_29
REMARK   14  A    between atoms: C18_31  and  C19_32
REMARK   15  A    between atoms: C19_32  and  C20_33
REMARK   16  A    between atoms: C20_33  and  C21_34
REMARK   17  A    between atoms: C21_34  and  N4_35
REMARK   18  A    between atoms: C23_40  and  O7_41
REMARK   19  A    between atoms: C23_40  and  C24_43
REMARK   20  A    between atoms: C24_43  and  C25_44
REMARK   21  A    between atoms: C25_44  and  C26_45
REMARK   22  A    between atoms: C26_45  and  C27_46
ROOT
HETATM    1  N1  UNL     1      10.908   9.176  22.704  1.00  0.00    -0.272 N
HETATM    2  O1  UNL     1      10.787   8.524  21.599  1.00  0.00    -0.196 OA
HETATM    3  C8  UNL     1      10.362   8.322  20.391  1.00  0.00     0.327 C
HETATM    4  O2  UNL     1      10.729   7.230  19.791  1.00  0.00    -0.256 OA
HETATM    5  C9  UNL     1       9.488   9.197  19.577  1.00  0.00     0.088 C
HETATM    6  N2  UNL     1      10.160  10.295  18.933  1.00  0.00    -0.334 N
ATOM      7  H2  UNL     1      10.052  10.292  17.920  1.00  0.00     0.168 HD
HETATM    8  C12 UNL     1      10.928  11.361  19.401  1.00  0.00     0.163 C
HETATM    9  C13 UNL     1      10.652  12.560  20.165  1.00  0.00     0.062 C
HETATM   10  N3  UNL     1      10.400  12.475  21.567  1.00  0.00    -0.339 N
ATOM     11  H3  UNL     1       9.943  13.316  21.921  1.00  0.00     0.167 HD
HETATM   12  C17 UNL     1      10.613  11.552  22.565  1.00  0.00     0.141 C
HETATM   13  C18 UNL     1      11.536  10.443  22.685  1.00  0.00     0.183 C
ENDROOT
BRANCH   1  14
HETATM   14  C7  UNL     1       9.895   8.969  23.720  1.00  0.00     0.158 C
BRANCH  14  15
HETATM   15  C6  UNL     1       9.762   7.493  24.035  1.00  0.00     0.034 C
BRANCH  15  16
HETATM   16  C5  UNL     1       8.448   6.913  24.193  1.00  0.00     0.009 C
BRANCH  16  17
HETATM   17  C4  UNL     1       7.464   6.704  23.148  1.00  0.00     0.004 C
BRANCH  17  18
HETATM   18  C3  UNL     1       6.342   5.774  23.424  1.00  0.00     0.026 C
BRANCH  18  19
HETATM   19  C2  UNL     1       6.679   4.959  24.631  1.00  0.00    -0.037 C
HETATM   20  C1  UNL     1       5.722   4.578  25.501  1.00  0.00     0.007 C
ENDBRANCH  18  19
ENDBRANCH  17  18
ENDBRANCH  16  17
ENDBRANCH  15  16
BRANCH  15  21
HETATM   21  C23 UNL     1      10.602   7.179  25.280  1.00  0.00     0.123 C
BRANCH  21  22
HETATM   22  O7  UNL     1      10.881   8.338  25.957  1.00  0.00    -0.395 OA
ATOM     23  H7  UNL     1      10.861   8.177  26.893  1.00  0.00     0.210 HD
ENDBRANCH  21  22
BRANCH  21  24
HETATM   24  C24 UNL     1       9.989   6.119  26.147  1.00  0.00     0.032 C
BRANCH  24  25
HETATM   25  C25 UNL     1      10.826   4.851  26.117  1.00  0.00     0.008 C
BRANCH  25  26
HETATM   26  C26 UNL     1      10.187   3.737  25.365  1.00  0.00     0.079 C
BRANCH  26  27
HETATM   27  C27 UNL     1      10.537   3.595  23.928  1.00  0.00     0.240 C
HETATM   28  C28 UNL     1      11.017   2.217  23.564  1.00  0.00     0.090 C
HETATM   29  F1  UNL     1       9.310   3.735  23.227  1.00  0.00    -0.207 F
HETATM   30  F2  UNL     1      11.339   4.569  23.425  1.00  0.00    -0.207 F
ENDBRANCH  26  27
ENDBRANCH  25  26
ENDBRANCH  24  25
ENDBRANCH  21  24
ENDBRANCH  15  21
ENDBRANCH  14  15
ENDBRANCH   1  14
BRANCH  13  31
HETATM   31  C19 UNL     1      12.575  10.607  23.782  1.00  0.00     0.037 C
BRANCH  31  32
HETATM   32  C20 UNL     1      13.567   9.476  23.664  1.00  0.00     0.022 C
BRANCH  32  33
HETATM   33  C21 UNL     1      14.464   9.830  22.488  1.00  0.00     0.122 C
BRANCH  33  34
HETATM   34  N4  UNL     1      15.821   9.497  22.739  1.00  0.00    -0.367 N
HETATM   35  C22 UNL     1      16.798   9.765  21.991  1.00  0.00     0.196 C
HETATM   36  N5  UNL     1      18.099   9.364  22.387  1.00  0.00    -0.067 NA
HETATM   37  N6  UNL     1      16.628  10.456  20.765  1.00  0.00    -0.067 NA
ATOM     38  H4  UNL     1      16.024   8.996  23.604  1.00  0.00     0.161 HD
ENDBRANCH  33  34
ENDBRANCH  32  33
ENDBRANCH  31  32
ENDBRANCH  13  31
BRANCH  12  39
HETATM   39  O6  UNL     1       9.845  11.691  23.611  1.00  0.00    -0.348 OA
ATOM     40  H6  UNL     1       9.679  10.889  24.092  1.00  0.00     0.219 HD
ENDBRANCH  12  39
BRANCH   5  41
HETATM   41  C10 UNL     1       8.170   9.540  20.234  1.00  0.00     0.059 C
HETATM   42  C11 UNL     1       7.155   8.495  19.889  1.00  0.00     0.011 C
ENDBRANCH   5  41
BRANCH   9  43
HETATM   43  C14 UNL     1       9.681  13.557  19.576  1.00  0.00     0.072 C
BRANCH  43  44
HETATM   44  C15 UNL     1       8.298  13.094  19.298  1.00  0.00     0.119 C
BRANCH  44  45
HETATM   45  C16 UNL     1       7.921  12.843  17.910  1.00  0.00     0.172 C
HETATM   46  O4  UNL     1       7.858  11.736  17.329  1.00  0.00    -0.648 OA
HETATM   47  O5  UNL     1       7.592  13.974  17.132  1.00  0.00    -0.648 OA
ENDBRANCH  44  45
ENDBRANCH  43  44
ENDBRANCH   9  43
BRANCH   8  48
HETATM   48  O3  UNL     1      12.205  11.260  19.070  1.00  0.00    -0.345 OA
ATOM     49  H3  UNL     1      12.470  11.899  18.418  1.00  0.00     0.219 HD
ENDBRANCH   8  48
TORSDOF 22
ENDMDL