MODEL 2
REMARK VINA RESULT: -7.321272959      3.634      8.632
REMARK  12 active torsions:
REMARK  status: ('A' for Active; 'I' for Inactive)
REMARK    1  A    between atoms: C5_5  and  C6_6
REMARK    2  A    between atoms: C6_6  and  N1_7
REMARK       I    between atoms: N1_7  and  C7_9
REMARK       I    between atoms: N4_16  and  C10_17
REMARK    3  A    between atoms: C10_17  and  C11_19
REMARK    4  A    between atoms: C11_19  and  N5_20
REMARK       I    between atoms: N5_20  and  C12_21
REMARK    5  A    between atoms: C12_21  and  C13_23
REMARK    6  A    between atoms: C13_23  and  C14_24
REMARK    7  A    between atoms: C14_24  and  C15_25
REMARK    8  A    between atoms: C15_25  and  C16_26
REMARK    9  A    between atoms: C16_26  and  C17_27
REMARK   10  A    between atoms: C17_27  and  C18_28
REMARK   11  A    between atoms: C18_28  and  C19_29
REMARK   12  A    between atoms: C19_29  and  C20_30
REMARK       I    between atoms: N8_36  and  C22_38
ROOT
HETATM    1  C1  UNL     1      19.377  22.479  25.962  1.00  0.00     0.014 C
HETATM    2  C2  UNL     1      19.184  21.384  26.438  1.00  0.00    -0.092 C
HETATM    3  C3  UNL     1      18.923  20.065  27.018  1.00  0.00     0.166 C
HETATM    4  C4  UNL     1      19.356  19.020  26.009  1.00  0.00     0.044 C
HETATM    5  C5  UNL     1      19.158  17.636  26.567  1.00  0.00     0.008 C
HETATM    6  C8  UNL     1      19.945  17.420  27.818  1.00  0.00     0.026 C
HETATM    7  C9  UNL     1      20.562  18.719  28.312  1.00  0.00     0.128 C
HETATM    8  N4  UNL     1      19.706  19.857  28.230  1.00  0.00    -0.331 N
HETATM    9  C10 UNL     1      19.558  20.830  29.235  1.00  0.00     0.273 C
HETATM   10  O1  UNL     1      18.780  21.823  29.061  1.00  0.00    -0.266 OA
ENDROOT
BRANCH   5  11
HETATM   11  C6  UNL     1      19.431  16.604  25.531  1.00  0.00     0.127 C
BRANCH  11  12
HETATM   12  N1  UNL     1      19.082  15.260  25.803  1.00  0.00    -0.364 N
HETATM   13  C7  UNL     1      19.139  14.146  24.939  1.00  0.00     0.181 C
HETATM   14  N2  UNL     1      18.666  14.264  23.725  1.00  0.00    -0.374 N
HETATM   15  N3  UNL     1      19.684  12.894  25.334  1.00  0.00    -0.064 NA
ATOM     16  H22 UNL     1      18.275  15.162  23.441  1.00  0.00     0.158 HD
ATOM     17  H21 UNL     1      18.707  13.458  23.101  1.00  0.00     0.158 HD
ATOM     18  H1  UNL     1      18.746  15.072  26.747  1.00  0.00     0.162 HD
ENDBRANCH  11  12
ENDBRANCH   5  11
BRANCH   9  19
HETATM   19  C11 UNL     1      20.233  20.835  30.546  1.00  0.00     0.260 C
BRANCH  19  20
HETATM   20  N5  UNL     1      20.050  20.065  31.456  1.00  0.00    -0.378 NA
HETATM   21  C12 UNL     1      19.705  19.092  32.261  1.00  0.00     0.291 C
HETATM   22  O2  UNL     1      20.005  19.128  33.508  1.00  0.00    -0.257 OA
BRANCH  21  23
HETATM   23  C13 UNL     1      18.948  17.884  31.807  1.00  0.00     0.119 C
BRANCH  23  24
HETATM   24  C14 UNL     1      17.526  18.129  31.448  1.00  0.00     0.010 C
BRANCH  24  25
HETATM   25  C15 UNL     1      17.123  17.941  30.035  1.00  0.00     0.001 C
BRANCH  25  26
HETATM   26  C16 UNL     1      16.864  16.473  29.721  1.00  0.00     0.000 C
BRANCH  26  27
HETATM   27  C17 UNL     1      16.160  16.253  28.422  1.00  0.00     0.000 C
BRANCH  27  28
HETATM   28  C18 UNL     1      15.434  17.469  27.968  1.00  0.00     0.006 C
BRANCH  28  29
HETATM   29  C19 UNL     1      14.126  17.289  27.303  1.00  0.00     0.066 C
BRANCH  29  30
HETATM   30  C20 UNL     1      14.161  16.693  25.949  1.00  0.00     0.069 A
HETATM   31  N6  UNL     1      13.180  16.474  25.102  1.00  0.00    -0.296 N
HETATM   32  N7  UNL     1      13.393  15.950  23.965  1.00  0.00    -0.279 N
ATOM     33  H6  UNL     1      12.228  16.730  25.363  1.00  0.00     0.187 HD
HETATM   34  C21 UNL     1      14.654  15.619  23.639  1.00  0.00     0.167 A
ATOM     35  H7  UNL     1      12.624  15.783  23.316  1.00  0.00     0.189 HD
HETATM   36  N8  UNL     1      15.078  15.083  22.523  1.00  0.00    -0.310 N
HETATM   37  S1  UNL     1      15.509  16.095  25.040  1.00  0.00    -0.038 SA
HETATM   38  C22 UNL     1      14.210  14.764  21.451  1.00  0.00     0.187 C
ATOM     39  H8  UNL     1      16.074  14.888  22.422  1.00  0.00     0.170 HD
HETATM   40  N9  UNL     1      13.723  13.603  21.255  1.00  0.00    -0.373 N
HETATM   41  N10 UNL     1      13.827  15.773  20.500  1.00  0.00    -0.064 NA
ATOM     42  H92 UNL     1      13.995  12.887  21.930  1.00  0.00     0.158 HD
ATOM     43  H91 UNL     1      13.098  13.373  20.483  1.00  0.00     0.158 HD
ENDBRANCH  29  30
ENDBRANCH  28  29
ENDBRANCH  27  28
ENDBRANCH  26  27
ENDBRANCH  25  26
ENDBRANCH  24  25
ENDBRANCH  23  24
ENDBRANCH  21  23
ENDBRANCH  19  20
ENDBRANCH   9  19
TORSDOF 12
ENDMDL