MODEL 4
REMARK VINA RESULT: -7.779311855      3.351      5.087
REMARK  12 active torsions:
REMARK  status: ('A' for Active; 'I' for Inactive)
REMARK       I    between atoms: C1_4  and  N3_6
REMARK    1  A    between atoms: N3_6  and  C2_8
REMARK    2  A    between atoms: C2_8  and  C3_9
REMARK    3  A    between atoms: C3_9  and  C4_10
REMARK    4  A    between atoms: C4_10  and  C5_11
REMARK    5  A    between atoms: C5_11  and  O1_12
REMARK    6  A    between atoms: O1_12  and  C6_13
REMARK    7  A    between atoms: C6_13  and  C7_15
REMARK    8  A    between atoms: C7_15  and  C8_16
REMARK    9  A    between atoms: C7_15  and  N6_30
REMARK   10  A    between atoms: C8_16  and  N4_17
REMARK       I    between atoms: N4_17  and  C9_19
REMARK       I    between atoms: C9_19  and  N5_21
REMARK   11  A    between atoms: N5_21  and  C10_23
REMARK       I    between atoms: N6_30  and  C17_32
REMARK   12  A    between atoms: C17_32  and  C18_34
ROOT
HETATM    1  C7  UNL     1      18.917  17.230  32.543  1.00  0.00     0.202 C
ENDROOT
BRANCH   1   2
HETATM    2  C6  UNL     1      19.489  16.890  33.859  1.00  0.00     0.283 C
HETATM    3  O2  UNL     1      19.160  15.734  34.320  1.00  0.00    -0.263 OA
BRANCH   2   4
HETATM    4  O1  UNL     1      20.321  17.688  34.611  1.00  0.00    -0.320 OA
BRANCH   4   5
HETATM    5  C5  UNL     1      21.648  17.272  34.845  1.00  0.00     0.178 C
BRANCH   5   6
HETATM    6  C4  UNL     1      22.492  18.532  34.936  1.00  0.00     0.028 C
BRANCH   6   7
HETATM    7  C3  UNL     1      23.926  18.171  35.261  1.00  0.00     0.022 C
BRANCH   7   8
HETATM    8  C2  UNL     1      23.980  17.064  36.275  1.00  0.00     0.122 C
BRANCH   8   9
HETATM    9  N3  UNL     1      25.079  17.308  37.210  1.00  0.00    -0.365 N
HETATM   10  C1  UNL     1      25.739  16.252  37.876  1.00  0.00     0.181 C
HETATM   11  N1  UNL     1      25.517  16.011  39.102  1.00  0.00    -0.374 N
HETATM   12  N2  UNL     1      26.661  15.448  37.156  1.00  0.00    -0.064 NA
ATOM     13  H12 UNL     1      25.994  15.248  39.583  1.00  0.00     0.158 HD
ATOM     14  H11 UNL     1      24.854  16.589  39.618  1.00  0.00     0.158 HD
ATOM     15  H3  UNL     1      25.377  18.267  37.385  1.00  0.00     0.162 HD
ENDBRANCH   8   9
ENDBRANCH   7   8
ENDBRANCH   6   7
ENDBRANCH   5   6
ENDBRANCH   4   5
ENDBRANCH   2   4
ENDBRANCH   1   2
BRANCH   1  16
HETATM   16  C8  UNL     1      18.836  16.005  31.685  1.00  0.00     0.159 C
BRANCH  16  17
HETATM   17  N4  UNL     1      17.520  15.763  31.196  1.00  0.00    -0.341 N
HETATM   18  C9  UNL     1      17.178  16.136  29.856  1.00  0.00     0.316 C
HETATM   19  O3  UNL     1      18.050  16.668  29.127  1.00  0.00    -0.247 OA
HETATM   20  N5  UNL     1      15.874  15.907  29.355  1.00  0.00    -0.338 N
ATOM     21  H5  UNL     1      15.170  15.476  29.954  1.00  0.00     0.164 HD
ATOM     22  H4  UNL     1      16.823  15.324  31.799  1.00  0.00     0.164 HD
BRANCH  20  23
HETATM   23  C10 UNL     1      15.533  16.275  28.016  1.00  0.00     0.090 C
HETATM   24  C11 UNL     1      14.649  17.537  27.997  1.00  0.00     0.030 C
HETATM   25  C12 UNL     1      13.513  17.106  27.135  1.00  0.00    -0.012 C
HETATM   26  C13 UNL     1      14.055  16.833  25.755  1.00  0.00     0.005 C
HETATM   27  C16 UNL     1      13.312  15.665  27.639  1.00  0.00     0.011 C
HETATM   28  C14 UNL     1      14.768  15.480  25.837  1.00  0.00     0.007 C
HETATM   29  C15 UNL     1      14.744  15.204  27.300  1.00  0.00     0.009 C
ENDBRANCH  20  23
ENDBRANCH  16  17
ENDBRANCH   1  16
BRANCH   1  30
HETATM   30  N6  UNL     1      19.703  18.247  31.870  1.00  0.00    -0.344 N
HETATM   31  C17 UNL     1      19.082  19.433  31.407  1.00  0.00     0.252 C
HETATM   32  O4  UNL     1      17.855  19.649  31.554  1.00  0.00    -0.271 OA
ATOM     33  H6  UNL     1      20.704  18.108  31.731  1.00  0.00     0.163 HD
BRANCH  31  34
HETATM   34  C18 UNL     1      19.914  20.450  30.725  1.00  0.00     0.314 C
HETATM   35  C19 UNL     1      19.800  21.801  31.446  1.00  0.00     0.048 C
HETATM   36  C20 UNL     1      20.053  22.784  30.325  1.00  0.00     0.038 C
HETATM   37  C21 UNL     1      20.218  21.968  29.092  1.00  0.00     0.224 C
HETATM   38  C22 UNL     1      19.609  22.578  27.855  1.00  0.00     0.036 C
HETATM   39  N7  UNL     1      19.440  20.777  29.416  1.00  0.00     0.106 N
HETATM   40  C23 UNL     1      19.321  21.627  26.762  1.00  0.00     0.004 C
HETATM   41  C24 UNL     1      19.198  20.198  27.125  1.00  0.00     0.030 C
HETATM   42  C25 UNL     1      19.841  19.804  28.409  1.00  0.00     0.274 C
ENDBRANCH  31  34
ENDBRANCH   1  30
TORSDOF 12
ENDMDL