MODEL 3
REMARK VINA RESULT: -7.033522135      1.404      1.964
REMARK  13 active torsions:
REMARK  status: ('A' for Active; 'I' for Inactive)
REMARK    1  A    between atoms: C2_2  and  C3_3
REMARK    2  A    between atoms: C5_7  and  C6_8
REMARK    3  A    between atoms: C6_8  and  C7_9
REMARK    4  A    between atoms: C7_9  and  C8_10
REMARK    5  A    between atoms: C8_10  and  C9_11
REMARK    6  A    between atoms: C9_11  and  C10_12
REMARK    7  A    between atoms: C12_18  and  C13_19
REMARK    8  A    between atoms: C13_19  and  C14_20
REMARK    9  A    between atoms: C17_27  and  O2_28
REMARK   10  A    between atoms: C18_32  and  C19_33
REMARK   11  A    between atoms: C19_33  and  C20_34
REMARK   12  A    between atoms: C20_34  and  C21_35
REMARK   13  A    between atoms: C21_35  and  N6_36
ROOT
HETATM    1  C3  UNL     1      20.936  18.705  32.889  1.00  0.00     0.053 C
HETATM    2  N1  UNL     1      21.774  18.213  32.081  1.00  0.00    -0.389 N
ATOM      3  H1  UNL     1      22.081  17.274  32.336  1.00  0.00     0.159 HD
HETATM    4  C4  UNL     1      22.373  18.699  30.897  1.00  0.00     0.133 C
HETATM    5  C5  UNL     1      21.675  18.076  29.680  1.00  0.00     0.095 C
HETATM    6  C11 UNL     1      20.793  16.969  30.138  1.00  0.00     0.224 C
HETATM    7  O1  UNL     1      21.372  15.848  30.170  1.00  0.00    -0.273 OA
HETATM    8  N2  UNL     1      19.462  17.055  30.515  1.00  0.00    -0.348 N
ATOM      9  H2  UNL     1      19.258  16.556  31.381  1.00  0.00     0.163 HD
HETATM   10  C12 UNL     1      18.321  17.690  29.953  1.00  0.00     0.164 C
HETATM   11  C17 UNL     1      18.005  19.051  30.295  1.00  0.00     0.135 C
HETATM   12  N5  UNL     1      18.369  19.929  31.296  1.00  0.00    -0.361 N
ATOM     13  H5  UNL     1      17.598  20.160  31.923  1.00  0.00     0.162 HD
HETATM   14  C18 UNL     1      19.604  20.593  31.652  1.00  0.00     0.159 C
HETATM   15  C23 UNL     1      20.309  20.029  32.819  1.00  0.00     0.193 C
HETATM   16  O3  UNL     1      20.442  20.678  33.926  1.00  0.00    -0.289 OA
ENDROOT
BRANCH  10  17
HETATM   17  C13 UNL     1      17.135  16.784  30.209  1.00  0.00     0.092 C
BRANCH  17  18
HETATM   18  C14 UNL     1      17.071  16.154  31.526  1.00  0.00     0.028 A
HETATM   19  C15 UNL     1      16.732  16.752  32.715  1.00  0.00     0.114 A
HETATM   20  N3  UNL     1      16.745  15.821  33.711  1.00  0.00    -0.360 N
HETATM   21  C16 UNL     1      17.092  14.674  33.112  1.00  0.00     0.180 A
ATOM     22  H3  UNL     1      16.536  15.967  34.699  1.00  0.00     0.166 HD
HETATM   23  N4  UNL     1      17.293  14.859  31.791  1.00  0.00    -0.354 N
ATOM     24  H4  UNL     1      17.564  14.144  31.116  1.00  0.00     0.166 HD
ENDBRANCH  17  18
ENDBRANCH  10  17
BRANCH  11  25
HETATM   25  O2  UNL     1      17.164  19.540  29.421  1.00  0.00    -0.348 OA
ATOM     26  H2  UNL     1      17.207  19.034  28.618  1.00  0.00     0.219 HD
ENDBRANCH  11  25
BRANCH   5  27
HETATM   27  C6  UNL     1      22.811  17.537  28.770  1.00  0.00     0.015 C
BRANCH  27  28
HETATM   28  C7  UNL     1      23.994  18.405  28.832  1.00  0.00     0.001 C
BRANCH  28  29
HETATM   29  C8  UNL     1      25.259  17.777  28.411  1.00  0.00     0.001 C
BRANCH  29  30
HETATM   30  C9  UNL     1      26.014  16.851  29.254  1.00  0.00     0.011 C
BRANCH  30  31
HETATM   31  C10 UNL     1      25.927  16.913  30.740  1.00  0.00     0.086 C
HETATM   32  S1  UNL     1      24.843  15.507  31.311  1.00  0.00    -0.098 SA
ENDBRANCH  30  31
ENDBRANCH  29  30
ENDBRANCH  28  29
ENDBRANCH  27  28
ENDBRANCH   5  27
BRANCH  14  33
HETATM   33  C19 UNL     1      19.373  22.075  31.889  1.00  0.00     0.035 C
BRANCH  33  34
HETATM   34  C20 UNL     1      20.001  22.998  30.920  1.00  0.00     0.022 C
BRANCH  34  35
HETATM   35  C21 UNL     1      20.495  22.192  29.700  1.00  0.00     0.122 C
BRANCH  35  36
HETATM   36  N6  UNL     1      19.994  22.781  28.499  1.00  0.00    -0.367 N
HETATM   37  C22 UNL     1      19.472  22.106  27.531  1.00  0.00     0.196 C
HETATM   38  N7  UNL     1      18.992  22.754  26.364  1.00  0.00    -0.067 NA
HETATM   39  N8  UNL     1      19.351  20.678  27.584  1.00  0.00    -0.067 NA
ATOM     40  H6  UNL     1      20.051  23.794  28.402  1.00  0.00     0.161 HD
ENDBRANCH  35  36
ENDBRANCH  34  35
ENDBRANCH  33  34
ENDBRANCH  14  33
BRANCH   1  41
HETATM   41  C2  UNL     1      20.567  17.808  34.055  1.00  0.00     0.056 C
HETATM   42  C1  UNL     1      20.855  16.373  33.747  1.00  0.00     0.011 C
ENDBRANCH   1  41
TORSDOF 13
ENDMDL