MODEL 5
REMARK VINA RESULT: -6.923707080      3.180      6.944
REMARK  13 active torsions:
REMARK  status: ('A' for Active; 'I' for Inactive)
REMARK    1  A    between atoms: C2_2  and  O1_3
REMARK    2  A    between atoms: C2_2  and  C3_5
REMARK    3  A    between atoms: C3_5  and  C4_6
REMARK    4  A    between atoms: C4_6  and  C5_7
REMARK    5  A    between atoms: C4_6  and  C20_36
REMARK       I    between atoms: C5_7  and  N1_9
REMARK    6  A    between atoms: N1_9  and  C6_11
REMARK    7  A    between atoms: C6_11  and  C7_12
REMARK    8  A    between atoms: C6_11  and  C17_33
REMARK       I    between atoms: C7_12  and  N2_14
REMARK    9  A    between atoms: N2_14  and  C8_16
REMARK   10  A    between atoms: C8_16  and  C9_17
REMARK   11  A    between atoms: C8_16  and  C15_29
REMARK       I    between atoms: C9_17  and  N3_19
REMARK   12  A    between atoms: N3_19  and  C10_21
REMARK   13  A    between atoms: C15_29  and  O6_31
ROOT
HETATM    1  C7  UNL     1      18.902  20.253  30.808  1.00  0.00     0.265 C
HETATM    2  O3  UNL     1      17.839  19.651  30.904  1.00  0.00    -0.266 OA
HETATM    3  N2  UNL     1      19.394  20.590  29.521  1.00  0.00    -0.340 N
ATOM      4  H2  UNL     1      20.302  21.046  29.435  1.00  0.00     0.163 HD
ENDROOT
BRANCH   1   5
HETATM    5  C6  UNL     1      19.637  20.615  32.021  1.00  0.00     0.083 C
BRANCH   5   6
HETATM    6  N1  UNL     1      20.787  19.865  32.380  1.00  0.00    -0.325 N
HETATM    7  C5  UNL     1      21.945  19.489  31.787  1.00  0.00     0.226 C
HETATM    8  O2  UNL     1      22.220  19.871  30.588  1.00  0.00    -0.273 OA
ATOM      9  H1  UNL     1      20.725  19.519  33.337  1.00  0.00     0.168 HD
BRANCH   7  10
HETATM   10  C4  UNL     1      22.970  18.622  32.426  1.00  0.00     0.084 C
BRANCH  10  11
HETATM   11  C3  UNL     1      23.338  17.506  31.552  1.00  0.00     0.045 C
BRANCH  11  12
HETATM   12  C2  UNL     1      24.848  17.412  31.339  1.00  0.00     0.114 C
HETATM   13  C1  UNL     1      25.170  17.426  29.851  1.00  0.00     0.039 C
BRANCH  12  14
HETATM   14  O1  UNL     1      25.346  16.206  31.837  1.00  0.00    -0.396 OA
ATOM     15  H1  UNL     1      24.780  15.962  32.560  1.00  0.00     0.210 HD
ENDBRANCH  12  14
ENDBRANCH  11  12
ENDBRANCH  10  11
BRANCH  10  16
HETATM   16  C20 UNL     1      22.534  18.277  33.831  1.00  0.00    -0.001 C
HETATM   17  C21 UNL     1      22.083  16.904  34.093  1.00  0.00     0.005 C
HETATM   18  C22 UNL     1      23.034  15.994  34.825  1.00  0.00     0.000 C
HETATM   19  C23 UNL     1      24.328  16.534  35.251  1.00  0.00     0.000 C
HETATM   20  C24 UNL     1      24.476  17.992  35.453  1.00  0.00     0.000 C
HETATM   21  C25 UNL     1      23.349  18.808  34.958  1.00  0.00     0.005 C
ENDBRANCH  10  16
ENDBRANCH   7  10
ENDBRANCH   5   6
BRANCH   5  22
HETATM   22  C17 UNL     1      19.699  22.072  32.365  1.00  0.00     0.033 C
HETATM   23  C18 UNL     1      20.120  22.156  33.821  1.00  0.00     0.016 C
HETATM   24  C19 UNL     1      20.617  22.863  31.505  1.00  0.00     0.016 C
ENDBRANCH   5  22
ENDBRANCH   1   5
BRANCH   3  25
HETATM   25  C8  UNL     1      18.619  20.295  28.311  1.00  0.00     0.205 C
BRANCH  25  26
HETATM   26  C9  UNL     1      18.808  18.942  27.774  1.00  0.00     0.243 C
HETATM   27  O4  UNL     1      19.744  18.557  27.069  1.00  0.00    -0.271 OA
HETATM   28  N3  UNL     1      17.806  17.984  28.115  1.00  0.00    -0.354 N
ATOM     29  H3  UNL     1      17.033  18.292  28.706  1.00  0.00     0.162 HD
BRANCH  28  30
HETATM   30  C10 UNL     1      17.814  16.609  27.680  1.00  0.00     0.094 C
HETATM   31  C11 UNL     1      16.473  16.273  27.110  1.00  0.00     0.045 C
HETATM   32  C12 UNL     1      15.479  15.722  28.094  1.00  0.00     0.124 C
HETATM   33  N4  UNL     1      15.863  16.117  29.434  1.00  0.00    -0.361 N
HETATM   34  C13 UNL     1      17.172  15.800  29.848  1.00  0.00     0.219 C
ATOM     35  H4  UNL     1      15.212  16.602  30.052  1.00  0.00     0.162 HD
HETATM   36  O5  UNL     1      17.430  15.649  31.057  1.00  0.00    -0.274 OA
HETATM   37  C14 UNL     1      18.234  15.655  28.774  1.00  0.00     0.128 C
ENDBRANCH  28  30
ENDBRANCH  25  26
BRANCH  25  38
HETATM   38  C15 UNL     1      18.868  21.416  27.311  1.00  0.00     0.146 C
HETATM   39  C16 UNL     1      19.797  22.454  27.904  1.00  0.00     0.042 C
BRANCH  38  40
HETATM   40  O6  UNL     1      19.393  21.017  26.106  1.00  0.00    -0.393 OA
ATOM     41  H6  UNL     1      19.630  20.099  26.053  1.00  0.00     0.210 HD
ENDBRANCH  38  40
ENDBRANCH  25  38
ENDBRANCH   3  25
TORSDOF 13
ENDMDL