MODEL 3
REMARK VINA RESULT: -6.952976736      2.985      5.796
REMARK  13 active torsions:
REMARK  status: ('A' for Active; 'I' for Inactive)
REMARK       I    between atoms: C1_4  and  N3_6
REMARK    1  A    between atoms: N3_6  and  C2_8
REMARK    2  A    between atoms: C2_8  and  C3_9
REMARK    3  A    between atoms: C3_9  and  C4_10
REMARK    4  A    between atoms: C4_10  and  C5_11
REMARK    5  A    between atoms: C5_11  and  N4_12
REMARK    6  A    between atoms: C5_11  and  C15_29
REMARK    7  A    between atoms: N4_12  and  S1_14
REMARK    8  A    between atoms: S1_14  and  N5_17
REMARK    9  A    between atoms: N5_17  and  C6_19
REMARK   10  A    between atoms: C15_29  and  O4_30
REMARK   11  A    between atoms: C15_29  and  C16_32
REMARK   12  A    between atoms: C16_32  and  O5_33
REMARK   13  A    between atoms: C16_32  and  N6_35
ROOT
HETATM    1  C5  UNL     1      20.140  16.747  32.920  1.00  0.00     0.131 C
ENDROOT
BRANCH   1   2
HETATM    2  C4  UNL     1      19.118  15.829  33.469  1.00  0.00     0.030 C
BRANCH   2   3
HETATM    3  C3  UNL     1      17.743  16.428  33.576  1.00  0.00     0.022 C
BRANCH   3   4
HETATM    4  C2  UNL     1      17.314  17.043  32.238  1.00  0.00     0.122 C
BRANCH   4   5
HETATM    5  N3  UNL     1      16.501  16.119  31.494  1.00  0.00    -0.365 N
HETATM    6  C1  UNL     1      16.730  15.861  30.121  1.00  0.00     0.181 C
HETATM    7  N1  UNL     1      15.792  16.061  29.231  1.00  0.00    -0.374 N
HETATM    8  N2  UNL     1      17.976  15.384  29.654  1.00  0.00    -0.064 NA
ATOM      9  H12 UNL     1      15.958  15.875  28.242  1.00  0.00     0.158 HD
ATOM     10  H11 UNL     1      14.893  16.405  29.568  1.00  0.00     0.158 HD
ATOM     11  H3  UNL     1      15.738  15.636  31.968  1.00  0.00     0.162 HD
ENDBRANCH   4   5
ENDBRANCH   3   4
ENDBRANCH   2   3
ENDBRANCH   1   2
BRANCH   1  12
HETATM   12  N4  UNL     1      21.040  17.345  33.837  1.00  0.00    -0.295 N
ATOM     13  H4  UNL     1      21.604  16.770  34.462  1.00  0.00     0.174 HD
BRANCH  12  14
HETATM   14  S1  UNL     1      21.156  19.024  33.873  1.00  0.00     0.315 S
HETATM   15  O1  UNL     1      22.563  19.537  33.700  1.00  0.00    -0.183 OA
HETATM   16  O2  UNL     1      20.602  19.606  35.161  1.00  0.00    -0.183 OA
BRANCH  14  17
HETATM   17  N5  UNL     1      20.226  19.713  32.611  1.00  0.00    -0.298 N
ATOM     18  H5  UNL     1      19.335  19.326  32.299  1.00  0.00     0.174 HD
BRANCH  17  19
HETATM   19  C6  UNL     1      20.823  20.897  32.029  1.00  0.00     0.094 C
HETATM   20  C7  UNL     1      21.473  20.485  30.751  1.00  0.00     0.029 C
HETATM   21  C8  UNL     1      21.380  21.438  29.613  1.00  0.00     0.040 C
HETATM   22  C9  UNL     1      19.951  21.946  29.562  1.00  0.00     0.061 C
HETATM   23  C10 UNL     1      19.625  22.633  28.257  1.00  0.00     0.040 C
HETATM   24  O3  UNL     1      19.027  20.917  29.700  1.00  0.00    -0.380 OA
HETATM   25  C13 UNL     1      19.804  22.846  30.770  1.00  0.00     0.040 C
HETATM   26  C11 UNL     1      19.234  21.418  27.415  1.00  0.00     0.029 C
HETATM   27  C12 UNL     1      18.795  20.405  28.434  1.00  0.00     0.168 C
HETATM   28  C14 UNL     1      19.823  21.973  31.985  1.00  0.00     0.029 C
ENDBRANCH  17  19
ENDBRANCH  14  17
ENDBRANCH  12  14
ENDBRANCH   1  12
BRANCH   1  29
HETATM   29  C15 UNL     1      20.890  16.023  31.786  1.00  0.00     0.216 C
BRANCH  29  30
HETATM   30  O4  UNL     1      20.257  14.854  31.560  1.00  0.00    -0.385 OA
ATOM     31  H4  UNL     1      20.163  14.755  30.620  1.00  0.00     0.210 HD
ENDBRANCH  29  30
BRANCH  29  32
HETATM   32  C16 UNL     1      21.034  16.924  30.640  1.00  0.00     0.149 C
BRANCH  32  33
HETATM   33  O5  UNL     1      19.922  17.509  30.266  1.00  0.00    -0.347 OA
ATOM     34  H5  UNL     1      19.487  17.094  29.530  1.00  0.00     0.219 HD
ENDBRANCH  32  33
BRANCH  32  35
HETATM   35  N6  UNL     1      22.196  17.226  29.915  1.00  0.00    -0.343 N
HETATM   36  C17 UNL     1      21.902  17.609  28.529  1.00  0.00     0.130 C
HETATM   37  C18 UNL     1      22.718  16.718  27.635  1.00  0.00     0.020 C
HETATM   38  C19 UNL     1      24.170  17.074  27.610  1.00  0.00     0.002 C
HETATM   39  C20 UNL     1      24.514  18.202  28.542  1.00  0.00     0.005 C
HETATM   40  C21 UNL     1      24.619  17.802  29.962  1.00  0.00     0.045 C
HETATM   41  C22 UNL     1      23.432  17.147  30.588  1.00  0.00     0.066 C
ENDBRANCH  32  35
ENDBRANCH  29  32
ENDBRANCH   1  29
TORSDOF 13
ENDMDL