MODEL 5
REMARK VINA RESULT: -7.288295551      3.194      8.995
REMARK  13 active torsions:
REMARK  status: ('A' for Active; 'I' for Inactive)
REMARK    1  A    between atoms: C2_2  and  N1_3
REMARK    2  A    between atoms: C2_2  and  C3_7
REMARK    3  A    between atoms: C3_7  and  N2_8
REMARK    4  A    between atoms: N2_8  and  C4_10
REMARK    5  A    between atoms: C4_10  and  C5_11
REMARK    6  A    between atoms: C5_11  and  C6_12
REMARK    7  A    between atoms: C5_11  and  N4_17
REMARK    8  A    between atoms: C6_12  and  N3_13
REMARK       I    between atoms: N4_17  and  C7_19
REMARK       I    between atoms: C7_19  and  N5_21
REMARK       I    between atoms: N6_24  and  C10_25
REMARK    9  A    between atoms: C10_25  and  C11_27
REMARK   10  A    between atoms: C11_27  and  C12_28
REMARK   11  A    between atoms: C11_27  and  N7_35
REMARK   12  A    between atoms: C12_28  and  C13_29
REMARK       I    between atoms: N7_35  and  C19_37
REMARK   13  A    between atoms: C19_37  and  C20_39
ROOT
HETATM    1  N4  UNL     1      20.131  19.784  31.257  1.00  0.00    -0.335 N
ATOM      2  H4  UNL     1      21.031  19.706  30.784  1.00  0.00     0.164 HD
HETATM    3  C7  UNL     1      19.106  18.869  30.926  1.00  0.00     0.318 C
HETATM    4  O1  UNL     1      18.025  18.971  31.548  1.00  0.00    -0.247 OA
HETATM    5  N5  UNL     1      19.320  17.891  29.932  1.00  0.00    -0.331 N
HETATM    6  C8  UNL     1      18.335  16.830  29.644  1.00  0.00     0.147 C
HETATM    7  C9  UNL     1      18.830  16.106  28.381  1.00  0.00     0.145 C
HETATM    8  N6  UNL     1      19.043  17.059  27.331  1.00  0.00    -0.347 N
HETATM    9  C10 UNL     1      18.573  16.966  26.003  1.00  0.00     0.242 C
HETATM   10  O2  UNL     1      18.716  17.999  25.299  1.00  0.00    -0.271 OA
HETATM   11  C24 UNL     1      19.881  18.224  27.675  1.00  0.00     0.145 C
HETATM   12  C25 UNL     1      20.476  17.902  29.063  1.00  0.00     0.147 C
ENDROOT
BRANCH   9  13
HETATM   13  C11 UNL     1      17.958  15.756  25.475  1.00  0.00     0.177 C
BRANCH  13  14
HETATM   14  C12 UNL     1      18.917  14.803  24.885  1.00  0.00     0.039 C
BRANCH  14  15
HETATM   15  C13 UNL     1      19.526  13.724  25.674  1.00  0.00    -0.012 C
HETATM   16  C14 UNL     1      19.614  12.515  24.676  1.00  0.00     0.005 C
HETATM   17  C15 UNL     1      20.661  11.573  25.232  1.00  0.00     0.000 C
HETATM   18  C16 UNL     1      20.548  11.467  26.739  1.00  0.00     0.000 C
HETATM   19  C17 UNL     1      19.140  11.782  27.201  1.00  0.00     0.000 C
HETATM   20  C18 UNL     1      18.688  13.177  26.792  1.00  0.00     0.005 C
ENDBRANCH  14  15
ENDBRANCH  13  14
BRANCH  13  21
HETATM   21  N7  UNL     1      16.782  15.938  24.653  1.00  0.00    -0.346 N
HETATM   22  C19 UNL     1      15.488  16.186  25.103  1.00  0.00     0.249 C
HETATM   23  O3  UNL     1      15.169  16.298  26.310  1.00  0.00    -0.271 OA
ATOM     24  H7  UNL     1      16.914  15.880  23.644  1.00  0.00     0.163 HD
BRANCH  22  25
HETATM   25  C20 UNL     1      14.432  16.321  24.051  1.00  0.00     0.277 C
HETATM   26  C21 UNL     1      14.396  15.182  23.080  1.00  0.00     0.044 C
HETATM   27  C22 UNL     1      13.144  15.586  22.274  1.00  0.00     0.030 C
HETATM   28  C23 UNL     1      12.351  16.431  23.277  1.00  0.00     0.233 C
HETATM   29  N8  UNL     1      13.086  16.317  24.554  1.00  0.00    -0.062 N
ATOM     30  H82 UNL     1      12.831  15.529  25.149  1.00  0.00     0.278 HD
ATOM     31  H81 UNL     1      12.869  17.020  25.261  1.00  0.00     0.278 HD
ENDBRANCH  22  25
ENDBRANCH  13  21
ENDBRANCH   9  13
BRANCH   1  32
HETATM   32  C5  UNL     1      19.947  20.834  32.250  1.00  0.00     0.128 C
BRANCH  32  33
HETATM   33  C4  UNL     1      20.418  22.139  31.700  1.00  0.00     0.140 C
BRANCH  33  34
HETATM   34  N2  UNL     1      19.559  22.620  30.678  1.00  0.00    -0.417 N
ATOM     35  H2  UNL     1      18.581  22.856  30.848  1.00  0.00     0.153 HD
BRANCH  34  36
HETATM   36  C3  UNL     1      20.166  22.746  29.398  1.00  0.00     0.146 C
BRANCH  36  37
HETATM   37  C2  UNL     1      19.585  21.943  28.292  1.00  0.00     0.196 C
HETATM   38  C1  UNL     1      19.597  22.757  26.997  1.00  0.00     0.041 C
BRANCH  37  39
HETATM   39  N1  UNL     1      18.364  21.273  28.540  1.00  0.00    -0.074 N
ATOM     40  H13 UNL     1      18.419  20.738  29.407  1.00  0.00     0.274 HD
ATOM     41  H12 UNL     1      17.635  21.939  28.794  1.00  0.00     0.274 HD
ATOM     42  H11 UNL     1      18.053  20.678  27.772  1.00  0.00     0.274 HD
ENDBRANCH  37  39
ENDBRANCH  36  37
ENDBRANCH  34  36
ENDBRANCH  33  34
ENDBRANCH  32  33
BRANCH  32  43
HETATM   43  C6  UNL     1      20.651  20.506  33.567  1.00  0.00     0.256 C
BRANCH  43  44
HETATM   44  N3  UNL     1      21.856  19.786  33.350  1.00  0.00    -0.077 N
ATOM     45  H33 UNL     1      21.890  18.938  33.914  1.00  0.00     0.274 HD
ATOM     46  H32 UNL     1      21.875  19.361  32.423  1.00  0.00     0.274 HD
ATOM     47  H31 UNL     1      22.677  20.372  33.507  1.00  0.00     0.274 HD
ENDBRANCH  43  44
ENDBRANCH  32  43
ENDBRANCH   1  32
TORSDOF 13
ENDMDL