MODEL 1
REMARK VINA RESULT: -7.010692900      0.000      0.000
REMARK  12 active torsions:
REMARK  status: ('A' for Active; 'I' for Inactive)
REMARK    1  A    between atoms: C2_2  and  N1_3
REMARK    2  A    between atoms: C2_2  and  C4_10
REMARK       I    between atoms: N1_3  and  C3_5
REMARK       I    between atoms: C4_10  and  N4_12
REMARK    3  A    between atoms: N4_12  and  C5_14
REMARK    4  A    between atoms: C5_14  and  C7_16
REMARK    5  A    between atoms: C7_16  and  C8_17
REMARK    6  A    between atoms: C7_16  and  N5_20
REMARK    7  A    between atoms: C15_25  and  C16_26
REMARK       I    between atoms: C16_26  and  N6_28
REMARK    8  A    between atoms: N6_28  and  C17_30
REMARK    9  A    between atoms: C17_30  and  C18_31
REMARK   10  A    between atoms: C17_30  and  C21_37
REMARK   11  A    between atoms: C19_32  and  S1_33
REMARK   12  A    between atoms: C21_37  and  O5_39
ROOT
HETATM    1  N5  UNL     1      19.930  20.217  30.359  1.00  0.00    -0.372 N
HETATM    2  C11 UNL     1      20.102  21.540  29.742  1.00  0.00     0.123 C
HETATM    3  C12 UNL     1      19.703  22.641  30.705  1.00  0.00     0.020 C
HETATM    4  C13 UNL     1      20.336  22.451  32.060  1.00  0.00     0.004 C
HETATM    5  C14 UNL     1      20.331  21.037  32.512  1.00  0.00     0.035 C
HETATM    6  C15 UNL     1      20.853  20.121  31.367  1.00  0.00     0.176 C
ENDROOT
BRANCH   1   7
HETATM    7  C7  UNL     1      19.552  19.216  29.466  1.00  0.00     0.011 C
BRANCH   7   8
HETATM    8  C5  UNL     1      18.058  18.967  29.471  1.00  0.00     0.126 C
HETATM    9  C6  UNL     1      17.618  18.948  30.946  1.00  0.00     0.038 C
BRANCH   8  10
HETATM   10  N4  UNL     1      17.651  17.688  28.946  1.00  0.00    -0.350 N
HETATM   11  C4  UNL     1      16.329  17.368  28.569  1.00  0.00     0.240 C
HETATM   12  O1  UNL     1      15.464  18.265  28.704  1.00  0.00    -0.271 OA
ATOM     13  H4  UNL     1      18.365  16.967  28.839  1.00  0.00     0.163 HD
BRANCH  11  14
HETATM   14  C2  UNL     1      15.873  16.071  28.032  1.00  0.00     0.172 C
HETATM   15  C1  UNL     1      16.645  14.885  28.536  1.00  0.00     0.042 C
BRANCH  14  16
HETATM   16  N1  UNL     1      15.847  16.038  26.600  1.00  0.00    -0.352 N
HETATM   17  C3  UNL     1      14.657  16.029  25.839  1.00  0.00     0.182 C
HETATM   18  N2  UNL     1      14.456  15.099  24.981  1.00  0.00    -0.374 N
HETATM   19  N3  UNL     1      13.659  17.029  25.992  1.00  0.00    -0.064 NA
ATOM     20  H22 UNL     1      15.172  14.381  24.871  1.00  0.00     0.158 HD
ATOM     21  H21 UNL     1      13.596  15.093  24.432  1.00  0.00     0.158 HD
ATOM     22  H1  UNL     1      16.737  16.020  26.102  1.00  0.00     0.163 HD
ENDBRANCH  14  16
ENDBRANCH  11  14
ENDBRANCH   8  10
ENDBRANCH   7   8
BRANCH   7  23
HETATM   23  C8  UNL     1      20.176  19.230  28.106  1.00  0.00     0.025 C
HETATM   24  C9  UNL     1      19.244  19.525  26.962  1.00  0.00     0.016 C
HETATM   25  C10 UNL     1      20.935  17.990  27.730  1.00  0.00     0.016 C
ENDBRANCH   7  23
ENDBRANCH   1   7
BRANCH   6  26
HETATM   26  C16 UNL     1      21.322  18.894  31.962  1.00  0.00     0.241 C
HETATM   27  O2  UNL     1      22.362  18.259  31.676  1.00  0.00    -0.271 OA
HETATM   28  N6  UNL     1      20.563  18.283  33.001  1.00  0.00    -0.349 N
ATOM     29  H6  UNL     1      19.701  18.744  33.289  1.00  0.00     0.163 HD
BRANCH  28  30
HETATM   30  C17 UNL     1      20.919  17.070  33.671  1.00  0.00     0.136 C
BRANCH  30  31
HETATM   31  C18 UNL     1      19.659  16.383  34.068  1.00  0.00     0.012 C
HETATM   32  C19 UNL     1      18.655  16.191  33.243  1.00  0.00     0.106 C
BRANCH  32  33
HETATM   33  S1  UNL     1      17.212  15.372  33.799  1.00  0.00     0.161 S
HETATM   34  C20 UNL     1      17.348  13.639  33.394  1.00  0.00     0.166 C
HETATM   35  O3  UNL     1      15.988  15.951  33.156  1.00  0.00    -0.224 OA
HETATM   36  O4  UNL     1      17.169  15.471  35.296  1.00  0.00    -0.224 OA
ENDBRANCH  32  33
ENDBRANCH  30  31
BRANCH  30  37
HETATM   37  C21 UNL     1      21.711  17.293  34.935  1.00  0.00     0.140 C
HETATM   38  C22 UNL     1      21.274  18.508  35.703  1.00  0.00     0.042 C
BRANCH  37  39
HETATM   39  O5  UNL     1      23.055  17.457  34.602  1.00  0.00    -0.394 OA
ATOM     40  H5  UNL     1      23.321  18.340  34.826  1.00  0.00     0.210 HD
ENDBRANCH  37  39
ENDBRANCH  30  37
ENDBRANCH  28  30
ENDBRANCH   6  26
TORSDOF 12
ENDMDL