MODEL 4
REMARK VINA RESULT: -6.752155041      1.451      3.122
REMARK  14 active torsions:
REMARK  status: ('A' for Active; 'I' for Inactive)
REMARK    1  A    between atoms: C5_7  and  C6_8
REMARK    2  A    between atoms: C6_8  and  C7_9
REMARK    3  A    between atoms: C7_9  and  C8_10
REMARK    4  A    between atoms: C7_9  and  N3_17
REMARK    5  A    between atoms: C9_11  and  C10_12
REMARK    6  A    between atoms: C10_12  and  N2_13
REMARK    7  A    between atoms: N3_17  and  C11_19
REMARK    8  A    between atoms: C11_19  and  C12_20
REMARK    9  A    between atoms: C12_20  and  C13_21
REMARK   10  A    between atoms: C13_21  and  C14_22
REMARK   11  A    between atoms: C14_22  and  N4_23
REMARK   12  A    between atoms: C15_27  and  O1_28
REMARK   13  A    between atoms: C15_27  and  N5_30
REMARK   14  A    between atoms: C26_46  and  O2_47
ROOT
HETATM    1  C11 UNL     1      18.098  13.445  27.431  1.00  0.00     0.076 C
HETATM    2  C15 UNL     1      17.612  12.926  28.665  1.00  0.00     0.172 C
ENDROOT
BRANCH   1   3
HETATM    3  N3  UNL     1      17.081  14.438  26.951  1.00  0.00    -0.379 N
ATOM      4  H3  UNL     1      16.559  14.275  26.091  1.00  0.00     0.160 HD
BRANCH   3   5
HETATM    5  C7  UNL     1      16.866  15.594  27.714  1.00  0.00     0.109 C
BRANCH   5   6
HETATM    6  C6  UNL     1      17.433  16.841  27.094  1.00  0.00     0.069 C
BRANCH   6   7
HETATM    7  C5  UNL     1      18.476  17.505  27.925  1.00  0.00    -0.032 A
HETATM    8  C2  UNL     1      18.185  18.366  28.951  1.00  0.00     0.011 A
HETATM    9  C1  UNL     1      16.858  18.859  29.452  1.00  0.00     0.068 C
HETATM   10  N1  UNL     1      19.353  18.760  29.486  1.00  0.00    -0.369 N
HETATM   11  C3  UNL     1      20.373  18.199  28.856  1.00  0.00     0.088 A
ATOM     12  H1  UNL     1      19.441  19.406  30.270  1.00  0.00     0.165 HD
HETATM   13  C4  UNL     1      19.845  17.399  27.863  1.00  0.00     0.026 A
ENDBRANCH   6   7
ENDBRANCH   5   6
BRANCH   5  14
HETATM   14  C8  UNL     1      15.457  15.830  28.136  1.00  0.00    -0.004 C
HETATM   15  C9  UNL     1      14.278  15.555  27.346  1.00  0.00    -0.002 C
BRANCH  15  16
HETATM   16  C10 UNL     1      13.994  16.163  26.038  1.00  0.00     0.256 C
BRANCH  16  17
HETATM   17  N2  UNL     1      14.419  15.209  24.959  1.00  0.00    -0.076 N
ATOM     18  H23 UNL     1      15.111  15.615  24.330  1.00  0.00     0.274 HD
ATOM     19  H22 UNL     1      14.988  14.442  25.319  1.00  0.00     0.274 HD
ATOM     20  H21 UNL     1      13.590  14.880  24.466  1.00  0.00     0.274 HD
ENDBRANCH  16  17
ENDBRANCH  15  16
ENDBRANCH   5  14
ENDBRANCH   3   5
ENDBRANCH   1   3
BRANCH   1  21
HETATM   21  C12 UNL     1      19.365  13.827  26.916  1.00  0.00     0.008 C
BRANCH  21  22
HETATM   22  C13 UNL     1      19.580  14.192  25.473  1.00  0.00     0.056 C
BRANCH  22  23
HETATM   23  C14 UNL     1      19.620  12.831  24.717  1.00  0.00     0.233 C
BRANCH  23  24
HETATM   24  N4  UNL     1      18.871  12.911  23.505  1.00  0.00    -0.079 N
ATOM     25  H43 UNL     1      19.463  13.148  22.709  1.00  0.00     0.274 HD
ATOM     26  H42 UNL     1      18.558  11.992  23.192  1.00  0.00     0.274 HD
ATOM     27  H41 UNL     1      18.093  13.563  23.606  1.00  0.00     0.274 HD
ENDBRANCH  23  24
ENDBRANCH  22  23
ENDBRANCH  21  22
ENDBRANCH   1  21
BRANCH   2  28
HETATM   28  O1  UNL     1      16.319  12.594  28.422  1.00  0.00    -0.344 OA
ATOM     29  H1  UNL     1      16.213  11.727  28.796  1.00  0.00     0.219 HD
ENDBRANCH   2  28
BRANCH   2  30
HETATM   30  N5  UNL     1      17.954  12.646  29.993  1.00  0.00    -0.292 N
HETATM   31  C16 UNL     1      17.860  11.260  30.568  1.00  0.00     0.136 C
HETATM   32  C17 UNL     1      16.732  10.972  31.467  1.00  0.00     0.039 C
HETATM   33  C18 UNL     1      16.702  11.389  32.883  1.00  0.00     0.115 C
HETATM   34  N6  UNL     1      15.854  12.469  33.250  1.00  0.00    -0.418 N
HETATM   35  C19 UNL     1      16.306  13.366  34.298  1.00  0.00     0.142 C
ATOM     36  H6  UNL     1      14.954  12.608  32.791  1.00  0.00     0.153 HD
HETATM   37  C20 UNL     1      15.948  14.773  34.138  1.00  0.00     0.009 C
HETATM   38  C21 UNL     1      16.845  15.913  34.292  1.00  0.00     0.080 C
HETATM   39  N7  UNL     1      18.181  15.955  33.962  1.00  0.00    -0.399 N
HETATM   40  C22 UNL     1      18.690  16.754  32.883  1.00  0.00     0.120 C
ATOM     41  H7  UNL     1      18.837  15.395  34.507  1.00  0.00     0.158 HD
HETATM   42  C23 UNL     1      20.072  16.504  32.385  1.00  0.00     0.039 C
HETATM   43  C24 UNL     1      20.309  15.478  31.294  1.00  0.00     0.127 C
HETATM   44  N8  UNL     1      19.480  14.263  31.544  1.00  0.00    -0.351 N
HETATM   45  C25 UNL     1      19.971  13.707  32.754  1.00  0.00     0.153 C
HETATM   46  C26 UNL     1      18.425  13.727  30.832  1.00  0.00     0.223 C
BRANCH  46  47
HETATM   47  O2  UNL     1      17.363  14.495  30.927  1.00  0.00    -0.332 OA
ATOM     48  H2  UNL     1      17.686  15.229  31.436  1.00  0.00     0.221 HD
ENDBRANCH  46  47
ENDBRANCH   2  30
TORSDOF 14
ENDMDL