MODEL 5
REMARK VINA RESULT: -7.145289444      2.868      7.598
REMARK  12 active torsions:
REMARK  status: ('A' for Active; 'I' for Inactive)
REMARK    1  A    between atoms: N1_1  and  C1_5
REMARK    2  A    between atoms: C1_5  and  C2_6
REMARK    3  A    between atoms: C2_6  and  C3_7
REMARK    4  A    between atoms: C3_7  and  C4_8
REMARK    5  A    between atoms: C4_8  and  C5_9
REMARK    6  A    between atoms: C15_19  and  C16_20
REMARK    7  A    between atoms: C18_26  and  C19_27
REMARK    8  A    between atoms: C19_27  and  C20_28
REMARK    9  A    between atoms: C20_28  and  C21_29
REMARK   10  A    between atoms: C23_36  and  N5_37
REMARK       I    between atoms: N5_37  and  C24_39
REMARK   11  A    between atoms: C24_39  and  C25_41
REMARK   12  A    between atoms: C25_41  and  N6_42
ROOT
HETATM    1  C5  UNL     1      16.759  16.569  26.260  1.00  0.00     0.018 C
HETATM    2  C6  UNL     1      17.310  17.384  25.197  1.00  0.00     0.007 C
HETATM    3  C7  UNL     1      18.759  17.786  25.246  1.00  0.00     0.000 C
HETATM    4  C8  UNL     1      18.986  19.088  26.005  1.00  0.00     0.000 C
HETATM    5  C9  UNL     1      19.853  19.995  25.210  1.00  0.00     0.000 C
HETATM    6  C10 UNL     1      19.740  21.442  25.417  1.00  0.00     0.000 C
HETATM    7  C11 UNL     1      18.984  21.934  26.592  1.00  0.00     0.000 C
HETATM    8  C12 UNL     1      19.477  21.292  27.863  1.00  0.00     0.000 C
HETATM    9  C13 UNL     1      19.677  22.250  29.004  1.00  0.00     0.002 C
HETATM   10  C14 UNL     1      20.530  21.596  30.030  1.00  0.00     0.032 C
HETATM   11  C15 UNL     1      20.351  20.103  30.186  1.00  0.00     0.146 C
HETATM   12  N2  UNL     1      19.210  19.750  30.969  1.00  0.00    -0.349 N
ATOM     13  H2  UNL     1      19.108  20.257  31.848  1.00  0.00     0.163 HD
HETATM   14  C17 UNL     1      18.215  18.810  30.704  1.00  0.00     0.241 C
HETATM   15  O2  UNL     1      16.991  19.166  30.812  1.00  0.00    -0.271 OA
HETATM   16  C18 UNL     1      18.452  17.375  30.291  1.00  0.00     0.177 C
HETATM   17  N4  UNL     1      17.249  16.870  29.640  1.00  0.00    -0.346 N
ATOM     18  H4  UNL     1      16.374  17.268  29.980  1.00  0.00     0.163 HD
HETATM   19  C22 UNL     1      17.114  15.936  28.634  1.00  0.00     0.241 C
HETATM   20  O4  UNL     1      16.381  14.908  28.868  1.00  0.00    -0.271 OA
HETATM   21  C23 UNL     1      17.733  15.969  27.256  1.00  0.00     0.180 C
ENDROOT
BRANCH  21  22
HETATM   22  N5  UNL     1      18.067  14.646  26.859  1.00  0.00    -0.346 N
HETATM   23  C24 UNL     1      19.384  14.220  26.519  1.00  0.00     0.243 C
HETATM   24  O5  UNL     1      20.364  14.996  26.550  1.00  0.00    -0.272 OA
ATOM     25  H5  UNL     1      17.316  13.957  26.814  1.00  0.00     0.163 HD
BRANCH  23  26
HETATM   26  C25 UNL     1      19.665  12.819  26.105  1.00  0.00     0.332 C
BRANCH  26  27
HETATM   27  N6  UNL     1      19.237  12.556  24.759  1.00  0.00    -0.071 N
ATOM     28  H63 UNL     1      18.240  12.346  24.723  1.00  0.00     0.274 HD
ATOM     29  H62 UNL     1      19.243  13.408  24.197  1.00  0.00     0.274 HD
ATOM     30  H61 UNL     1      19.786  11.818  24.318  1.00  0.00     0.274 HD
ENDBRANCH  26  27
ENDBRANCH  23  26
ENDBRANCH  21  22
BRANCH   1  31
HETATM   31  C4  UNL     1      15.804  15.536  25.795  1.00  0.00     0.007 C
BRANCH  31  32
HETATM   32  C3  UNL     1      14.385  15.833  25.547  1.00  0.00     0.002 C
BRANCH  32  33
HETATM   33  C2  UNL     1      13.756  16.864  26.385  1.00  0.00     0.027 C
BRANCH  33  34
HETATM   34  C1  UNL     1      12.838  16.219  27.453  1.00  0.00     0.229 C
BRANCH  34  35
HETATM   35  N1  UNL     1      13.623  15.881  28.614  1.00  0.00    -0.079 N
ATOM     36  H13 UNL     1      14.408  15.272  28.386  1.00  0.00     0.274 HD
ATOM     37  H12 UNL     1      14.154  16.677  28.967  1.00  0.00     0.274 HD
ATOM     38  H11 UNL     1      13.014  15.476  29.326  1.00  0.00     0.274 HD
ENDBRANCH  34  35
ENDBRANCH  33  34
ENDBRANCH  32  33
ENDBRANCH  31  32
ENDBRANCH   1  31
BRANCH  16  39
HETATM   39  C19 UNL     1      18.646  16.647  31.605  1.00  0.00     0.043 C
BRANCH  39  40
HETATM   40  C20 UNL     1      20.026  16.620  32.135  1.00  0.00     0.102 C
BRANCH  40  41
HETATM   41  C21 UNL     1      20.197  17.128  33.504  1.00  0.00     0.231 C
HETATM   42  N3  UNL     1      20.597  16.214  34.536  1.00  0.00    -0.062 NA
HETATM   43  O3  UNL     1      19.994  18.339  33.749  1.00  0.00    -0.277 OA
ENDBRANCH  40  41
ENDBRANCH  39  40
ENDBRANCH  16  39
BRANCH  11  44
HETATM   44  C16 UNL     1      21.577  19.658  30.899  1.00  0.00     0.256 C
HETATM   45  O1  UNL     1      22.019  20.360  31.783  1.00  0.00    -0.305 OA
ENDBRANCH  11  44
TORSDOF 12
ENDMDL