MODEL 4
REMARK VINA RESULT: -6.463685076      3.052      4.729
REMARK  14 active torsions:
REMARK  status: ('A' for Active; 'I' for Inactive)
REMARK    1  A    between atoms: C9_9  and  N1_10
REMARK       I    between atoms: N1_10  and  C10_12
REMARK    2  A    between atoms: C10_12  and  C11_14
REMARK    3  A    between atoms: C11_14  and  C12_15
REMARK    4  A    between atoms: C11_14  and  N3_23
REMARK    5  A    between atoms: C12_15  and  C13_16
REMARK    6  A    between atoms: C13_16  and  C14_17
REMARK    7  A    between atoms: C14_17  and  C15_18
REMARK    8  A    between atoms: C15_18  and  N2_19
REMARK    9  A    between atoms: N3_23  and  S1_25
REMARK   10  A    between atoms: S1_25  and  N4_28
REMARK   11  A    between atoms: N4_28  and  C16_30
REMARK   12  A    between atoms: C16_30  and  C17_31
REMARK   13  A    between atoms: C16_30  and  C18_38
REMARK       I    between atoms: C17_31  and  N5_33
REMARK   14  A    between atoms: N5_33  and  N6_35
ROOT
HETATM    1  C11 UNL     1      19.300  19.581  28.491  1.00  0.00     0.186 C
ENDROOT
BRANCH   1   2
HETATM    2  C10 UNL     1      20.689  19.149  28.907  1.00  0.00     0.241 C
HETATM    3  N1  UNL     1      21.252  18.050  28.203  1.00  0.00    -0.350 N
ATOM      4  H1  UNL     1      20.707  17.610  27.462  1.00  0.00     0.163 HD
HETATM    5  O1  UNL     1      21.293  19.735  29.821  1.00  0.00    -0.271 OA
BRANCH   3   6
HETATM    6  C9  UNL     1      22.572  17.532  28.499  1.00  0.00     0.034 C
HETATM    7  C8  UNL     1      23.121  16.870  27.244  1.00  0.00     0.036 C
HETATM    8  C7  UNL     1      24.463  16.245  27.460  1.00  0.00    -0.008 C
HETATM    9  C2  UNL     1      25.410  17.335  27.906  1.00  0.00    -0.010 C
HETATM   10  C6  UNL     1      24.350  15.202  28.526  1.00  0.00     0.010 C
HETATM   11  C1  UNL     1      26.829  16.871  28.056  1.00  0.00     0.011 C
HETATM   12  C3  UNL     1      24.880  17.924  29.179  1.00  0.00    -0.008 C
HETATM   13  C4  UNL     1      24.726  16.912  30.268  1.00  0.00     0.010 C
HETATM   14  C23 UNL     1      23.544  18.585  28.921  1.00  0.00     0.036 C
HETATM   15  C5  UNL     1      23.797  15.813  29.782  1.00  0.00    -0.012 C
HETATM   16  C22 UNL     1      22.440  16.455  29.547  1.00  0.00     0.035 C
ENDBRANCH   3   6
ENDBRANCH   1   2
BRANCH   1  17
HETATM   17  C12 UNL     1      19.513  20.855  27.715  1.00  0.00     0.035 C
BRANCH  17  18
HETATM   18  C13 UNL     1      19.084  22.062  28.474  1.00  0.00     0.004 C
BRANCH  18  19
HETATM   19  C14 UNL     1      20.300  22.827  28.950  1.00  0.00     0.027 C
BRANCH  19  20
HETATM   20  C15 UNL     1      20.200  23.156  30.436  1.00  0.00     0.229 C
BRANCH  20  21
HETATM   21  N2  UNL     1      21.048  22.272  31.201  1.00  0.00    -0.079 N
ATOM     22  H23 UNL     1      20.689  21.317  31.212  1.00  0.00     0.274 HD
ATOM     23  H22 UNL     1      21.935  22.093  30.730  1.00  0.00     0.274 HD
ATOM     24  H21 UNL     1      21.183  22.640  32.142  1.00  0.00     0.274 HD
ENDBRANCH  20  21
ENDBRANCH  19  20
ENDBRANCH  18  19
ENDBRANCH  17  18
ENDBRANCH   1  17
BRANCH   1  25
HETATM   25  N3  UNL     1      18.576  19.821  29.705  1.00  0.00    -0.289 N
ATOM     26  H3  UNL     1      18.408  20.751  30.088  1.00  0.00     0.174 HD
BRANCH  25  27
HETATM   27  S1  UNL     1      18.018  18.371  30.448  1.00  0.00     0.316 S
HETATM   28  O2  UNL     1      17.430  17.475  29.361  1.00  0.00    -0.183 OA
HETATM   29  O3  UNL     1      16.845  18.750  31.307  1.00  0.00    -0.183 OA
BRANCH  27  30
HETATM   30  N4  UNL     1      19.265  17.614  31.271  1.00  0.00    -0.288 N
ATOM     31  H4  UNL     1      19.876  16.939  30.810  1.00  0.00     0.174 HD
BRANCH  30  32
HETATM   32  C16 UNL     1      19.438  17.963  32.673  1.00  0.00     0.195 C
BRANCH  32  33
HETATM   33  C17 UNL     1      20.545  18.933  32.832  1.00  0.00     0.259 C
HETATM   34  O4  UNL     1      20.313  20.022  33.407  1.00  0.00    -0.269 OA
HETATM   35  N5  UNL     1      21.838  18.673  32.369  1.00  0.00    -0.275 N
ATOM     36  H5  UNL     1      22.072  17.796  31.902  1.00  0.00     0.189 HD
BRANCH  35  37
HETATM   37  N6  UNL     1      22.819  19.697  32.580  1.00  0.00    -0.343 N
ATOM     38  H62 UNL     1      23.587  19.825  31.922  1.00  0.00     0.176 HD
ATOM     39  H61 UNL     1      22.706  20.277  33.411  1.00  0.00     0.176 HD
ENDBRANCH  35  37
ENDBRANCH  32  33
BRANCH  32  40
HETATM   40  C18 UNL     1      19.617  16.683  33.442  1.00  0.00    -0.021 C
HETATM   41  C19 UNL     1      18.221  16.203  33.846  1.00  0.00     0.017 C
HETATM   42  C20 UNL     1      20.204  15.583  32.587  1.00  0.00     0.017 C
HETATM   43  C21 UNL     1      20.362  16.843  34.741  1.00  0.00     0.017 C
ENDBRANCH  32  40
ENDBRANCH  30  32
ENDBRANCH  27  30
ENDBRANCH  25  27
ENDBRANCH   1  25
TORSDOF 14
ENDMDL