MODEL 1
REMARK VINA RESULT: -7.084991419      0.000      0.000
REMARK  7 active torsions:
REMARK  status: ('A' for Active; 'I' for Inactive)
REMARK    1  A    between atoms: C2_2  and  N1_3
REMARK    2  A    between atoms: N1_3  and  C3_4
REMARK    3  A    between atoms: N1_3  and  C5_8
REMARK    4  A    between atoms: C3_4  and  C4_5
REMARK    5  A    between atoms: C15_18  and  C17_20
REMARK    6  A    between atoms: C17_20  and  N2_21
REMARK    7  A    between atoms: N2_21  and  S1_23
ROOT
HETATM    1  C5  UNL     1      84.095  59.909  13.389  1.00  0.00     0.010 C
HETATM    2  C6  UNL     1      84.765  61.107  14.134  1.00  0.00     0.068 C
HETATM    3  C7  UNL     1      82.691  60.141  13.389  1.00  0.00    -0.049 C
HETATM    4  C8  UNL     1      81.790  58.923  13.100  1.00  0.00     0.037 C
HETATM    5  C9  UNL     1      80.380  59.495  13.053  1.00  0.00     0.010 C
HETATM    6  C10 UNL     1      80.575  60.891  13.539  1.00  0.00     0.003 C
HETATM    7  C11 UNL     1      79.475  61.817  13.421  1.00  0.00    -0.001 C
HETATM    8  C12 UNL     1      78.280  61.368  12.571  1.00  0.00     0.033 C
HETATM    9  C13 UNL     1      77.131  62.277  12.902  1.00  0.00    -0.022 C
HETATM   10  C14 UNL     1      77.360  63.605  12.872  1.00  0.00    -0.065 C
HETATM   11  C15 UNL     1      76.226  64.476  13.200  1.00  0.00    -0.004 C
HETATM   12  C16 UNL     1      75.014  63.999  12.426  1.00  0.00     0.021 C
HETATM   13  C19 UNL     1      76.435  65.923  12.898  1.00  0.00     0.015 C
HETATM   14  C20 UNL     1      77.753  66.275  12.281  1.00  0.00     0.002 C
HETATM   15  C21 UNL     1      78.821  65.512  12.992  1.00  0.00     0.014 C
HETATM   16  C22 UNL     1      78.731  64.054  12.504  1.00  0.00    -0.016 C
HETATM   17  C23 UNL     1      78.812  64.133  11.023  1.00  0.00     0.020 C
HETATM   18  C24 UNL     1      79.801  63.272  13.193  1.00  0.00     0.003 C
HETATM   19  C25 UNL     1      81.115  63.502  12.542  1.00  0.00     0.007 C
HETATM   20  C26 UNL     1      82.221  62.632  13.169  1.00  0.00     0.014 C
HETATM   21  C27 UNL     1      81.906  61.232  12.805  1.00  0.00    -0.015 C
HETATM   22  C28 UNL     1      81.675  61.154  11.317  1.00  0.00     0.020 C
ENDROOT
BRANCH   1  23
HETATM   23  N1  UNL     1      84.912  59.425  12.382  1.00  0.00    -0.354 N
BRANCH  23  24
HETATM   24  C2  UNL     1      85.729  58.300  12.791  1.00  0.00     0.124 C
HETATM   25  C1  UNL     1      85.123  56.948  12.669  1.00  0.00     0.027 C
ENDBRANCH  23  24
BRANCH  23  26
HETATM   26  C3  UNL     1      85.132  59.941  11.128  1.00  0.00     0.175 C
BRANCH  26  27
HETATM   27  C4  UNL     1      86.347  60.695  10.802  1.00  0.00     0.214 C
HETATM   28  O1  UNL     1      87.149  60.322   9.906  1.00  0.00    -0.643 OA
HETATM   29  O2  UNL     1      86.677  61.860  11.453  1.00  0.00    -0.643 OA
ENDBRANCH  26  27
ENDBRANCH  23  26
ENDBRANCH   1  23
BRANCH  11  30
HETATM   30  C17 UNL     1      75.913  64.248  14.680  1.00  0.00     0.145 C
BRANCH  30  31
HETATM   31  N2  UNL     1      76.163  65.403  15.468  1.00  0.00    -0.319 N
ATOM     32  H2  UNL     1      77.088  65.832  15.521  1.00  0.00     0.172 HD
BRANCH  31  33
HETATM   33  S1  UNL     1      74.834  66.026  16.311  1.00  0.00     0.222 S
HETATM   34  C18 UNL     1      73.307  65.880  15.407  1.00  0.00     0.185 C
HETATM   35  O3  UNL     1      75.066  67.520  16.500  1.00  0.00    -0.206 OA
HETATM   36  O4  UNL     1      74.687  65.456  17.692  1.00  0.00    -0.206 OA
ENDBRANCH  31  33
ENDBRANCH  30  31
ENDBRANCH  11  30
TORSDOF 7
ENDMDL