MODEL 3
REMARK VINA RESULT: -6.361029444      2.200      6.150
REMARK  7 active torsions:
REMARK  status: ('A' for Active; 'I' for Inactive)
REMARK    1  A    between atoms: C10_16  and  C11_17
REMARK    2  A    between atoms: N4_24  and  C16_25
REMARK    3  A    between atoms: C16_25  and  C17_26
REMARK    4  A    between atoms: C17_26  and  C18_27
REMARK    5  A    between atoms: C24_33  and  C25_34
REMARK    6  A    between atoms: C25_34  and  C26_35
REMARK    7  A    between atoms: C26_35  and  C27_36
ROOT
HETATM    1  O1  UNL     1      76.961  61.450  11.020  1.00  0.00    -0.271 OA
HETATM    2  C1  UNL     1      77.491  62.568  11.322  1.00  0.00     0.247 A
HETATM    3  N1  UNL     1      76.783  63.775  11.349  1.00  0.00    -0.325 N
ATOM      4  H1  UNL     1      75.786  63.893  11.169  1.00  0.00     0.169 HD
HETATM    5  C2  UNL     1      77.709  64.812  11.673  1.00  0.00     0.043 A
HETATM    6  C3  UNL     1      77.408  66.160  11.767  1.00  0.00     0.030 A
HETATM    7  C4  UNL     1      78.397  67.043  12.051  1.00  0.00     0.002 A
HETATM    8  C5  UNL     1      79.681  66.573  12.238  1.00  0.00     0.001 A
HETATM    9  C6  UNL     1      79.958  65.227  12.141  1.00  0.00     0.011 A
HETATM   10  C7  UNL     1      78.961  64.288  11.850  1.00  0.00    -0.002 A
HETATM   11  C8  UNL     1      78.904  62.851  11.698  1.00  0.00     0.181 A
HETATM   12  C9  UNL     1      79.713  62.487  10.497  1.00  0.00     0.244 C
HETATM   13  O2  UNL     1      80.030  63.360   9.641  1.00  0.00    -0.272 OA
HETATM   14  N2  UNL     1      80.102  61.128  10.370  1.00  0.00    -0.326 N
ATOM     15  H2  UNL     1      80.111  60.672   9.457  1.00  0.00     0.165 HD
HETATM   16  C10 UNL     1      80.483  60.406  11.556  1.00  0.00     0.360 C
HETATM   17  N4  UNL     1      80.490  61.252  12.730  1.00  0.00     0.123 N
HETATM   18  C24 UNL     1      79.303  62.019  12.896  1.00  0.00     0.258 C
ENDROOT
BRANCH  18  19
HETATM   19  C25 UNL     1      79.244  62.764  14.179  1.00  0.00     0.043 C
BRANCH  19  20
HETATM   20  C26 UNL     1      78.368  62.046  15.176  1.00  0.00     0.040 C
BRANCH  20  21
HETATM   21  C27 UNL     1      77.294  62.925  15.706  1.00  0.00    -0.058 A
HETATM   22  C28 UNL     1      76.881  62.778  17.002  1.00  0.00     0.007 A
HETATM   23  C29 UNL     1      75.890  63.605  17.482  1.00  0.00     0.001 A
HETATM   24  C30 UNL     1      75.298  64.575  16.705  1.00  0.00     0.000 A
HETATM   25  C31 UNL     1      75.745  64.686  15.408  1.00  0.00     0.001 A
HETATM   26  C32 UNL     1      76.734  63.874  14.901  1.00  0.00     0.007 A
ENDBRANCH  20  21
ENDBRANCH  19  20
ENDBRANCH  18  19
BRANCH  17  27
HETATM   27  C16 UNL     1      81.731  61.967  12.870  1.00  0.00     0.281 C
BRANCH  27  28
HETATM   28  C17 UNL     1      82.963  61.172  12.616  1.00  0.00     0.069 C
BRANCH  28  29
HETATM   29  C18 UNL     1      83.772  61.211  13.884  1.00  0.00    -0.057 A
HETATM   30  C19 UNL     1      83.604  62.224  14.793  1.00  0.00     0.007 A
HETATM   31  C20 UNL     1      84.337  62.283  15.972  1.00  0.00     0.001 A
HETATM   32  C21 UNL     1      85.258  61.289  16.226  1.00  0.00     0.000 A
HETATM   33  C22 UNL     1      85.438  60.267  15.324  1.00  0.00     0.001 A
HETATM   34  C23 UNL     1      84.700  60.231  14.165  1.00  0.00     0.007 A
ENDBRANCH  28  29
ENDBRANCH  27  28
ENDBRANCH  17  27
BRANCH  16  35
HETATM   35  C11 UNL     1      79.701  59.171  11.728  1.00  0.00     0.009 A
HETATM   36  C12 UNL     1      78.887  58.589  10.799  1.00  0.00     0.014 A
HETATM   37  C13 UNL     1      78.224  57.436  11.084  1.00  0.00     0.018 A
HETATM   38  C14 UNL     1      78.357  56.835  12.304  1.00  0.00     0.087 A
HETATM   39  N3  UNL     1      79.154  57.400  13.221  1.00  0.00    -0.375 N
HETATM   40  C15 UNL     1      79.811  58.532  12.957  1.00  0.00     0.098 A
ATOM     41  H3  UNL     1      79.260  56.958  14.134  1.00  0.00     0.164 HD
ENDBRANCH  16  35
TORSDOF 7
ENDMDL