MODEL 2
REMARK VINA RESULT: -6.542275205      0.877      1.159
REMARK  9 active torsions:
REMARK  status: ('A' for Active; 'I' for Inactive)
REMARK    1  A    between atoms: C3_3  and  C4_4
REMARK    2  A    between atoms: C14_14  and  O1_15
REMARK    3  A    between atoms: O1_15  and  C15_16
REMARK       I    between atoms: C15_16  and  N1_18
REMARK    4  A    between atoms: N1_18  and  C16_20
REMARK    5  A    between atoms: C16_20  and  C17_21
REMARK    6  A    between atoms: C17_21  and  N2_22
REMARK    7  A    between atoms: C23_31  and  C24_32
REMARK       I    between atoms: C24_32  and  N3_34
REMARK    8  A    between atoms: N3_34  and  C25_35
REMARK    9  A    between atoms: N3_34  and  C28_38
ROOT
HETATM    1  C1  UNL     1      78.603  57.222  12.563  1.00  0.00     0.112 C
HETATM    2  C2  UNL     1      79.635  58.237  12.350  1.00  0.00    -0.111 C
HETATM    3  C3  UNL     1      80.489  59.092  12.191  1.00  0.00    -0.101 C
ENDROOT
BRANCH   3   4
HETATM    4  C4  UNL     1      81.514  60.147  11.973  1.00  0.00     0.078 C
HETATM    5  C5  UNL     1      80.961  61.110  10.984  1.00  0.00     0.018 C
HETATM    6  C6  UNL     1      81.062  62.545  11.287  1.00  0.00     0.007 C
HETATM    7  C7  UNL     1      80.988  62.989  12.698  1.00  0.00    -0.005 C
HETATM    8  C8  UNL     1      79.692  63.586  13.109  1.00  0.00    -0.006 C
HETATM    9  C22 UNL     1      81.172  61.925  13.739  1.00  0.00     0.005 C
HETATM   10  C9  UNL     1      78.947  64.386  12.112  1.00  0.00     0.006 C
HETATM   11  C20 UNL     1      78.862  62.355  13.412  1.00  0.00    -0.005 C
HETATM   12  C10 UNL     1      77.746  64.969  12.874  1.00  0.00     0.010 C
HETATM   13  C11 UNL     1      76.921  63.956  13.544  1.00  0.00    -0.038 C
HETATM   14  C12 UNL     1      75.732  63.632  12.629  1.00  0.00     0.015 C
HETATM   15  C13 UNL     1      76.287  64.616  14.779  1.00  0.00     0.042 C
HETATM   16  C19 UNL     1      77.570  62.720  14.021  1.00  0.00     0.001 C
HETATM   17  C14 UNL     1      76.245  63.473  15.773  1.00  0.00     0.135 C
HETATM   18  C18 UNL     1      77.617  62.848  15.544  1.00  0.00     0.038 C
HETATM   19  C21 UNL     1      79.823  61.619  14.304  1.00  0.00     0.011 C
HETATM   20  C23 UNL     1      81.927  60.709  13.277  1.00  0.00     0.098 C
BRANCH  17  21
HETATM   21  O1  UNL     1      76.031  63.882  17.077  1.00  0.00    -0.299 OA
BRANCH  21  22
HETATM   22  C15 UNL     1      74.784  64.343  17.493  1.00  0.00     0.360 C
HETATM   23  O2  UNL     1      74.764  65.537  17.894  1.00  0.00    -0.239 OA
HETATM   24  N1  UNL     1      73.626  63.532  17.466  1.00  0.00    -0.335 N
ATOM     25  H1  UNL     1      73.708  62.571  17.132  1.00  0.00     0.164 HD
BRANCH  24  26
HETATM   26  C16 UNL     1      72.355  64.004  17.886  1.00  0.00     0.152 C
BRANCH  26  27
HETATM   27  C17 UNL     1      71.648  64.836  16.847  1.00  0.00     0.249 C
BRANCH  27  28
HETATM   28  N2  UNL     1      71.759  66.249  17.171  1.00  0.00    -0.078 N
ATOM     29  H23 UNL     1      71.122  66.519  17.920  1.00  0.00     0.274 HD
ATOM     30  H22 UNL     1      72.640  66.463  17.638  1.00  0.00     0.274 HD
ATOM     31  H21 UNL     1      71.625  66.816  16.334  1.00  0.00     0.274 HD
ENDBRANCH  27  28
ENDBRANCH  26  27
ENDBRANCH  24  26
ENDBRANCH  21  22
ENDBRANCH  17  21
BRANCH  20  32
HETATM   32  C24 UNL     1      83.365  61.069  13.248  1.00  0.00     0.226 C
HETATM   33  O3  UNL     1      83.735  62.189  13.786  1.00  0.00    -0.273 OA
HETATM   34  N3  UNL     1      84.427  60.321  12.685  1.00  0.00    -0.344 N
BRANCH  34  35
HETATM   35  C25 UNL     1      84.141  59.068  12.102  1.00  0.00     0.079 C
HETATM   36  C26 UNL     1      84.704  58.873  10.692  1.00  0.00     0.032 C
HETATM   37  C27 UNL     1      84.649  57.876  12.889  1.00  0.00     0.032 C
ENDBRANCH  34  35
BRANCH  34  38
HETATM   38  C28 UNL     1      85.769  60.898  12.748  1.00  0.00     0.079 C
HETATM   39  C29 UNL     1      86.348  61.217  11.400  1.00  0.00     0.032 C
HETATM   40  C30 UNL     1      86.714  60.121  13.627  1.00  0.00     0.032 C
ENDBRANCH  34  38
ENDBRANCH  20  32
ENDBRANCH   3   4
TORSDOF 9
ENDMDL