MODEL 4
REMARK VINA RESULT: -6.481432120      3.665      4.714
REMARK  8 active torsions:
REMARK  status: ('A' for Active; 'I' for Inactive)
REMARK       I    between atoms: C3_3  and  N1_5
REMARK    1  A    between atoms: C4_7  and  N2_8
REMARK    2  A    between atoms: C4_7  and  C13_22
REMARK    3  A    between atoms: N2_8  and  C5_10
REMARK    4  A    between atoms: C8_13  and  S1_14
REMARK    5  A    between atoms: S1_14  and  N3_17
REMARK    6  A    between atoms: C16_25  and  C17_26
REMARK       I    between atoms: C17_26  and  N4_28
REMARK    7  A    between atoms: N4_28  and  C18_30
REMARK    8  A    between atoms: C21_33  and  C22_34
ROOT
HETATM    1  C1  UNL     1      74.708  63.723  10.452  1.00  0.00     0.022 C
HETATM    2  C2  UNL     1      75.225  62.702  10.829  1.00  0.00    -0.016 C
HETATM    3  C3  UNL     1      75.836  61.477  11.264  1.00  0.00     0.301 C
HETATM    4  O1  UNL     1      75.128  60.441  11.401  1.00  0.00    -0.258 OA
HETATM    5  N1  UNL     1      77.213  61.396  11.543  1.00  0.00    -0.301 N
ATOM      6  H1  UNL     1      77.713  60.576  11.198  1.00  0.00     0.171 HD
HETATM    7  C4  UNL     1      77.885  62.256  12.189  1.00  0.00     0.119 C
ENDROOT
BRANCH   7   8
HETATM    8  N2  UNL     1      77.245  63.418  12.692  1.00  0.00    -0.342 N
ATOM      9  H2  UNL     1      77.045  64.210  12.082  1.00  0.00     0.167 HD
BRANCH   8  10
HETATM   10  C5  UNL     1      76.890  63.450  14.066  1.00  0.00     0.033 A
HETATM   11  C6  UNL     1      75.939  64.334  14.560  1.00  0.00     0.031 A
HETATM   12  C7  UNL     1      75.608  64.347  15.901  1.00  0.00     0.027 A
HETATM   13  C8  UNL     1      76.207  63.488  16.807  1.00  0.00     0.079 A
HETATM   14  C11 UNL     1      77.150  62.616  16.310  1.00  0.00     0.027 A
HETATM   15  C12 UNL     1      77.478  62.601  14.978  1.00  0.00     0.031 A
BRANCH  13  16
HETATM   16  S1  UNL     1      75.730  63.580  18.462  1.00  0.00     0.260 S
HETATM   17  O2  UNL     1      75.285  64.960  18.774  1.00  0.00    -0.200 OA
HETATM   18  O3  UNL     1      76.967  63.313  19.308  1.00  0.00    -0.200 OA
BRANCH  16  19
HETATM   19  N3  UNL     1      74.536  62.469  18.921  1.00  0.00    -0.315 N
HETATM   20  C9  UNL     1      73.890  61.800  17.826  1.00  0.00     0.162 C
HETATM   21  C10 UNL     1      73.665  62.899  19.956  1.00  0.00     0.162 C
ENDBRANCH  16  19
ENDBRANCH  13  16
ENDBRANCH   8  10
ENDBRANCH   7   8
BRANCH   7  22
HETATM   22  C13 UNL     1      79.312  62.106  12.441  1.00  0.00     0.008 A
HETATM   23  C14 UNL     1      80.191  63.168  12.344  1.00  0.00     0.016 A
HETATM   24  C15 UNL     1      81.549  62.976  12.596  1.00  0.00     0.018 A
HETATM   25  C16 UNL     1      82.017  61.729  12.941  1.00  0.00     0.032 A
HETATM   26  C26 UNL     1      81.179  60.676  13.041  1.00  0.00     0.018 A
HETATM   27  C27 UNL     1      79.824  60.879  12.788  1.00  0.00     0.016 A
BRANCH  25  28
HETATM   28  C17 UNL     1      83.460  61.548  13.192  1.00  0.00     0.256 C
HETATM   29  O4  UNL     1      83.984  62.281  14.084  1.00  0.00    -0.267 OA
HETATM   30  N4  UNL     1      84.161  60.601  12.456  1.00  0.00    -0.323 N
ATOM     31  H4  UNL     1      83.631  60.064  11.771  1.00  0.00     0.169 HD
BRANCH  30  32
HETATM   32  C18 UNL     1      85.537  60.315  12.569  1.00  0.00     0.035 A
HETATM   33  C19 UNL     1      86.084  59.362  13.376  1.00  0.00     0.030 A
HETATM   34  C20 UNL     1      87.474  59.133  13.407  1.00  0.00     0.009 A
HETATM   35  C21 UNL     1      88.350  59.853  12.633  1.00  0.00    -0.058 A
HETATM   36  C24 UNL     1      87.800  60.816  11.819  1.00  0.00     0.009 A
HETATM   37  C25 UNL     1      86.451  61.046  11.780  1.00  0.00     0.030 A
BRANCH  35  38
HETATM   38  C22 UNL     1      89.808  59.607  12.671  1.00  0.00     0.034 C
HETATM   39  C23 UNL     1      90.121  58.124  12.480  1.00  0.00     0.010 C
ENDBRANCH  35  38
ENDBRANCH  30  32
ENDBRANCH  25  28
ENDBRANCH   7  22
TORSDOF 8
ENDMDL