MODEL 4
REMARK VINA RESULT: -6.774840655      2.346      3.432
REMARK  7 active torsions:
REMARK  status: ('A' for Active; 'I' for Inactive)
REMARK    1  A    between atoms: C2_2  and  N1_3
REMARK    2  A    between atoms: N1_3  and  C3_6
REMARK    3  A    between atoms: C3_6  and  C4_7
REMARK    4  A    between atoms: C4_7  and  C5_8
REMARK    5  A    between atoms: C5_8  and  C7_10
REMARK    6  A    between atoms: C7_10  and  C8_11
REMARK    7  A    between atoms: C8_11  and  N2_12
ROOT
HETATM    1  N2  UNL     1      80.128  62.553  12.692  1.00  0.00    -0.348 N
HETATM    2  C9  UNL     1      79.679  62.328  14.019  1.00  0.00     0.160 C
HETATM    3  C10 UNL     1      78.334  62.888  14.338  1.00  0.00    -0.060 C
HETATM    4  C11 UNL     1      77.885  62.719  15.552  1.00  0.00    -0.021 C
HETATM    5  C12 UNL     1      76.598  63.173  16.108  1.00  0.00     0.033 C
HETATM    6  C13 UNL     1      75.750  63.940  15.074  1.00  0.00     0.004 C
HETATM    7  C14 UNL     1      75.772  65.321  15.596  1.00  0.00     0.016 C
HETATM    8  C15 UNL     1      74.821  65.148  16.796  1.00  0.00     0.034 C
HETATM    9  C16 UNL     1      73.564  65.180  15.963  1.00  0.00    -0.022 C
HETATM   10  C17 UNL     1      73.756  65.890  14.880  1.00  0.00    -0.060 C
HETATM   11  C18 UNL     1      72.871  66.239  13.758  1.00  0.00     0.034 C
HETATM   12  C19 UNL     1      72.990  67.766  13.779  1.00  0.00     0.131 C
HETATM   13  N3  UNL     1      73.495  68.218  15.106  1.00  0.00    -0.359 N
ATOM     14  H3  UNL     1      73.003  68.973  15.584  1.00  0.00     0.162 HD
HETATM   15  C20 UNL     1      74.642  67.638  15.742  1.00  0.00     0.230 C
HETATM   16  O1  UNL     1      75.136  68.069  16.741  1.00  0.00    -0.272 OA
HETATM   17  C21 UNL     1      75.113  66.441  14.976  1.00  0.00     0.065 C
HETATM   18  C22 UNL     1      75.827  67.130  13.896  1.00  0.00     0.031 C
HETATM   19  C23 UNL     1      73.231  65.520  12.558  1.00  0.00     0.015 C
HETATM   20  C24 UNL     1      73.761  64.133  12.860  1.00  0.00    -0.009 A
HETATM   21  C25 UNL     1      73.318  63.184  11.727  1.00  0.00     0.005 A
HETATM   22  C26 UNL     1      74.794  62.879  11.547  1.00  0.00     0.006 A
HETATM   23  C27 UNL     1      75.179  63.887  12.599  1.00  0.00    -0.001 A
HETATM   24  C28 UNL     1      76.051  63.461  13.733  1.00  0.00    -0.028 C
HETATM   25  C29 UNL     1      75.728  61.939  13.776  1.00  0.00     0.016 C
HETATM   26  C30 UNL     1      77.478  63.633  13.390  1.00  0.00     0.033 C
HETATM   27  C31 UNL     1      77.861  63.352  11.974  1.00  0.00     0.113 C
HETATM   28  C32 UNL     1      79.326  63.274  11.774  1.00  0.00     0.220 C
HETATM   29  O2  UNL     1      79.884  63.834  10.804  1.00  0.00    -0.273 OA
ENDROOT
BRANCH   1  30
HETATM   30  C8  UNL     1      81.409  62.060  12.227  1.00  0.00     0.126 C
BRANCH  30  31
HETATM   31  C7  UNL     1      82.478  62.101  13.291  1.00  0.00     0.024 C
BRANCH  31  32
HETATM   32  C5  UNL     1      83.228  60.806  13.300  1.00  0.00    -0.015 C
HETATM   33  C6  UNL     1      82.707  59.942  12.170  1.00  0.00     0.010 C
BRANCH  32  34
HETATM   34  C4  UNL     1      84.720  60.983  13.116  1.00  0.00     0.031 C
BRANCH  34  35
HETATM   35  C3  UNL     1      85.434  60.099  14.128  1.00  0.00     0.232 C
BRANCH  35  36
HETATM   36  N1  UNL     1      84.714  60.202  15.361  1.00  0.00    -0.075 N
ATOM     37  H12 UNL     1      84.483  59.276  15.721  1.00  0.00     0.277 HD
ATOM     38  H11 UNL     1      83.774  60.562  15.200  1.00  0.00     0.277 HD
BRANCH  36  39
HETATM   39  C2  UNL     1      85.391  60.981  16.364  1.00  0.00     0.228 C
HETATM   40  C1  UNL     1      84.679  62.326  16.509  1.00  0.00     0.034 C
ENDBRANCH  36  39
ENDBRANCH  35  36
ENDBRANCH  34  35
ENDBRANCH  32  34
ENDBRANCH  31  32
ENDBRANCH  30  31
ENDBRANCH   1  30
TORSDOF 7
ENDMDL