MODEL 1
REMARK VINA RESULT: -7.272930765      0.000      0.000
REMARK  8 active torsions:
REMARK  status: ('A' for Active; 'I' for Inactive)
REMARK    1  A    between atoms: C3_3  and  C4_4
REMARK    2  A    between atoms: C7_7  and  C8_8
REMARK    3  A    between atoms: C11_11  and  S1_12
REMARK    4  A    between atoms: S1_12  and  N1_15
REMARK    5  A    between atoms: C16_20  and  C17_21
REMARK       I    between atoms: C17_21  and  N2_23
REMARK    6  A    between atoms: N2_23  and  C18_25
REMARK    7  A    between atoms: C18_25  and  C19_26
REMARK    8  A    between atoms: N4_36  and  O4_37
ROOT
HETATM    1  C4  UNL     1      77.935  67.336  12.206  1.00  0.00    -0.035 A
HETATM    2  C5  UNL     1      79.212  67.337  11.734  1.00  0.00     0.012 A
HETATM    3  C6  UNL     1      79.937  66.172  11.768  1.00  0.00     0.014 A
HETATM    4  C7  UNL     1      79.423  64.957  12.273  1.00  0.00    -0.010 A
HETATM    5  C16 UNL     1      78.164  64.989  12.734  1.00  0.00     0.044 A
HETATM    6  C27 UNL     1      77.405  66.189  12.702  1.00  0.00     0.029 A
ENDROOT
BRANCH   5   7
HETATM    7  C17 UNL     1      77.515  63.877  13.401  1.00  0.00     0.256 C
HETATM    8  O3  UNL     1      76.815  63.144  12.647  1.00  0.00    -0.267 OA
HETATM    9  N2  UNL     1      77.605  63.606  14.755  1.00  0.00    -0.332 N
ATOM     10  H2  UNL     1      78.194  64.255  15.278  1.00  0.00     0.168 HD
BRANCH   9  11
HETATM   11  C18 UNL     1      77.014  62.577  15.544  1.00  0.00     0.119 C
BRANCH  11  12
HETATM   12  C19 UNL     1      75.587  62.369  15.698  1.00  0.00     0.156 C
HETATM   13  C20 UNL     1      75.141  61.122  14.877  1.00  0.00     0.071 C
HETATM   14  N3  UNL     1      75.353  61.915  17.085  1.00  0.00    -0.383 N
HETATM   15  C21 UNL     1      75.413  62.928  18.066  1.00  0.00     0.026 C
ATOM     16  H3  UNL     1      75.162  60.940  17.317  1.00  0.00     0.157 HD
HETATM   17  C22 UNL     1      74.301  62.602  19.088  1.00  0.00     0.038 C
HETATM   18  C23 UNL     1      76.762  62.911  18.810  1.00  0.00     0.038 C
HETATM   19  C24 UNL     1      75.142  64.320  17.584  1.00  0.00     0.084 C
HETATM   20  C25 UNL     1      74.487  64.340  16.288  1.00  0.00     0.014 C
HETATM   21  C26 UNL     1      73.536  65.432  15.937  1.00  0.00     0.066 C
HETATM   22  N4  UNL     1      74.698  63.427  15.410  1.00  0.00    -0.235 N
BRANCH  22  23
HETATM   23  O4  UNL     1      74.004  63.474  14.197  1.00  0.00    -0.285 OA
ATOM     24  H4  UNL     1      73.203  62.978  14.073  1.00  0.00     0.245 HD
ENDBRANCH  22  23
ENDBRANCH  11  12
ENDBRANCH   9  11
ENDBRANCH   5   7
BRANCH   4  25
HETATM   25  C8  UNL     1      80.275  63.783  12.138  1.00  0.00    -0.025 A
HETATM   26  C9  UNL     1      80.211  62.911  11.059  1.00  0.00     0.014 A
HETATM   27  C10 UNL     1      80.957  61.754  10.994  1.00  0.00     0.026 A
HETATM   28  C11 UNL     1      81.815  61.402  12.014  1.00  0.00     0.079 A
HETATM   29  C14 UNL     1      81.898  62.251  13.098  1.00  0.00     0.026 A
HETATM   30  C15 UNL     1      81.138  63.419  13.147  1.00  0.00     0.014 A
BRANCH  28  31
HETATM   31  S1  UNL     1      82.776  59.919  11.960  1.00  0.00     0.260 S
HETATM   32  O1  UNL     1      82.094  58.902  12.823  1.00  0.00    -0.200 OA
HETATM   33  O2  UNL     1      82.809  59.367  10.561  1.00  0.00    -0.200 OA
BRANCH  31  34
HETATM   34  N1  UNL     1      84.350  60.146  12.496  1.00  0.00    -0.315 N
HETATM   35  C12 UNL     1      85.369  60.382  11.560  1.00  0.00     0.162 C
HETATM   36  C13 UNL     1      84.672  59.834  13.827  1.00  0.00     0.162 C
ENDBRANCH  31  34
ENDBRANCH  28  31
ENDBRANCH   4  25
BRANCH   1  37
HETATM   37  C3  UNL     1      77.100  68.546  12.203  1.00  0.00     0.007 C
HETATM   38  C2  UNL     1      76.651  69.058  13.316  1.00  0.00    -0.030 C
HETATM   39  C1  UNL     1      75.799  70.303  13.232  1.00  0.00     0.036 C
ENDBRANCH   1  37
TORSDOF 8
ENDMDL