MODEL 5
REMARK VINA RESULT: -6.213522678      5.329      7.352
REMARK  11 active torsions:
REMARK  status: ('A' for Active; 'I' for Inactive)
REMARK    1  A    between atoms: C2_2  and  N1_3
REMARK    2  A    between atoms: N1_3  and  C3_4
REMARK    3  A    between atoms: N1_3  and  C12_19
REMARK    4  A    between atoms: C3_4  and  C4_5
REMARK    5  A    between atoms: C6_7  and  S1_8
REMARK    6  A    between atoms: S1_8  and  N2_9
REMARK    7  A    between atoms: C12_19  and  O3_20
REMARK    8  A    between atoms: C12_19  and  C13_22
REMARK    9  A    between atoms: C13_22  and  N3_23
REMARK   10  A    between atoms: C13_22  and  C24_36
REMARK       I    between atoms: N3_23  and  C14_25
REMARK   11  A    between atoms: C14_25  and  C15_27
ROOT
HETATM    1  C12 UNL     1      80.328  57.457  12.000  1.00  0.00     0.141 C
ENDROOT
BRANCH   1   2
HETATM    2  N1  UNL     1      81.062  56.289  12.209  1.00  0.00    -0.339 N
BRANCH   2   3
HETATM    3  C2  UNL     1      80.294  55.076  12.539  1.00  0.00     0.126 C
HETATM    4  C1  UNL     1      80.279  54.035  11.476  1.00  0.00     0.027 C
ENDBRANCH   2   3
BRANCH   2   5
HETATM    5  C3  UNL     1      82.459  56.187  12.204  1.00  0.00     0.104 C
BRANCH   5   6
HETATM    6  C4  UNL     1      83.373  57.270  11.973  1.00  0.00    -0.013 A
HETATM    7  C5  UNL     1      83.816  58.224  12.829  1.00  0.00     0.039 A
HETATM    8  C6  UNL     1      84.688  59.256  12.474  1.00  0.00     0.086 A
HETATM    9  C7  UNL     1      85.147  59.345  11.199  1.00  0.00    -0.038 A
HETATM   10  C8  UNL     1      86.089  60.434  10.806  1.00  0.00     0.050 C
HETATM   11  C9  UNL     1      84.715  58.380  10.275  1.00  0.00     0.015 A
HETATM   12  C10 UNL     1      83.856  57.376  10.645  1.00  0.00    -0.050 A
HETATM   13  C11 UNL     1      83.438  56.409   9.637  1.00  0.00     0.049 C
BRANCH   8  14
HETATM   14  S1  UNL     1      85.207  60.421  13.674  1.00  0.00     0.257 S
HETATM   15  O1  UNL     1      84.845  61.817  13.334  1.00  0.00    -0.201 OA
HETATM   16  O2  UNL     1      86.704  60.320  13.823  1.00  0.00    -0.201 OA
BRANCH  14  17
HETATM   17  N2  UNL     1      84.521  60.041  15.228  1.00  0.00    -0.324 N
ATOM     18  H22 UNL     1      84.255  59.100  15.518  1.00  0.00     0.169 HD
ATOM     19  H21 UNL     1      84.428  60.885  15.793  1.00  0.00     0.169 HD
ENDBRANCH  14  17
ENDBRANCH   8  14
ENDBRANCH   5   6
ENDBRANCH   2   5
ENDBRANCH   1   2
BRANCH   1  20
HETATM   20  O3  UNL     1      79.764  57.936  13.077  1.00  0.00    -0.348 OA
ATOM     21  H3  UNL     1      80.155  58.741  13.396  1.00  0.00     0.219 HD
ENDBRANCH   1  20
BRANCH   1  22
HETATM   22  C13 UNL     1      80.119  58.242  10.738  1.00  0.00     0.167 C
BRANCH  22  23
HETATM   23  N3  UNL     1      79.767  59.630  11.174  1.00  0.00    -0.344 N
HETATM   24  C14 UNL     1      80.690  60.676  10.998  1.00  0.00     0.253 C
HETATM   25  O4  UNL     1      81.844  60.429  10.455  1.00  0.00    -0.268 OA
ATOM     26  H3  UNL     1      78.858  59.817  11.598  1.00  0.00     0.163 HD
BRANCH  24  27
HETATM   27  C15 UNL     1      80.517  62.053  11.371  1.00  0.00     0.043 A
HETATM   28  C16 UNL     1      79.920  62.948  10.530  1.00  0.00    -0.045 A
HETATM   29  C17 UNL     1      79.542  62.655   9.108  1.00  0.00     0.049 C
HETATM   30  C18 UNL     1      79.668  64.268  10.910  1.00  0.00     0.014 A
HETATM   31  C19 UNL     1      80.017  64.710  12.160  1.00  0.00    -0.061 A
HETATM   32  C20 UNL     1      79.767  66.125  12.584  1.00  0.00     0.048 C
HETATM   33  C21 UNL     1      80.624  63.796  13.011  1.00  0.00     0.014 A
HETATM   34  C22 UNL     1      80.876  62.498  12.648  1.00  0.00    -0.045 A
HETATM   35  C23 UNL     1      81.512  61.612  13.660  1.00  0.00     0.049 C
ENDBRANCH  24  27
ENDBRANCH  22  23
BRANCH  22  36
HETATM   36  C24 UNL     1      79.105  57.744   9.807  1.00  0.00    -0.023 C
HETATM   37  C25 UNL     1      78.523  58.806   8.893  1.00  0.00     0.017 C
HETATM   38  C26 UNL     1      77.963  57.018  10.415  1.00  0.00     0.017 C
HETATM   39  C27 UNL     1      79.794  56.725   8.878  1.00  0.00     0.017 C
ENDBRANCH  22  36
ENDBRANCH   1  22
TORSDOF 11
ENDMDL