MODEL 5
REMARK VINA RESULT: -7.884950633      4.128      8.576
REMARK  7 active torsions:
REMARK  status: ('A' for Active; 'I' for Inactive)
REMARK    1  A    between atoms: C9_10  and  C10_11
REMARK    2  A    between atoms: C10_11  and  N1_12
REMARK       I    between atoms: N1_12  and  C11_14
REMARK    3  A    between atoms: C11_14  and  C12_16
REMARK    4  A    between atoms: C12_16  and  C13_17
REMARK    5  A    between atoms: C13_17  and  C14_18
REMARK    6  A    between atoms: C17_21  and  C18_22
REMARK    7  A    between atoms: C18_22  and  N2_23
ROOT
HETATM    1  C14 UNL     1      80.563  63.987  12.049  1.00  0.00    -0.058 A
HETATM    2  C15 UNL     1      80.300  65.188  12.672  1.00  0.00     0.007 A
HETATM    3  C16 UNL     1      79.455  66.135  12.081  1.00  0.00     0.009 A
HETATM    4  C17 UNL     1      78.856  65.904  10.857  1.00  0.00    -0.040 A
HETATM    5  C27 UNL     1      79.138  64.682  10.247  1.00  0.00     0.009 A
HETATM    6  C28 UNL     1      79.969  63.750  10.829  1.00  0.00     0.007 A
ENDROOT
BRANCH   1   7
HETATM    7  C13 UNL     1      81.451  62.963  12.660  1.00  0.00     0.047 C
BRANCH   7   8
HETATM    8  C12 UNL     1      80.862  61.615  12.267  1.00  0.00     0.107 C
BRANCH   8   9
HETATM    9  C11 UNL     1      79.729  61.311  13.185  1.00  0.00     0.218 C
HETATM   10  N1  UNL     1      78.446  61.073  12.569  1.00  0.00    -0.357 N
ATOM     11  H1  UNL     1      78.332  61.114  11.556  1.00  0.00     0.162 HD
HETATM   12  O2  UNL     1      79.880  61.266  14.421  1.00  0.00    -0.274 OA
BRANCH  10  13
HETATM   13  C10 UNL     1      77.341  60.779  13.420  1.00  0.00     0.161 C
BRANCH  13  14
HETATM   14  C9  UNL     1      76.819  61.993  14.109  1.00  0.00    -0.040 A
HETATM   15  C8  UNL     1      76.772  63.221  13.484  1.00  0.00     0.009 A
HETATM   16  C7  UNL     1      76.270  64.313  14.190  1.00  0.00     0.009 A
HETATM   17  C6  UNL     1      75.824  64.183  15.497  1.00  0.00    -0.044 A
HETATM   18  C5  UNL     1      75.267  65.216  16.402  1.00  0.00     0.118 C
HETATM   19  C30 UNL     1      75.863  62.963  16.139  1.00  0.00    -0.036 A
HETATM   20  C4  UNL     1      74.603  64.401  17.450  1.00  0.00     0.143 C
HETATM   21  C2  UNL     1      75.322  63.116  17.515  1.00  0.00     0.041 C
HETATM   22  O1  UNL     1      73.642  64.732  18.130  1.00  0.00    -0.296 OA
HETATM   23  C1  UNL     1      74.393  61.957  17.820  1.00  0.00     0.028 C
HETATM   24  C3  UNL     1      76.386  63.169  18.572  1.00  0.00     0.028 C
HETATM   25  C29 UNL     1      76.366  61.902  15.410  1.00  0.00     0.017 A
ENDBRANCH  13  14
ENDBRANCH  10  13
ENDBRANCH   8   9
ENDBRANCH   7   8
ENDBRANCH   1   7
BRANCH   4  26
HETATM   26  C18 UNL     1      77.957  66.839  10.182  1.00  0.00     0.175 C
BRANCH  26  27
HETATM   27  N2  UNL     1      77.283  67.695  11.107  1.00  0.00    -0.265 N
HETATM   28  C19 UNL     1      77.768  69.034  11.337  1.00  0.00     0.326 C
HETATM   29  O3  UNL     1      78.772  69.445  10.737  1.00  0.00    -0.247 OA
HETATM   30  N3  UNL     1      77.043  69.826  12.264  1.00  0.00    -0.333 N
HETATM   31  C20 UNL     1      75.685  69.442  12.584  1.00  0.00     0.043 C
ATOM     32  H3  UNL     1      77.469  70.647  12.695  1.00  0.00     0.165 HD
HETATM   33  C21 UNL     1      74.868  69.642  11.324  1.00  0.00     0.039 C
HETATM   34  C22 UNL     1      75.158  70.347  13.649  1.00  0.00     0.039 C
HETATM   35  C23 UNL     1      75.707  67.989  13.013  1.00  0.00     0.059 C
HETATM   36  C24 UNL     1      76.751  67.856  14.087  1.00  0.00     0.027 C
HETATM   37  C25 UNL     1      74.393  67.510  13.537  1.00  0.00     0.027 C
HETATM   38  C26 UNL     1      76.126  67.230  11.797  1.00  0.00     0.238 C
HETATM   39  O4  UNL     1      75.508  66.231  11.384  1.00  0.00    -0.272 OA
ENDBRANCH  26  27
ENDBRANCH   4  26
TORSDOF 7
ENDMDL