MODEL 3
REMARK VINA RESULT: -6.645298270      1.229      1.442
REMARK  7 active torsions:
REMARK  status: ('A' for Active; 'I' for Inactive)
REMARK    1  A    between atoms: C2_2  and  N1_3
REMARK    2  A    between atoms: N1_3  and  C3_4
REMARK    3  A    between atoms: N1_3  and  S1_6
REMARK    4  A    between atoms: S1_6  and  C5_9
REMARK    5  A    between atoms: C8_12  and  C9_13
REMARK    6  A    between atoms: C12_16  and  N2_17
REMARK       I    between atoms: N2_17  and  C13_19
REMARK    7  A    between atoms: C13_19  and  C14_21
ROOT
HETATM    1  C9  UNL     1      81.405  62.441  13.238  1.00  0.00    -0.026 A
HETATM    2  C10 UNL     1      81.050  63.444  12.376  1.00  0.00     0.014 A
HETATM    3  C11 UNL     1      79.839  64.130  12.551  1.00  0.00     0.030 A
HETATM    4  C12 UNL     1      78.970  63.837  13.571  1.00  0.00     0.035 A
HETATM    5  C24 UNL     1      79.374  62.804  14.432  1.00  0.00     0.030 A
HETATM    6  C25 UNL     1      80.539  62.136  14.273  1.00  0.00     0.014 A
ENDROOT
BRANCH   4   7
HETATM    7  N2  UNL     1      77.752  64.485  13.802  1.00  0.00    -0.323 N
HETATM    8  C13 UNL     1      76.480  64.008  13.562  1.00  0.00     0.256 C
HETATM    9  O3  UNL     1      76.264  62.865  13.049  1.00  0.00    -0.267 OA
ATOM     10  H2  UNL     1      77.811  65.423  14.195  1.00  0.00     0.169 HD
BRANCH   8  11
HETATM   11  C14 UNL     1      75.318  64.828  13.893  1.00  0.00     0.039 A
HETATM   12  C15 UNL     1      74.739  65.600  12.901  1.00  0.00     0.020 A
HETATM   13  C16 UNL     1      73.688  66.483  13.156  1.00  0.00     0.033 A
HETATM   14  C17 UNL     1      73.227  66.574  14.451  1.00  0.00     0.063 A
HETATM   15  N3  UNL     1      72.262  67.294  15.096  1.00  0.00    -0.296 N
HETATM   16  C20 UNL     1      73.808  65.803  15.421  1.00  0.00     0.052 A
HETATM   17  N4  UNL     1      72.265  66.970  16.402  1.00  0.00    -0.274 N
ATOM     18  H3  UNL     1      71.637  67.971  14.658  1.00  0.00     0.187 HD
HETATM   19  C18 UNL     1      71.387  67.532  17.370  1.00  0.00     0.180 C
HETATM   20  C19 UNL     1      73.215  66.051  16.621  1.00  0.00     0.172 A
HETATM   21  O4  UNL     1      73.724  65.326  17.718  1.00  0.00    -0.334 OA
HETATM   22  C23 UNL     1      75.123  64.931  17.598  1.00  0.00     0.182 C
HETATM   23  C22 UNL     1      75.268  64.088  16.324  1.00  0.00     0.067 C
HETATM   24  C21 UNL     1      74.855  64.915  15.181  1.00  0.00    -0.024 A
ENDBRANCH   8  11
ENDBRANCH   4   7
BRANCH   1  25
HETATM   25  C8  UNL     1      82.631  61.692  13.098  1.00  0.00    -0.026 A
HETATM   26  C7  UNL     1      83.646  61.876  14.038  1.00  0.00     0.014 A
HETATM   27  C6  UNL     1      84.827  61.185  13.983  1.00  0.00     0.025 A
HETATM   28  C5  UNL     1      85.051  60.274  12.982  1.00  0.00     0.074 A
HETATM   29  C27 UNL     1      84.082  60.067  12.041  1.00  0.00     0.025 A
HETATM   30  C26 UNL     1      82.874  60.775  12.099  1.00  0.00     0.014 A
BRANCH  28  31
HETATM   31  S1  UNL     1      86.546  59.405  12.941  1.00  0.00     0.243 S
HETATM   32  O1  UNL     1      86.772  58.515  14.113  1.00  0.00    -0.206 OA
HETATM   33  O2  UNL     1      87.691  60.414  12.967  1.00  0.00    -0.206 OA
BRANCH  31  34
HETATM   34  N1  UNL     1      86.685  58.578  11.445  1.00  0.00    -0.207 NA
BRANCH  34  35
HETATM   35  C2  UNL     1      87.053  57.200  11.561  1.00  0.00     0.103 C
HETATM   36  C1  UNL     1      85.836  56.336  11.504  1.00  0.00     0.021 C
ENDBRANCH  34  35
BRANCH  34  37
HETATM   37  C3  UNL     1      87.487  59.297  10.481  1.00  0.00     0.103 C
HETATM   38  C4  UNL     1      86.726  59.989   9.409  1.00  0.00     0.021 C
ENDBRANCH  34  37
ENDBRANCH  31  34
ENDBRANCH  28  31
ENDBRANCH   1  25
TORSDOF 7
ENDMDL