MODEL 4
REMARK VINA RESULT: -6.714378258      1.723      2.214
REMARK  9 active torsions:
REMARK  status: ('A' for Active; 'I' for Inactive)
REMARK    1  A    between atoms: N1_8  and  C8_9
REMARK    2  A    between atoms: C8_9  and  C9_10
REMARK    3  A    between atoms: C9_10  and  C10_11
REMARK    4  A    between atoms: C10_11  and  C11_12
REMARK    5  A    between atoms: C14_15  and  S1_16
REMARK    6  A    between atoms: S1_16  and  N2_19
REMARK    7  A    between atoms: N2_19  and  C15_21
REMARK    8  A    between atoms: C22_29  and  N3_31
REMARK       I    between atoms: N3_31  and  C24_33
REMARK    9  A    between atoms: C24_33  and  C25_35
ROOT
HETATM    1  C1  UNL     1      84.978  62.524  16.554  1.00  0.00     0.048 C
HETATM    2  C2  UNL     1      84.589  61.747  15.353  1.00  0.00    -0.060 A
HETATM    3  C3  UNL     1      85.241  60.564  15.104  1.00  0.00     0.007 A
HETATM    4  C4  UNL     1      84.939  59.790  14.012  1.00  0.00     0.013 A
HETATM    5  C5  UNL     1      83.972  60.145  13.103  1.00  0.00     0.006 A
HETATM    6  C6  UNL     1      83.299  61.331  13.334  1.00  0.00     0.047 A
HETATM    7  C7  UNL     1      83.618  62.118  14.456  1.00  0.00     0.037 A
HETATM    8  N1  UNL     1      82.305  61.502  12.339  1.00  0.00    -0.315 N
HETATM    9  C21 UNL     1      82.346  60.410  11.472  1.00  0.00     0.257 C
HETATM   10  O3  UNL     1      81.551  60.156  10.507  1.00  0.00    -0.270 OA
HETATM   11  C22 UNL     1      83.489  59.534  11.828  1.00  0.00     0.140 C
HETATM   12  C23 UNL     1      82.970  58.148  12.005  1.00  0.00     0.055 C
ENDROOT
BRANCH   8  13
HETATM   13  C8  UNL     1      81.413  62.621  12.217  1.00  0.00     0.132 C
BRANCH  13  14
HETATM   14  C9  UNL     1      80.166  62.556  13.021  1.00  0.00     0.025 C
BRANCH  14  15
HETATM   15  C10 UNL     1      79.057  61.722  12.488  1.00  0.00     0.040 C
BRANCH  15  16
HETATM   16  C11 UNL     1      77.942  61.788  13.471  1.00  0.00    -0.058 A
HETATM   17  C12 UNL     1      76.813  61.031  13.273  1.00  0.00     0.009 A
HETATM   18  C13 UNL     1      75.751  61.047  14.140  1.00  0.00     0.026 A
HETATM   19  C14 UNL     1      75.782  61.846  15.272  1.00  0.00     0.079 A
HETATM   20  C19 UNL     1      76.908  62.616  15.492  1.00  0.00     0.026 A
HETATM   21  C20 UNL     1      77.965  62.579  14.597  1.00  0.00     0.009 A
BRANCH  19  22
HETATM   22  S1  UNL     1      74.429  61.833  16.370  1.00  0.00     0.259 S
HETATM   23  O1  UNL     1      73.707  60.510  16.091  1.00  0.00    -0.201 OA
HETATM   24  O2  UNL     1      73.550  62.983  15.942  1.00  0.00    -0.201 OA
BRANCH  22  25
HETATM   25  N2  UNL     1      74.915  61.870  17.949  1.00  0.00    -0.307 N
ATOM     26  H2  UNL     1      74.938  60.985  18.456  1.00  0.00     0.173 HD
BRANCH  25  27
HETATM   27  C15 UNL     1      75.292  63.008  18.637  1.00  0.00     0.029 C
HETATM   28  C16 UNL     1      74.507  63.048  19.976  1.00  0.00     0.038 C
HETATM   29  C17 UNL     1      75.048  64.331  17.976  1.00  0.00     0.038 C
HETATM   30  C18 UNL     1      76.742  62.957  19.072  1.00  0.00     0.038 C
ENDBRANCH  25  27
ENDBRANCH  22  25
ENDBRANCH  19  22
ENDBRANCH  15  16
ENDBRANCH  14  15
ENDBRANCH  13  14
ENDBRANCH   8  13
BRANCH  11  31
HETATM   31  N3  UNL     1      84.434  59.667  10.736  1.00  0.00    -0.339 N
HETATM   32  C24 UNL     1      85.593  58.909  10.517  1.00  0.00     0.226 C
HETATM   33  O4  UNL     1      85.921  57.993  11.287  1.00  0.00    -0.273 OA
ATOM     34  H3  UNL     1      84.233  60.393  10.050  1.00  0.00     0.164 HD
BRANCH  32  35
HETATM   35  C25 UNL     1      86.506  59.148   9.353  1.00  0.00     0.030 C
HETATM   36  C26 UNL     1      86.168  60.440   8.650  1.00  0.00     0.024 C
HETATM   37  C27 UNL     1      86.440  58.021   8.356  1.00  0.00     0.024 C
HETATM   38  C28 UNL     1      87.947  59.282   9.838  1.00  0.00     0.024 C
ENDBRANCH  32  35
ENDBRANCH  11  31
TORSDOF 9
ENDMDL