MODEL 2
REMARK VINA RESULT: -6.764191977      1.140      1.589
REMARK  11 active torsions:
REMARK  status: ('A' for Active; 'I' for Inactive)
REMARK    1  A    between atoms: C5_5  and  N1_6
REMARK    2  A    between atoms: C8_9  and  N2_10
REMARK    3  A    between atoms: N2_10  and  C10_12
REMARK    4  A    between atoms: C10_12  and  O1_13
REMARK    5  A    between atoms: C10_12  and  N3_15
REMARK    6  A    between atoms: C14_19  and  C15_20
REMARK    7  A    between atoms: C15_20  and  C16_21
REMARK    8  A    between atoms: C16_21  and  N4_22
REMARK       I    between atoms: N4_22  and  C17_24
REMARK    9  A    between atoms: C17_24  and  C18_26
REMARK   10  A    between atoms: C21_29  and  C22_30
REMARK   11  A    between atoms: C22_30  and  N5_31
ROOT
HETATM    1  N3  UNL     1      77.337  66.430  11.990  1.00  0.00    -0.347 N
HETATM    2  C11 UNL     1      78.291  67.356  11.474  1.00  0.00     0.126 C
HETATM    3  C12 UNL     1      79.589  67.120  12.253  1.00  0.00     0.020 C
HETATM    4  C13 UNL     1      79.627  65.623  12.614  1.00  0.00     0.008 C
HETATM    5  C14 UNL     1      79.052  64.880  11.437  1.00  0.00     0.005 C
HETATM    6  C25 UNL     1      77.547  65.040  11.443  1.00  0.00     0.131 C
ENDROOT
BRANCH   1   7
HETATM    7  C10 UNL     1      76.335  66.666  12.913  1.00  0.00     0.217 C
BRANCH   7   8
HETATM    8  N2  UNL     1      75.194  66.007  13.340  1.00  0.00    -0.347 N
HETATM    9  C9  UNL     1      73.907  66.527  12.775  1.00  0.00     0.153 C
BRANCH   8  10
HETATM   10  C8  UNL     1      75.116  64.909  14.243  1.00  0.00     0.090 C
HETATM   11  C7  UNL     1      74.845  63.598  13.505  1.00  0.00     0.045 C
HETATM   12  C6  UNL     1      74.641  62.568  14.645  1.00  0.00     0.119 C
HETATM   13  N1  UNL     1      75.749  62.466  15.447  1.00  0.00    -0.408 N
HETATM   14  C27 UNL     1      76.857  63.317  15.149  1.00  0.00     0.119 C
HETATM   15  C26 UNL     1      76.526  64.738  14.844  1.00  0.00     0.045 C
BRANCH  13  16
HETATM   16  C5  UNL     1      75.895  61.737  16.599  1.00  0.00     0.079 C
HETATM   17  C4  UNL     1      76.771  62.432  17.606  1.00  0.00     0.025 C
HETATM   18  C3  UNL     1      76.084  63.262  18.625  1.00  0.00     0.006 C
HETATM   19  C2  UNL     1      75.009  62.437  19.305  1.00  0.00    -0.019 C
HETATM   20  C1  UNL     1      74.404  63.129  20.480  1.00  0.00     0.010 C
HETATM   21  C29 UNL     1      73.980  62.169  18.194  1.00  0.00     0.006 C
HETATM   22  C28 UNL     1      74.675  61.198  17.270  1.00  0.00     0.025 C
ENDBRANCH  13  16
ENDBRANCH   8  10
ENDBRANCH   7   8
BRANCH   7  23
HETATM   23  O1  UNL     1      76.520  67.823  13.547  1.00  0.00    -0.333 OA
ATOM     24  H1  UNL     1      76.137  67.825  14.416  1.00  0.00     0.220 HD
ENDBRANCH   7  23
ENDBRANCH   1   7
BRANCH   5  25
HETATM   25  C15 UNL     1      79.451  63.406  11.456  1.00  0.00     0.026 C
BRANCH  25  26
HETATM   26  C16 UNL     1      79.836  63.045  12.860  1.00  0.00     0.123 C
BRANCH  26  27
HETATM   27  N4  UNL     1      81.059  62.317  12.989  1.00  0.00    -0.361 N
HETATM   28  C17 UNL     1      81.496  61.664  14.172  1.00  0.00     0.221 C
HETATM   29  O2  UNL     1      80.736  61.741  15.172  1.00  0.00    -0.273 OA
ATOM     30  H4  UNL     1      81.663  62.262  12.170  1.00  0.00     0.162 HD
BRANCH  28  31
HETATM   31  C18 UNL     1      82.758  60.924  14.276  1.00  0.00     0.078 C
HETATM   32  C19 UNL     1      83.790  61.656  15.112  1.00  0.00     0.014 C
HETATM   33  C20 UNL     1      85.150  61.048  14.981  1.00  0.00     0.007 C
HETATM   34  C21 UNL     1      85.004  59.660  14.400  1.00  0.00     0.011 C
HETATM   35  C23 UNL     1      84.430  59.685  13.001  1.00  0.00     0.007 C
HETATM   36  C24 UNL     1      83.356  60.750  12.900  1.00  0.00     0.014 C
BRANCH  34  37
HETATM   37  C22 UNL     1      86.339  58.946  14.354  1.00  0.00     0.234 C
BRANCH  37  38
HETATM   38  N5  UNL     1      87.454  59.849  14.446  1.00  0.00    -0.079 N
ATOM     39  H53 UNL     1      87.180  60.724  14.893  1.00  0.00     0.274 HD
ATOM     40  H52 UNL     1      88.134  59.521  15.131  1.00  0.00     0.274 HD
ATOM     41  H51 UNL     1      87.896  60.021  13.543  1.00  0.00     0.274 HD
ENDBRANCH  37  38
ENDBRANCH  34  37
ENDBRANCH  28  31
ENDBRANCH  26  27
ENDBRANCH  25  26
ENDBRANCH   5  25
TORSDOF 11
ENDMDL