MODEL 3
REMARK VINA RESULT: -6.411230144      2.106      3.673
REMARK  8 active torsions:
REMARK  status: ('A' for Active; 'I' for Inactive)
REMARK    1  A    between atoms: C3_3  and  C4_4
REMARK    2  A    between atoms: C4_4  and  C5_5
REMARK    3  A    between atoms: C5_5  and  C6_6
REMARK    4  A    between atoms: C6_6  and  N1_7
REMARK    5  A    between atoms: C6_6  and  C20_25
REMARK       I    between atoms: N1_7  and  C7_9
REMARK       I    between atoms: C7_9  and  N2_11
REMARK    6  A    between atoms: C15_19  and  C16_20
REMARK       I    between atoms: C20_25  and  N3_27
REMARK    7  A    between atoms: N3_27  and  C21_29
REMARK    8  A    between atoms: N4_34  and  O4_35
ROOT
HETATM    1  C1  UNL     1      76.939  67.054  13.850  1.00  0.00     0.012 C
HETATM    2  C2  UNL     1      77.872  66.757  13.138  1.00  0.00    -0.117 C
HETATM    3  C3  UNL     1      78.983  66.398  12.281  1.00  0.00     0.093 C
ENDROOT
BRANCH   3   4
HETATM    4  C4  UNL     1      79.939  65.532  13.121  1.00  0.00     0.014 C
BRANCH   4   5
HETATM    5  C5  UNL     1      79.822  64.154  12.585  1.00  0.00     0.036 C
BRANCH   5   6
HETATM    6  C6  UNL     1      79.729  63.038  13.576  1.00  0.00     0.178 C
BRANCH   6   7
HETATM    7  N1  UNL     1      80.246  61.854  12.849  1.00  0.00    -0.329 N
HETATM    8  C7  UNL     1      81.608  61.482  12.907  1.00  0.00     0.323 C
HETATM    9  O1  UNL     1      82.404  62.160  13.590  1.00  0.00    -0.247 OA
HETATM   10  N2  UNL     1      82.069  60.346  12.198  1.00  0.00    -0.298 N
HETATM   11  C8  UNL     1      81.266  59.449  11.349  1.00  0.00     0.147 C
HETATM   12  C19 UNL     1      83.415  59.873  12.186  1.00  0.00     0.046 A
HETATM   13  C9  UNL     1      82.290  59.156  10.256  1.00  0.00    -0.002 C
HETATM   14  C10 UNL     1      82.255  60.286   9.277  1.00  0.00     0.021 C
HETATM   15  C11 UNL     1      82.042  57.811   9.624  1.00  0.00     0.021 C
HETATM   16  C12 UNL     1      83.574  59.156  11.019  1.00  0.00    -0.021 A
HETATM   17  C13 UNL     1      84.811  58.592  10.773  1.00  0.00     0.011 A
HETATM   18  C14 UNL     1      85.853  58.738  11.662  1.00  0.00     0.016 A
HETATM   19  C15 UNL     1      85.715  59.460  12.849  1.00  0.00     0.011 A
HETATM   20  C18 UNL     1      84.477  60.019  13.085  1.00  0.00     0.045 A
ATOM     21  H1  UNL     1      79.601  61.293  12.292  1.00  0.00     0.165 HD
BRANCH  19  22
HETATM   22  C16 UNL     1      86.815  59.607  13.778  1.00  0.00     0.155 C
HETATM   23  C17 UNL     1      88.190  59.309  13.341  1.00  0.00     0.096 C
HETATM   24  O2  UNL     1      86.597  59.984  14.943  1.00  0.00    -0.293 OA
ENDBRANCH  19  22
ENDBRANCH   6   7
BRANCH   6  25
HETATM   25  C20 UNL     1      78.396  62.751  14.103  1.00  0.00     0.240 C
HETATM   26  O3  UNL     1      77.658  61.932  13.497  1.00  0.00    -0.271 OA
HETATM   27  N3  UNL     1      77.902  63.360  15.277  1.00  0.00    -0.355 N
ATOM     28  H3  UNL     1      78.488  64.022  15.785  1.00  0.00     0.162 HD
BRANCH  27  29
HETATM   29  C21 UNL     1      76.552  63.051  15.777  1.00  0.00     0.089 C
HETATM   30  C22 UNL     1      76.678  62.926  17.279  1.00  0.00     0.057 C
HETATM   31  C23 UNL     1      75.384  62.948  18.014  1.00  0.00     0.049 C
HETATM   32  C24 UNL     1      75.539  63.558  19.415  1.00  0.00     0.040 C
HETATM   33  C25 UNL     1      74.993  61.485  18.278  1.00  0.00     0.040 C
HETATM   34  N4  UNL     1      74.297  63.544  17.324  1.00  0.00    -0.278 N
HETATM   35  C26 UNL     1      74.603  64.514  16.344  1.00  0.00     0.049 C
HETATM   36  C27 UNL     1      73.300  64.848  15.604  1.00  0.00     0.040 C
HETATM   37  C28 UNL     1      75.064  65.845  16.953  1.00  0.00     0.040 C
HETATM   38  C29 UNL     1      75.624  64.128  15.330  1.00  0.00     0.057 C
BRANCH  34  39
HETATM   39  O4  UNL     1      73.269  62.723  17.046  1.00  0.00    -0.291 OA
ATOM     40  H4  UNL     1      72.404  63.106  17.139  1.00  0.00     0.244 HD
ENDBRANCH  34  39
ENDBRANCH  27  29
ENDBRANCH   6  25
ENDBRANCH   5   6
ENDBRANCH   4   5
ENDBRANCH   3   4
TORSDOF 8
ENDMDL