MODEL 4
REMARK VINA RESULT: -6.610938433      1.310      2.001
REMARK  8 active torsions:
REMARK  status: ('A' for Active; 'I' for Inactive)
REMARK    1  A    between atoms: C1_2  and  C2_3
REMARK       I    between atoms: C1_2  and  N2_25
REMARK    2  A    between atoms: C2_3  and  C3_4
REMARK    3  A    between atoms: C3_4  and  O2_5
REMARK    4  A    between atoms: N1_15  and  C12_16
REMARK    5  A    between atoms: C12_16  and  C13_17
REMARK    6  A    between atoms: N2_25  and  C19_27
REMARK    7  A    between atoms: C19_27  and  C20_28
REMARK    8  A    between atoms: C20_28  and  C21_29
ROOT
HETATM    1  C3  UNL     1      79.725  62.386  13.710  1.00  0.00     0.146 C
HETATM    2  C4  UNL     1      80.301  63.659  13.159  1.00  0.00     0.049 C
HETATM    3  C5  UNL     1      79.555  64.101  11.911  1.00  0.00     0.014 C
HETATM    4  C6  UNL     1      78.350  64.943  12.272  1.00  0.00    -0.024 C
HETATM    5  C7  UNL     1      78.002  65.815  11.092  1.00  0.00     0.011 C
HETATM    6  C8  UNL     1      77.059  66.824  11.720  1.00  0.00     0.001 C
HETATM    7  C9  UNL     1      77.573  67.026  13.113  1.00  0.00     0.001 C
HETATM    8  C10 UNL     1      78.610  65.930  13.358  1.00  0.00     0.011 C
HETATM    9  C11 UNL     1      77.202  64.022  12.527  1.00  0.00     0.135 C
HETATM   10  N1  UNL     1      77.274  63.316  13.793  1.00  0.00    -0.348 N
HETATM   11  C18 UNL     1      78.425  62.746  14.390  1.00  0.00     0.255 C
HETATM   12  O4  UNL     1      78.377  62.504  15.632  1.00  0.00    -0.270 OA
ENDROOT
BRANCH   1  13
HETATM   13  C2  UNL     1      80.626  61.618  14.605  1.00  0.00     0.150 C
BRANCH  13  14
HETATM   14  C1  UNL     1      82.023  61.498  14.217  1.00  0.00     0.221 C
HETATM   15  O1  UNL     1      82.411  61.316  13.052  1.00  0.00    -0.273 OA
HETATM   16  N2  UNL     1      83.034  61.591  15.216  1.00  0.00    -0.361 N
ATOM     17  H2  UNL     1      82.757  61.740  16.186  1.00  0.00     0.162 HD
BRANCH  16  18
HETATM   18  C19 UNL     1      84.444  61.480  14.900  1.00  0.00     0.123 C
BRANCH  18  19
HETATM   19  C20 UNL     1      84.917  60.078  15.188  1.00  0.00     0.029 C
BRANCH  19  20
HETATM   20  C21 UNL     1      85.368  59.352  13.961  1.00  0.00    -0.038 C
HETATM   21  C22 UNL     1      86.673  58.662  14.213  1.00  0.00     0.014 C
HETATM   22  C23 UNL     1      87.171  57.967  12.960  1.00  0.00    -0.013 C
HETATM   23  C24 UNL     1      87.427  59.012  11.909  1.00  0.00     0.009 C
HETATM   24  C28 UNL     1      86.130  56.967  12.555  1.00  0.00     0.009 C
HETATM   25  C25 UNL     1      86.119  59.734  11.655  1.00  0.00    -0.013 C
HETATM   26  C26 UNL     1      85.137  58.722  11.121  1.00  0.00     0.009 C
HETATM   27  C30 UNL     1      85.626  60.415  12.889  1.00  0.00     0.014 C
HETATM   28  C27 UNL     1      84.861  57.702  12.215  1.00  0.00    -0.013 C
HETATM   29  C29 UNL     1      84.314  58.422  13.412  1.00  0.00     0.014 C
ENDBRANCH  19  20
ENDBRANCH  18  19
ENDBRANCH  16  18
ENDBRANCH  13  14
ENDBRANCH   1  13
BRANCH   1  30
HETATM   30  O2  UNL     1      79.378  61.522  12.641  1.00  0.00    -0.380 OA
ATOM     31  H2  UNL     1      78.566  61.096  12.888  1.00  0.00     0.211 HD
ENDBRANCH   1  30
BRANCH  10  32
HETATM   32  C12 UNL     1      76.017  63.194  14.485  1.00  0.00     0.130 C
BRANCH  32  33
HETATM   33  C13 UNL     1      75.272  64.465  14.691  1.00  0.00     0.008 C
HETATM   34  C14 UNL     1      75.755  65.235  15.898  1.00  0.00     0.032 C
HETATM   35  C15 UNL     1      75.000  64.934  17.161  1.00  0.00     0.168 C
HETATM   36  O3  UNL     1      73.621  65.089  16.966  1.00  0.00    -0.391 OA
HETATM   37  C16 UNL     1      73.253  64.047  16.120  1.00  0.00     0.168 C
HETATM   38  C17 UNL     1      73.781  64.363  14.741  1.00  0.00     0.032 C
ENDBRANCH  32  33
ENDBRANCH  10  32
TORSDOF 8
ENDMDL