MODEL 2
REMARK VINA RESULT: -7.853109180      0.716      1.175
REMARK  7 active torsions:
REMARK  status: ('A' for Active; 'I' for Inactive)
REMARK    1  A    between atoms: C2_2  and  C3_3
REMARK    2  A    between atoms: C3_3  and  C4_4
REMARK    3  A    between atoms: C4_4  and  C5_5
REMARK    4  A    between atoms: C5_5  and  N1_6
REMARK    5  A    between atoms: C15_17  and  S1_18
REMARK    6  A    between atoms: S1_18  and  N2_21
REMARK    7  A    between atoms: C17_26  and  C18_27
ROOT
HETATM    1  N1  UNL     1      83.563  59.507  12.636  1.00  0.00    -0.313 N
HETATM    2  C6  UNL     1      84.496  59.377  13.598  1.00  0.00     0.259 A
HETATM    3  O1  UNL     1      85.312  58.427  13.487  1.00  0.00    -0.267 OA
HETATM    4  C7  UNL     1      84.551  60.253  14.662  1.00  0.00     0.043 A
HETATM    5  C8  UNL     1      85.513  60.085  15.625  1.00  0.00     0.018 A
HETATM    6  C9  UNL     1      85.581  60.943  16.695  1.00  0.00     0.001 A
HETATM    7  C10 UNL     1      84.666  61.994  16.803  1.00  0.00     0.001 A
HETATM    8  C11 UNL     1      83.683  62.180  15.836  1.00  0.00     0.013 A
HETATM    9  C12 UNL     1      83.650  61.302  14.785  1.00  0.00    -0.008 A
HETATM   10  C13 UNL     1      82.694  61.433  13.800  1.00  0.00     0.004 A
HETATM   11  C14 UNL     1      81.761  62.449  13.881  1.00  0.00     0.040 A
HETATM   12  C15 UNL     1      80.772  62.583  12.899  1.00  0.00     0.081 A
HETATM   13  C24 UNL     1      80.766  61.682  11.873  1.00  0.00     0.027 A
HETATM   14  C25 UNL     1      81.704  60.657  11.783  1.00  0.00     0.032 A
HETATM   15  C26 UNL     1      82.685  60.518  12.748  1.00  0.00     0.048 A
ENDROOT
BRANCH  12  16
HETATM   16  S1  UNL     1      79.625  63.914  13.004  1.00  0.00     0.276 S
HETATM   17  O2  UNL     1      78.575  63.604  11.933  1.00  0.00    -0.200 OA
HETATM   18  O3  UNL     1      80.274  65.192  12.608  1.00  0.00    -0.200 OA
BRANCH  16  19
HETATM   19  N2  UNL     1      78.825  63.940  14.494  1.00  0.00    -0.112 N
HETATM   20  C16 UNL     1      77.912  63.082  14.777  1.00  0.00     0.695 A
HETATM   21  N3  UNL     1      77.308  63.174  16.004  1.00  0.00    -0.194 N
HETATM   22  N4  UNL     1      77.495  62.096  13.981  1.00  0.00    -0.155 N
HETATM   23  C17 UNL     1      76.350  62.329  16.394  1.00  0.00     0.039 A
ATOM     24  H3  UNL     1      77.601  63.914  16.642  1.00  0.00     0.184 HD
HETATM   25  C22 UNL     1      75.938  61.310  15.539  1.00  0.00     0.101 A
HETATM   26  C23 UNL     1      76.539  61.209  14.304  1.00  0.00     0.261 A
HETATM   27  O4  UNL     1      76.186  60.303  13.519  1.00  0.00    -0.268 OA
ATOM     28  H4  UNL     1      77.932  62.009  13.063  1.00  0.00     0.187 HD
ATOM     29  H2  UNL     1      79.072  64.652  15.182  1.00  0.00     0.197 HD
BRANCH  23  30
HETATM   30  C18 UNL     1      75.701  62.505  17.725  1.00  0.00    -0.008 C
HETATM   31  C19 UNL     1      76.736  62.339  18.806  1.00  0.00     0.021 C
HETATM   32  C20 UNL     1      75.143  63.936  17.785  1.00  0.00     0.021 C
HETATM   33  C21 UNL     1      74.607  61.493  17.875  1.00  0.00     0.021 C
ENDBRANCH  23  30
ENDBRANCH  16  19
ENDBRANCH  12  16
BRANCH   1  34
HETATM   34  C5  UNL     1      83.560  58.573  11.510  1.00  0.00     0.132 C
BRANCH  34  35
HETATM   35  C4  UNL     1      84.389  58.989  10.356  1.00  0.00     0.020 C
BRANCH  35  36
HETATM   36  C3  UNL     1      83.577  58.853   9.092  1.00  0.00     0.001 C
BRANCH  36  37
HETATM   37  C2  UNL     1      83.455  60.127   8.322  1.00  0.00    -0.004 C
HETATM   38  C1  UNL     1      81.963  60.383   8.124  1.00  0.00     0.005 C
ENDBRANCH  36  37
ENDBRANCH  35  36
ENDBRANCH  34  35
ENDBRANCH   1  34
TORSDOF 7
ENDMDL