MODEL 4
REMARK VINA RESULT: -6.915359498      3.981     12.616
REMARK  7 active torsions:
REMARK  status: ('A' for Active; 'I' for Inactive)
REMARK    1  A    between atoms: C3_3  and  N1_4
REMARK       I    between atoms: N1_4  and  C5_6
REMARK       I    between atoms: C5_6  and  N2_8
REMARK    2  A    between atoms: N2_8  and  C7_10
REMARK    3  A    between atoms: C10_13  and  N3_14
REMARK       I    between atoms: N3_14  and  C11_16
REMARK    4  A    between atoms: C11_16  and  C12_18
REMARK    5  A    between atoms: C15_21  and  N4_22
REMARK    6  A    between atoms: N4_22  and  S1_24
REMARK    7  A    between atoms: S1_24  and  C16_27
ROOT
HETATM    1  C1  UNL     1      76.501  71.227  13.162  1.00  0.00     0.014 C
HETATM    2  C2  UNL     1      75.779  70.277  13.328  1.00  0.00    -0.098 C
HETATM    3  C3  UNL     1      74.886  69.107  13.556  1.00  0.00     0.220 C
ENDROOT
BRANCH   3   4
HETATM    4  N1  UNL     1      75.538  68.193  14.458  1.00  0.00    -0.328 N
HETATM    5  C4  UNL     1      75.110  68.378  15.878  1.00  0.00     0.155 C
HETATM    6  C5  UNL     1      76.479  67.206  14.173  1.00  0.00     0.325 C
HETATM    7  O1  UNL     1      76.924  66.564  15.201  1.00  0.00    -0.247 OA
HETATM    8  N2  UNL     1      77.021  66.791  12.953  1.00  0.00    -0.304 N
HETATM    9  C6  UNL     1      76.674  67.245  11.634  1.00  0.00     0.161 C
BRANCH   8  10
HETATM   10  C7  UNL     1      78.051  65.756  12.964  1.00  0.00     0.038 A
HETATM   11  C8  UNL     1      79.361  66.086  13.204  1.00  0.00     0.032 A
HETATM   12  C9  UNL     1      80.312  65.107  13.211  1.00  0.00     0.032 A
HETATM   13  C10 UNL     1      80.000  63.750  12.977  1.00  0.00     0.035 A
HETATM   14  C27 UNL     1      78.685  63.487  12.747  1.00  0.00     0.032 A
HETATM   15  C28 UNL     1      77.690  64.460  12.733  1.00  0.00     0.032 A
BRANCH  13  16
HETATM   16  N3  UNL     1      81.055  62.798  13.030  1.00  0.00    -0.323 N
HETATM   17  C11 UNL     1      81.293  61.971  14.113  1.00  0.00     0.256 C
HETATM   18  O2  UNL     1      80.584  61.986  15.142  1.00  0.00    -0.267 OA
ATOM     19  H3  UNL     1      81.673  62.721  12.222  1.00  0.00     0.169 HD
BRANCH  17  20
HETATM   20  C12 UNL     1      82.427  61.021  14.076  1.00  0.00     0.032 A
HETATM   21  C13 UNL     1      82.291  59.721  13.668  1.00  0.00     0.019 A
HETATM   22  C14 UNL     1      83.374  58.875  13.658  1.00  0.00     0.031 A
HETATM   23  C15 UNL     1      84.652  59.281  14.056  1.00  0.00     0.042 A
HETATM   24  C25 UNL     1      84.774  60.590  14.464  1.00  0.00     0.031 A
HETATM   25  C26 UNL     1      83.691  61.445  14.477  1.00  0.00     0.019 A
BRANCH  23  26
HETATM   26  N4  UNL     1      85.716  58.349  14.008  1.00  0.00    -0.281 N
ATOM     27  H4  UNL     1      86.074  57.946  14.874  1.00  0.00     0.179 HD
BRANCH  26  28
HETATM   28  S1  UNL     1      86.408  57.891  12.515  1.00  0.00     0.264 S
HETATM   29  O3  UNL     1      87.776  57.257  12.737  1.00  0.00    -0.200 OA
HETATM   30  O4  UNL     1      85.565  56.745  11.963  1.00  0.00    -0.200 OA
BRANCH  28  31
HETATM   31  C16 UNL     1      86.536  59.186  11.376  1.00  0.00     0.091 A
HETATM   32  C17 UNL     1      85.678  59.199  10.270  1.00  0.00    -0.038 A
HETATM   33  C18 UNL     1      84.672  58.120  10.100  1.00  0.00     0.050 C
HETATM   34  C19 UNL     1      85.746  60.216   9.319  1.00  0.00     0.015 A
HETATM   35  C20 UNL     1      86.684  61.210   9.498  1.00  0.00    -0.061 A
HETATM   36  C21 UNL     1      86.772  62.293   8.503  1.00  0.00     0.048 C
HETATM   37  C22 UNL     1      87.523  61.185  10.591  1.00  0.00     0.015 A
HETATM   38  C23 UNL     1      87.454  60.179  11.530  1.00  0.00    -0.038 A
HETATM   39  C24 UNL     1      88.379  60.217  12.661  1.00  0.00     0.050 C
ENDBRANCH  28  31
ENDBRANCH  26  28
ENDBRANCH  23  26
ENDBRANCH  17  20
ENDBRANCH  13  16
ENDBRANCH   8  10
ENDBRANCH   3   4
TORSDOF 7
ENDMDL