MODEL 2
REMARK VINA RESULT: -6.920398273      1.685      2.082
REMARK  9 active torsions:
REMARK  status: ('A' for Active; 'I' for Inactive)
REMARK    1  A    between atoms: S1_2  and  C2_4
REMARK    2  A    between atoms: C2_4  and  C3_5
REMARK    3  A    between atoms: C3_5  and  C4_6
REMARK    4  A    between atoms: C4_6  and  N1_7
REMARK       I    between atoms: N1_7  and  C5_9
REMARK    5  A    between atoms: C5_9  and  C6_11
REMARK    6  A    between atoms: C6_11  and  C7_12
REMARK    7  A    between atoms: C7_12  and  C8_13
REMARK    8  A    between atoms: C8_13  and  C9_15
REMARK    9  A    between atoms: C18_25  and  O5_26
ROOT
HETATM    1  C9  UNL     1      77.131  61.779  14.832  1.00  0.00     0.064 C
HETATM    2  C10 UNL     1      77.614  62.614  15.955  1.00  0.00     0.018 C
HETATM    3  C11 UNL     1      76.521  63.080  16.833  1.00  0.00     0.003 C
HETATM    4  C12 UNL     1      75.351  63.613  16.118  1.00  0.00     0.066 C
HETATM    5  C13 UNL     1      74.253  63.479  17.151  1.00  0.00     0.145 C
HETATM    6  O4  UNL     1      73.295  64.219  17.233  1.00  0.00    -0.296 OA
HETATM    7  C14 UNL     1      74.599  62.312  17.982  1.00  0.00     0.049 C
HETATM    8  C15 UNL     1      73.813  61.093  17.490  1.00  0.00     0.029 C
HETATM    9  C16 UNL     1      74.132  62.587  19.363  1.00  0.00    -0.033 A
HETATM   10  C17 UNL     1      72.825  62.312  19.670  1.00  0.00     0.045 A
HETATM   11  C18 UNL     1      72.302  62.535  20.931  1.00  0.00     0.066 A
HETATM   12  C19 UNL     1      73.089  63.047  21.926  1.00  0.00     0.037 A
HETATM   13  C20 UNL     1      74.414  63.322  21.597  1.00  0.00     0.010 A
HETATM   14  C21 UNL     1      74.938  63.100  20.343  1.00  0.00    -0.051 A
HETATM   15  C22 UNL     1      76.341  63.389  19.987  1.00  0.00     0.039 C
HETATM   16  C23 UNL     1      76.836  62.240  19.139  1.00  0.00     0.011 C
HETATM   17  C24 UNL     1      76.065  62.076  17.854  1.00  0.00     0.011 C
HETATM   18  C25 UNL     1      74.930  62.996  14.858  1.00  0.00     0.006 C
HETATM   19  C26 UNL     1      74.817  63.980  13.682  1.00  0.00     0.007 C
HETATM   20  C27 UNL     1      76.179  63.455  13.258  1.00  0.00     0.011 C
HETATM   21  C28 UNL     1      75.942  62.218  14.103  1.00  0.00    -0.029 C
HETATM   22  C29 UNL     1      75.351  61.125  13.229  1.00  0.00     0.016 C
ENDROOT
BRANCH   1  23
HETATM   23  C8  UNL     1      78.218  61.410  13.843  1.00  0.00     0.132 C
HETATM   24  O3  UNL     1      78.251  60.240  13.520  1.00  0.00    -0.298 OA
BRANCH  23  25
HETATM   25  C7  UNL     1      79.156  62.418  13.325  1.00  0.00     0.088 C
BRANCH  25  26
HETATM   26  C6  UNL     1      80.528  62.040  13.016  1.00  0.00     0.110 C
BRANCH  26  27
HETATM   27  C5  UNL     1      81.492  61.830  14.100  1.00  0.00     0.217 C
HETATM   28  N1  UNL     1      82.868  61.654  13.852  1.00  0.00    -0.361 N
ATOM     29  H1  UNL     1      83.178  61.664  12.880  1.00  0.00     0.162 HD
HETATM   30  O2  UNL     1      81.078  61.811  15.279  1.00  0.00    -0.274 OA
BRANCH  28  31
HETATM   31  C4  UNL     1      83.866  61.460  14.863  1.00  0.00     0.123 C
BRANCH  31  32
HETATM   32  C3  UNL     1      84.920  60.529  14.377  1.00  0.00     0.032 C
BRANCH  32  33
HETATM   33  C2  UNL     1      85.207  60.526  12.916  1.00  0.00     0.110 C
BRANCH  33  34
HETATM   34  S1  UNL     1      86.830  60.291  12.381  1.00  0.00     0.010 S
HETATM   35  C1  UNL     1      87.925  59.635  13.568  1.00  0.00     0.127 C
HETATM   36  O1  UNL     1      87.464  61.592  11.551  1.00  0.00    -0.258 OA
ENDBRANCH  33  34
ENDBRANCH  32  33
ENDBRANCH  31  32
ENDBRANCH  28  31
ENDBRANCH  26  27
ENDBRANCH  25  26
ENDBRANCH  23  25
ENDBRANCH   1  23
BRANCH  11  37
HETATM   37  O5  UNL     1      70.965  62.250  21.230  1.00  0.00    -0.361 OA
ATOM     38  H5  UNL     1      70.399  62.893  21.639  1.00  0.00     0.217 HD
ENDBRANCH  11  37
TORSDOF 9
ENDMDL