MODEL 4
REMARK VINA RESULT: -7.009758761      2.671      8.360
REMARK  11 active torsions:
REMARK  status: ('A' for Active; 'I' for Inactive)
REMARK    1  A    between atoms: C5_5  and  C6_6
REMARK    2  A    between atoms: C6_6  and  C7_7
REMARK    3  A    between atoms: C7_7  and  C8_8
REMARK    4  A    between atoms: C8_8  and  O1_9
REMARK    5  A    between atoms: C8_8  and  N1_11
REMARK    6  A    between atoms: N1_11  and  C10_13
REMARK    7  A    between atoms: C10_13  and  C11_14
REMARK       I    between atoms: C11_14  and  N2_16
REMARK    8  A    between atoms: N2_16  and  C12_18
REMARK    9  A    between atoms: C22_28  and  N3_29
REMARK       I    between atoms: N3_29  and  C23_31
REMARK   10  A    between atoms: C23_31  and  C24_33
REMARK   11  A    between atoms: N4_37  and  O4_38
ROOT
HETATM    1  C6  UNL     1      82.687  59.682  12.399  1.00  0.00     0.018 C
ENDROOT
BRANCH   1   2
HETATM    2  C5  UNL     1      83.287  60.335  13.545  1.00  0.00    -0.009 A
HETATM    3  C4  UNL     1      84.256  59.563  14.213  1.00  0.00     0.014 A
HETATM    4  C3  UNL     1      84.906  60.046  15.319  1.00  0.00     0.007 A
HETATM    5  C2  UNL     1      84.639  61.294  15.818  1.00  0.00    -0.060 A
HETATM    6  C1  UNL     1      85.331  61.830  17.017  1.00  0.00     0.048 C
HETATM    7  C30 UNL     1      83.676  62.050  15.140  1.00  0.00     0.037 A
HETATM    8  C22 UNL     1      83.006  61.595  14.023  1.00  0.00     0.045 A
BRANCH   8   9
HETATM    9  N3  UNL     1      82.217  62.521  13.317  1.00  0.00    -0.322 N
HETATM   10  C23 UNL     1      80.866  62.822  13.445  1.00  0.00     0.258 C
HETATM   11  O3  UNL     1      80.222  62.127  14.329  1.00  0.00    -0.267 OA
ATOM     12  H3  UNL     1      82.712  63.053  12.601  1.00  0.00     0.169 HD
BRANCH  10  13
HETATM   13  C24 UNL     1      80.064  63.781  12.747  1.00  0.00     0.057 A
HETATM   14  C25 UNL     1      79.721  64.951  13.456  1.00  0.00     0.020 A
HETATM   15  C26 UNL     1      78.905  65.889  12.882  1.00  0.00     0.021 A
HETATM   16  C27 UNL     1      78.391  65.738  11.615  1.00  0.00     0.123 A
HETATM   17  N4  UNL     1      78.727  64.626  10.956  1.00  0.00    -0.240 N
HETATM   18  C28 UNL     1      79.540  63.676  11.507  1.00  0.00     0.051 A
HETATM   19  C29 UNL     1      79.876  62.518  10.632  1.00  0.00     0.072 C
BRANCH  17  20
HETATM   20  O4  UNL     1      78.224  64.449   9.676  1.00  0.00    -0.283 OA
ATOM     21  H4  UNL     1      78.843  64.360   8.961  1.00  0.00     0.245 HD
ENDBRANCH  17  20
ENDBRANCH  10  13
ENDBRANCH   8   9
ENDBRANCH   1   2
BRANCH   1  22
HETATM   22  C7  UNL     1      81.617  58.952  12.335  1.00  0.00     0.056 C
BRANCH  22  23
HETATM   23  C8  UNL     1      80.355  59.009  12.990  1.00  0.00     0.137 C
BRANCH  23  24
HETATM   24  O1  UNL     1      80.469  59.180  14.305  1.00  0.00    -0.346 OA
ATOM     25  H1  UNL     1      80.996  58.505  14.715  1.00  0.00     0.219 HD
ENDBRANCH  23  24
BRANCH  23  26
HETATM   26  N1  UNL     1      79.039  58.928  12.571  1.00  0.00    -0.358 N
HETATM   27  C9  UNL     1      78.825  59.024  11.092  1.00  0.00     0.152 C
BRANCH  26  28
HETATM   28  C10 UNL     1      77.907  58.757  13.404  1.00  0.00     0.227 C
BRANCH  28  29
HETATM   29  C11 UNL     1      77.055  59.962  13.565  1.00  0.00     0.240 C
HETATM   30  O2  UNL     1      75.836  59.785  13.795  1.00  0.00    -0.271 OA
HETATM   31  N2  UNL     1      77.553  61.268  13.469  1.00  0.00    -0.325 N
ATOM     32  H2  UNL     1      78.548  61.387  13.280  1.00  0.00     0.169 HD
BRANCH  31  33
HETATM   33  C12 UNL     1      76.762  62.437  13.618  1.00  0.00     0.047 A
HETATM   34  C13 UNL     1      76.723  63.078  14.862  1.00  0.00    -0.034 A
HETATM   35  C14 UNL     1      77.506  62.532  16.001  1.00  0.00     0.050 C
HETATM   36  C15 UNL     1      75.973  64.216  15.071  1.00  0.00     0.016 A
HETATM   37  C16 UNL     1      75.238  64.737  14.018  1.00  0.00    -0.055 A
HETATM   38  C17 UNL     1      74.430  65.980  14.281  1.00  0.00     0.049 C
HETATM   39  C18 UNL     1      75.252  64.132  12.775  1.00  0.00    -0.048 A
HETATM   40  C19 UNL     1      74.449  64.724  11.673  1.00  0.00     0.049 C
HETATM   41  C20 UNL     1      76.014  63.001  12.616  1.00  0.00    -0.028 A
HETATM   42  C21 UNL     1      76.020  62.364  11.280  1.00  0.00     0.051 C
ENDBRANCH  31  33
ENDBRANCH  28  29
ENDBRANCH  26  28
ENDBRANCH  23  26
ENDBRANCH  22  23
ENDBRANCH   1  22
TORSDOF 11
ENDMDL