MODEL 5
REMARK VINA RESULT: -8.064082200      3.915     10.990
REMARK  7 active torsions:
REMARK  status: ('A' for Active; 'I' for Inactive)
REMARK    1  A    between atoms: N2_15  and  C11_17
REMARK    2  A    between atoms: C11_17  and  C12_18
REMARK    3  A    between atoms: C12_18  and  C13_19
REMARK    4  A    between atoms: C13_19  and  C14_20
REMARK    5  A    between atoms: C14_20  and  C15_21
REMARK    6  A    between atoms: C15_21  and  N3_22
REMARK    7  A    between atoms: C24_36  and  C25_37
ROOT
HETATM    1  O1  UNL     1      74.321  62.488  13.621  1.00  0.00    -0.257 OA
HETATM    2  S1  UNL     1      75.542  63.022  14.673  1.00  0.00     0.034 S
HETATM    3  C1  UNL     1      76.463  64.269  13.818  1.00  0.00     0.152 A
HETATM    4  C2  UNL     1      76.003  65.525  14.453  1.00  0.00     0.005 A
HETATM    5  C3  UNL     1      75.175  65.406  15.489  1.00  0.00     0.040 A
HETATM    6  N1  UNL     1      74.720  66.551  16.121  1.00  0.00    -0.357 N
ATOM      7  H1  UNL     1      74.086  66.452  16.914  1.00  0.00     0.166 HD
HETATM    8  C4  UNL     1      75.075  67.769  15.738  1.00  0.00     0.045 A
HETATM    9  C5  UNL     1      74.595  68.907  16.405  1.00  0.00     0.030 A
HETATM   10  C6  UNL     1      74.965  70.169  16.006  1.00  0.00     0.002 A
HETATM   11  C7  UNL     1      75.825  70.319  14.932  1.00  0.00     0.001 A
HETATM   12  C8  UNL     1      76.306  69.205  14.264  1.00  0.00     0.016 A
HETATM   13  C9  UNL     1      75.915  67.930  14.688  1.00  0.00     0.018 A
HETATM   14  C10 UNL     1      76.408  66.801  14.010  1.00  0.00     0.049 A
HETATM   15  N2  UNL     1      77.170  67.035  13.062  1.00  0.00    -0.389 N
ATOM     16  H2  UNL     1      77.284  68.045  12.971  1.00  0.00     0.159 HD
HETATM   17  C24 UNL     1      74.791  64.023  15.895  1.00  0.00     0.163 A
ENDROOT
BRANCH  15  18
HETATM   18  C11 UNL     1      77.920  66.413  12.087  1.00  0.00     0.120 C
BRANCH  18  19
HETATM   19  C12 UNL     1      79.434  66.405  12.355  1.00  0.00     0.020 C
BRANCH  19  20
HETATM   20  C13 UNL     1      79.920  65.039  12.708  1.00  0.00     0.003 C
BRANCH  20  21
HETATM   21  C14 UNL     1      79.597  64.006  11.681  1.00  0.00     0.020 C
BRANCH  21  22
HETATM   22  C15 UNL     1      80.272  62.670  12.005  1.00  0.00     0.138 C
BRANCH  22  23
HETATM   23  N3  UNL     1      81.049  62.751  13.191  1.00  0.00    -0.226 N
HETATM   24  C16 UNL     1      82.047  62.025  13.525  1.00  0.00     0.678 A
HETATM   25  N4  UNL     1      82.648  62.286  14.732  1.00  0.00    -0.191 N
HETATM   26  N5  UNL     1      82.521  61.041  12.751  1.00  0.00    -0.201 N
HETATM   27  C17 UNL     1      83.689  61.591  15.160  1.00  0.00     0.060 A
ATOM     28  H4  UNL     1      82.281  63.038  15.316  1.00  0.00     0.184 HD
HETATM   29  C18 UNL     1      84.293  61.865  16.384  1.00  0.00     0.031 A
HETATM   30  C22 UNL     1      84.175  60.580  14.363  1.00  0.00     0.007 A
HETATM   31  C19 UNL     1      85.370  61.133  16.804  1.00  0.00     0.002 A
HETATM   32  C20 UNL     1      85.861  60.123  16.017  1.00  0.00     0.001 A
HETATM   33  C21 UNL     1      85.277  59.845  14.814  1.00  0.00     0.015 A
HETATM   34  C23 UNL     1      83.593  60.297  13.151  1.00  0.00     0.119 A
ATOM     35  H5  UNL     1      82.076  60.845  11.854  1.00  0.00     0.183 HD
ATOM     36  H3  UNL     1      80.778  63.475  13.856  1.00  0.00     0.177 HD
ENDBRANCH  22  23
ENDBRANCH  21  22
ENDBRANCH  20  21
ENDBRANCH  19  20
ENDBRANCH  18  19
ENDBRANCH  15  18
BRANCH  17  37
HETATM   37  C25 UNL     1      75.377  63.689  17.220  1.00  0.00    -0.036 A
HETATM   38  C26 UNL     1      76.408  62.785  17.362  1.00  0.00     0.009 A
HETATM   39  C27 UNL     1      76.938  62.483  18.595  1.00  0.00     0.001 A
HETATM   40  C28 UNL     1      76.471  63.063  19.749  1.00  0.00     0.000 A
HETATM   41  C29 UNL     1      75.440  63.967  19.607  1.00  0.00     0.001 A
HETATM   42  C30 UNL     1      74.897  64.283  18.387  1.00  0.00     0.009 A
ENDBRANCH  17  37
TORSDOF 7
ENDMDL