MODEL 4
REMARK VINA RESULT: -6.604149542      0.868      1.367
REMARK  9 active torsions:
REMARK  status: ('A' for Active; 'I' for Inactive)
REMARK    1  A    between atoms: C5_5  and  N1_6
REMARK       I    between atoms: N1_6  and  C6_7
REMARK       I    between atoms: N1_6  and  C13_21
REMARK    2  A    between atoms: C6_7  and  C7_9
REMARK    3  A    between atoms: C7_9  and  C8_10
REMARK    4  A    between atoms: C8_10  and  C9_11
REMARK       I    between atoms: C9_11  and  N2_13
REMARK    5  A    between atoms: N2_13  and  C10_15
REMARK    6  A    between atoms: C13_21  and  C14_23
REMARK       I    between atoms: C14_23  and  N4_25
REMARK    7  A    between atoms: N4_25  and  C15_27
REMARK    8  A    between atoms: C15_27  and  C16_28
REMARK    9  A    between atoms: C19_31  and  C20_32
ROOT
HETATM    1  N1  UNL     1      79.064  62.095  13.311  1.00  0.00    -0.244 N
HETATM    2  C6  UNL     1      80.142  61.148  13.039  1.00  0.00     0.232 C
HETATM    3  O1  UNL     1      80.006  59.999  13.491  1.00  0.00    -0.273 OA
HETATM    4  C13 UNL     1      77.946  61.631  13.988  1.00  0.00     0.323 C
HETATM    5  O3  UNL     1      77.884  60.429  14.345  1.00  0.00    -0.261 OA
ENDROOT
BRANCH   1   6
HETATM    6  C5  UNL     1      79.228  63.432  12.824  1.00  0.00     0.045 A
HETATM    7  C4  UNL     1      78.769  63.893  11.628  1.00  0.00     0.031 A
HETATM    8  C3  UNL     1      78.930  65.207  11.223  1.00  0.00     0.009 A
HETATM    9  C2  UNL     1      79.572  66.126  12.017  1.00  0.00    -0.062 A
HETATM   10  C1  UNL     1      79.771  67.539  11.561  1.00  0.00     0.048 C
HETATM   11  C27 UNL     1      80.039  65.668  13.231  1.00  0.00     0.009 A
HETATM   12  C26 UNL     1      79.876  64.349  13.636  1.00  0.00     0.031 A
ENDBRANCH   1   6
BRANCH   2  13
HETATM   13  C7  UNL     1      81.338  61.497  12.274  1.00  0.00     0.113 C
BRANCH  13  14
HETATM   14  C8  UNL     1      82.170  60.313  11.893  1.00  0.00     0.112 C
BRANCH  14  15
HETATM   15  C9  UNL     1      83.362  60.205  12.811  1.00  0.00     0.224 C
HETATM   16  O2  UNL     1      84.473  60.438  12.273  1.00  0.00    -0.273 OA
HETATM   17  N2  UNL     1      83.118  59.858  14.144  1.00  0.00    -0.307 N
ATOM     18  H2  UNL     1      82.388  59.190  14.392  1.00  0.00     0.171 HD
BRANCH  17  19
HETATM   19  C10 UNL     1      83.876  60.435  15.078  1.00  0.00     0.150 A
HETATM   20  N3  UNL     1      84.725  59.958  15.934  1.00  0.00    -0.346 N
HETATM   21  C11 UNL     1      85.292  60.762  16.816  1.00  0.00     0.097 A
ATOM     22  H3  UNL     1      84.956  58.965  15.926  1.00  0.00     0.167 HD
HETATM   23  C12 UNL     1      84.946  62.079  16.773  1.00  0.00     0.070 A
HETATM   24  S1  UNL     1      83.830  62.129  15.487  1.00  0.00    -0.064 SA
ENDBRANCH  17  19
ENDBRANCH  14  15
ENDBRANCH  13  14
ENDBRANCH   2  13
BRANCH   4  25
HETATM   25  C14 UNL     1      76.781  62.446  14.332  1.00  0.00     0.310 C
HETATM   26  O4  UNL     1      75.601  62.158  14.033  1.00  0.00    -0.262 OA
HETATM   27  N4  UNL     1      76.969  63.665  15.067  1.00  0.00    -0.349 N
ATOM     28  H4  UNL     1      77.922  63.905  15.340  1.00  0.00     0.163 HD
BRANCH  27  29
HETATM   29  C15 UNL     1      75.940  64.561  15.445  1.00  0.00     0.161 C
BRANCH  29  30
HETATM   30  C16 UNL     1      75.944  65.764  14.582  1.00  0.00    -0.041 A
HETATM   31  C17 UNL     1      76.421  66.968  14.986  1.00  0.00     0.009 A
HETATM   32  C18 UNL     1      76.501  68.051  14.080  1.00  0.00     0.008 A
HETATM   33  C19 UNL     1      76.103  67.924  12.769  1.00  0.00    -0.051 A
HETATM   34  C24 UNL     1      75.621  66.706  12.384  1.00  0.00     0.008 A
HETATM   35  C25 UNL     1      75.529  65.632  13.237  1.00  0.00     0.009 A
BRANCH  33  36
HETATM   36  C20 UNL     1      76.190  68.982  11.735  1.00  0.00    -0.024 C
HETATM   37  C21 UNL     1      77.248  70.016  11.997  1.00  0.00     0.019 C
HETATM   38  C22 UNL     1      74.855  69.616  11.591  1.00  0.00     0.019 C
HETATM   39  C23 UNL     1      76.495  68.297  10.389  1.00  0.00     0.019 C
ENDBRANCH  33  36
ENDBRANCH  29  30
ENDBRANCH  27  29
ENDBRANCH   4  25
TORSDOF 9
ENDMDL