MODEL 1
REMARK VINA RESULT: -6.219863196      0.000      0.000
REMARK  7 active torsions:
REMARK  status: ('A' for Active; 'I' for Inactive)
REMARK    1  A    between atoms: C3_3  and  C5_5
REMARK    2  A    between atoms: C10_12  and  C11_13
REMARK    3  A    between atoms: C11_13  and  N2_14
REMARK       I    between atoms: N2_14  and  C13_16
REMARK    4  A    between atoms: C13_16  and  C14_18
REMARK    5  A    between atoms: C14_18  and  C15_19
REMARK    6  A    between atoms: C18_22  and  N3_23
REMARK    7  A    between atoms: C25_30  and  C26_31
ROOT
HETATM    1  C1  UNL     1      85.702  56.616  12.674  1.00  0.00     0.012 C
HETATM    2  C2  UNL     1      85.909  57.577  13.381  1.00  0.00    -0.108 C
HETATM    3  C3  UNL     1      86.150  58.732  14.257  1.00  0.00     0.093 C
HETATM    4  C4  UNL     1      87.460  59.331  13.872  1.00  0.00     0.028 C
ENDROOT
BRANCH   3   5
HETATM    5  C5  UNL     1      85.015  59.668  14.032  1.00  0.00    -0.042 A
HETATM    6  C6  UNL     1      84.786  60.661  14.945  1.00  0.00     0.011 A
HETATM    7  C7  UNL     1      83.727  61.548  14.751  1.00  0.00     0.031 A
HETATM    8  C8  UNL     1      82.908  61.418  13.629  1.00  0.00     0.046 A
HETATM    9  N1  UNL     1      81.880  62.255  13.412  1.00  0.00    -0.354 N
HETATM   10  C29 UNL     1      83.136  60.417  12.704  1.00  0.00     0.042 A
HETATM   11  C9  UNL     1      81.050  62.187  12.352  1.00  0.00     0.056 A
ATOM     12  H1  UNL     1      81.715  62.994  14.097  1.00  0.00     0.166 HD
HETATM   13  C10 UNL     1      80.011  63.098  12.208  1.00  0.00    -0.013 A
HETATM   14  C27 UNL     1      81.253  61.185  11.394  1.00  0.00     0.055 A
HETATM   15  C23 UNL     1      79.199  62.983  11.113  1.00  0.00     0.012 A
HETATM   16  C24 UNL     1      79.402  61.998  10.177  1.00  0.00     0.016 A
HETATM   17  C25 UNL     1      80.439  61.065  10.290  1.00  0.00     0.016 A
HETATM   18  C28 UNL     1      82.304  60.323  11.610  1.00  0.00     0.197 A
HETATM   19  O2  UNL     1      82.530  59.414  10.791  1.00  0.00    -0.286 OA
HETATM   20  C30 UNL     1      84.195  59.566  12.941  1.00  0.00     0.026 A
BRANCH  13  21
HETATM   21  C11 UNL     1      79.845  64.144  13.260  1.00  0.00     0.166 C
BRANCH  21  22
HETATM   22  N2  UNL     1      78.459  64.276  13.662  1.00  0.00    -0.352 N
HETATM   23  C12 UNL     1      77.675  65.356  13.056  1.00  0.00     0.152 C
HETATM   24  C13 UNL     1      77.880  63.398  14.608  1.00  0.00     0.223 C
HETATM   25  O1  UNL     1      76.674  63.555  14.921  1.00  0.00    -0.273 OA
BRANCH  24  26
HETATM   26  C14 UNL     1      78.706  62.317  15.206  1.00  0.00     0.141 C
BRANCH  26  27
HETATM   27  C15 UNL     1      78.576  61.053  14.418  1.00  0.00    -0.049 A
HETATM   28  C16 UNL     1      77.517  60.807  13.573  1.00  0.00     0.010 A
HETATM   29  C17 UNL     1      77.426  59.615  12.853  1.00  0.00     0.030 A
HETATM   30  C18 UNL     1      78.398  58.654  12.972  1.00  0.00     0.029 A
HETATM   31  C21 UNL     1      79.457  58.916  13.826  1.00  0.00     0.030 A
HETATM   32  C22 UNL     1      79.551  60.088  14.538  1.00  0.00     0.010 A
BRANCH  30  33
HETATM   33  N3  UNL     1      78.380  57.432  12.283  1.00  0.00    -0.390 N
HETATM   34  C19 UNL     1      77.325  57.131  11.344  1.00  0.00     0.149 C
HETATM   35  C20 UNL     1      79.421  56.449  12.502  1.00  0.00     0.149 C
ENDBRANCH  30  33
ENDBRANCH  26  27
ENDBRANCH  24  26
ENDBRANCH  21  22
ENDBRANCH  13  21
BRANCH  17  36
HETATM   36  C26 UNL     1      80.629  60.033   9.284  1.00  0.00     0.124 C
HETATM   37  N4  UNL     1      80.046  58.742   9.427  1.00  0.00    -0.089 NA
HETATM   38  S1  UNL     1      81.532  60.299   7.947  1.00  0.00    -0.063 SA
ENDBRANCH  17  36
ENDBRANCH   3   5
TORSDOF 7
ENDMDL