MODEL 2
REMARK VINA RESULT: -6.897180184      2.886      4.693
REMARK  2 active torsions:
REMARK  status: ('A' for Active; 'I' for Inactive)
REMARK    1  A    between atoms: O1_2  and  C2_3
REMARK    2  A    between atoms: C6_7  and  C7_8
ROOT
HETATM    1  C7  UNL     1      25.198   7.746   4.902  1.00  0.00     0.083 A
HETATM    2  N1  UNL     1      25.940   8.322   3.889  1.00  0.00    -0.297 N
ATOM      3  H1  UNL     1      26.817   8.824   4.026  1.00  0.00     0.187 HD
HETATM    4  N2  UNL     1      25.366   8.136   2.728  1.00  0.00    -0.284 N
ATOM      5  H2  UNL     1      25.732   8.473   1.837  1.00  0.00     0.188 HD
HETATM    6  C8  UNL     1      24.240   7.447   2.872  1.00  0.00     0.137 A
HETATM    7  N3  UNL     1      23.430   7.088   1.961  1.00  0.00    -0.383 N
ATOM      8  H31 UNL     1      22.565   6.559   2.071  1.00  0.00     0.157 HD
ATOM      9  H32 UNL     1      23.506   7.267   0.959  1.00  0.00     0.157 HD
HETATM   10  C9  UNL     1      24.137   7.199   4.256  1.00  0.00     0.118 A
HETATM   11  C10 UNL     1      23.054   6.439   4.827  1.00  0.00     0.105 C
HETATM   12  N4  UNL     1      22.186   5.815   5.255  1.00  0.00    -0.191 NA
ENDROOT
BRANCH   1  13
HETATM   13  C6  UNL     1      25.599   7.752   6.299  1.00  0.00    -0.004 A
HETATM   14  C5  UNL     1      26.864   7.499   6.727  1.00  0.00     0.014 A
HETATM   15  C4  UNL     1      27.215   7.558   8.088  1.00  0.00     0.004 A
HETATM   16  C3  UNL     1      26.292   7.871   9.032  1.00  0.00     0.037 A
HETATM   17  C2  UNL     1      25.013   8.125   8.590  1.00  0.00     0.069 A
HETATM   18  C11 UNL     1      24.654   8.073   7.272  1.00  0.00     0.050 A
BRANCH  17  19
HETATM   19  O1  UNL     1      24.055   8.450   9.558  1.00  0.00    -0.356 OA
HETATM   20  C1  UNL     1      23.729   7.583  10.614  1.00  0.00     0.210 C
ENDBRANCH  17  19
ENDBRANCH   1  13
TORSDOF 2
ENDMDL