MODEL 5
REMARK VINA RESULT: -5.410000988      1.619      1.629
REMARK  5 active torsions:
REMARK  status: ('A' for Active; 'I' for Inactive)
REMARK    1  A    between atoms: S1_3  and  C2_4
REMARK    2  A    between atoms: C6_8  and  N2_9
REMARK    3  A    between atoms: N2_9  and  C7_11
REMARK    4  A    between atoms: C7_11  and  N3_13
REMARK    5  A    between atoms: N3_13  and  N4_15
ROOT
HETATM    1  N1  UNL     1      23.842   6.814   6.661  1.00  0.00    -0.184 NA
HETATM    2  C1  UNL     1      23.799   7.089   7.798  1.00  0.00     0.139 C
HETATM    3  S1  UNL     1      23.706   7.502   9.511  1.00  0.00    -0.011 SA
ENDROOT
BRANCH   3   4
HETATM    4  C2  UNL     1      23.448   5.978  10.410  1.00  0.00     0.017 A
HETATM    5  C3  UNL     1      22.635   4.999   9.883  1.00  0.00     0.019 A
HETATM    6  C4  UNL     1      22.390   3.805  10.517  1.00  0.00     0.004 A
HETATM    7  C5  UNL     1      23.012   3.595  11.763  1.00  0.00     0.029 A
HETATM    8  C6  UNL     1      23.824   4.523  12.330  1.00  0.00     0.035 A
HETATM    9  C8  UNL     1      24.032   5.730  11.624  1.00  0.00     0.049 A
BRANCH   8  10
HETATM   10  N2  UNL     1      24.497   4.370  13.544  1.00  0.00    -0.332 N
ATOM     11  H2  UNL     1      24.700   3.406  13.809  1.00  0.00     0.168 HD
BRANCH  10  12
HETATM   12  C7  UNL     1      24.937   5.342  14.454  1.00  0.00     0.190 C
HETATM   13  S2  UNL     1      23.955   5.986  15.557  1.00  0.00    -0.039 SA
BRANCH  12  14
HETATM   14  N3  UNL     1      26.294   5.761  14.443  1.00  0.00    -0.283 N
ATOM     15  H3  UNL     1      26.990   5.284  13.870  1.00  0.00     0.188 HD
BRANCH  14  16
HETATM   16  N4  UNL     1      26.642   6.859  15.250  1.00  0.00    -0.343 N
ATOM     17  H42 UNL     1      26.342   6.897  16.224  1.00  0.00     0.176 HD
ATOM     18  H41 UNL     1      27.198   7.601  14.824  1.00  0.00     0.176 HD
ENDBRANCH  14  16
ENDBRANCH  12  14
ENDBRANCH  10  12
ENDBRANCH   8  10
ENDBRANCH   3   4
TORSDOF 5
ENDMDL