MODEL 2
REMARK VINA RESULT: -4.494868071      1.587      2.284
REMARK  7 active torsions:
REMARK  status: ('A' for Active; 'I' for Inactive)
REMARK    1  A    between atoms: C2_2  and  C5_5
REMARK    2  A    between atoms: C5_5  and  O1_7
REMARK    3  A    between atoms: C5_5  and  C7_9
REMARK    4  A    between atoms: C7_9  and  S1_10
REMARK    5  A    between atoms: S1_10  and  C8_11
REMARK    6  A    between atoms: C8_11  and  N1_13
REMARK    7  A    between atoms: N1_13  and  N2_15
ROOT
HETATM    1  C7  UNL     1      22.575   5.634  13.279  1.00  0.00     0.119 C
ENDROOT
BRANCH   1   2
HETATM    2  C5  UNL     1      23.185   4.780  12.216  1.00  0.00     0.069 C
HETATM    3  C6  UNL     1      24.264   5.640  11.553  1.00  0.00     0.047 C
BRANCH   2   4
HETATM    4  C2  UNL     1      22.200   4.289  11.180  1.00  0.00    -0.020 C
HETATM    5  C1  UNL     1      20.792   4.748  11.479  1.00  0.00     0.017 C
HETATM    6  C3  UNL     1      22.580   4.925   9.836  1.00  0.00     0.017 C
HETATM    7  C4  UNL     1      22.197   2.806  10.980  1.00  0.00     0.017 C
ENDBRANCH   2   4
BRANCH   2   8
HETATM    8  O1  UNL     1      23.807   3.689  12.777  1.00  0.00    -0.389 OA
ATOM      9  H1  UNL     1      23.971   3.875  13.695  1.00  0.00     0.210 HD
ENDBRANCH   2   8
ENDBRANCH   1   2
BRANCH   1  10
HETATM   10  S1  UNL     1      23.617   6.897  13.951  1.00  0.00    -0.096 SA
BRANCH  10  11
HETATM   11  C8  UNL     1      24.953   6.369  14.965  1.00  0.00     0.152 C
HETATM   12  S2  UNL     1      26.210   7.292  15.413  1.00  0.00    -0.051 SA
BRANCH  11  13
HETATM   13  N1  UNL     1      24.900   5.012  15.448  1.00  0.00    -0.291 N
ATOM     14  H1  UNL     1      24.970   4.239  14.786  1.00  0.00     0.188 HD
BRANCH  13  15
HETATM   15  N2  UNL     1      24.754   4.740  16.813  1.00  0.00    -0.344 N
ATOM     16  H22 UNL     1      25.586   4.505  17.355  1.00  0.00     0.176 HD
ATOM     17  H21 UNL     1      23.838   4.777  17.260  1.00  0.00     0.176 HD
ENDBRANCH  13  15
ENDBRANCH  11  13
ENDBRANCH  10  11
ENDBRANCH   1  10
TORSDOF 7
ENDMDL