MODEL 5
REMARK VINA RESULT: -6.086277246      3.130      3.918
REMARK  4 active torsions:
REMARK  status: ('A' for Active; 'I' for Inactive)
REMARK    1  A    between atoms: C5_6  and  C6_7
REMARK    2  A    between atoms: C8_9  and  C9_10
REMARK    3  A    between atoms: C9_10  and  O1_11
REMARK    4  A    between atoms: C9_10  and  O2_13
ROOT
HETATM    1  N1  UNL     1      25.249   5.911  16.634  1.00  0.00    -0.191 NA
HETATM    2  C1  UNL     1      24.938   5.971  15.524  1.00  0.00     0.099 C
HETATM    3  C2  UNL     1      24.567   6.030  14.142  1.00  0.00     0.044 A
HETATM    4  C3  UNL     1      24.213   7.253  13.561  1.00  0.00     0.023 A
HETATM    5  C4  UNL     1      23.859   7.305  12.238  1.00  0.00     0.014 A
HETATM    6  C5  UNL     1      23.841   6.181  11.457  1.00  0.00    -0.019 A
HETATM    7  C11 UNL     1      24.182   4.958  11.990  1.00  0.00     0.014 A
HETATM    8  C12 UNL     1      24.543   4.907  13.337  1.00  0.00     0.023 A
ENDROOT
BRANCH   6   9
HETATM    9  C6  UNL     1      23.453   6.275  10.029  1.00  0.00     0.015 A
HETATM   10  C7  UNL     1      22.811   5.333   9.272  1.00  0.00     0.032 A
HETATM   11  C8  UNL     1      22.558   5.635   7.992  1.00  0.00     0.004 A
HETATM   12  C10 UNL     1      22.964   6.865   7.546  1.00  0.00     0.062 A
HETATM   13  S1  UNL     1      23.683   7.554   8.925  1.00  0.00    -0.101 SA
BRANCH  11  14
HETATM   14  C9  UNL     1      21.851   4.672   7.048  1.00  0.00     0.289 C
BRANCH  14  15
HETATM   15  O1  UNL     1      22.668   4.472   5.913  1.00  0.00    -0.367 OA
ATOM     16  H1  UNL     1      22.236   3.856   5.333  1.00  0.00     0.213 HD
ENDBRANCH  14  15
BRANCH  14  17
HETATM   17  O2  UNL     1      21.603   3.464   7.669  1.00  0.00    -0.367 OA
ATOM     18  H2  UNL     1      20.897   2.998   7.238  1.00  0.00     0.213 HD
ENDBRANCH  14  17
ENDBRANCH  11  14
ENDBRANCH   6   9
TORSDOF 4
ENDMDL