MODEL 2
REMARK VINA RESULT: -6.131638845      2.151      3.433
REMARK  2 active torsions:
REMARK  status: ('A' for Active; 'I' for Inactive)
REMARK    1  A    between atoms: C4_4  and  C5_5
REMARK    2  A    between atoms: C11_13  and  N2_14
ROOT
HETATM    1  C1  UNL     1      21.722   3.726   8.033  1.00  0.00     0.052 C
HETATM    2  C2  UNL     1      22.393   5.046   7.918  1.00  0.00    -0.017 C
HETATM    3  C3  UNL     1      22.782   5.620   9.139  1.00  0.00     0.026 C
HETATM    4  C4  UNL     1      23.522   6.798   9.297  1.00  0.00     0.023 C
HETATM    5  C9  UNL     1      24.353   7.329   8.340  1.00  0.00     0.101 C
HETATM    6  C10 UNL     1      25.600   7.841   8.833  1.00  0.00     0.104 C
HETATM    7  N1  UNL     1      26.617   8.227   9.223  1.00  0.00    -0.191 NA
HETATM    8  C11 UNL     1      24.122   7.399   6.956  1.00  0.00     0.122 C
HETATM    9  N3  UNL     1      23.231   6.634   6.265  1.00  0.00    -0.328 N
ATOM     10  H3  UNL     1      23.054   6.945   5.310  1.00  0.00     0.169 HD
HETATM   11  C12 UNL     1      22.543   5.529   6.635  1.00  0.00     0.106 C
HETATM   12  N4  UNL     1      21.971   4.867   5.665  1.00  0.00    -0.385 N
ATOM     13  H41 UNL     1      22.083   5.224   4.716  1.00  0.00     0.157 HD
ATOM     14  H42 UNL     1      21.452   4.035   5.944  1.00  0.00     0.157 HD
ENDROOT
BRANCH   4  15
HETATM   15  C5  UNL     1      23.422   7.495  10.587  1.00  0.00     0.086 A
HETATM   16  C6  UNL     1      22.614   8.481  11.029  1.00  0.00     0.040 A
HETATM   17  C7  UNL     1      22.965   8.749  12.351  1.00  0.00     0.027 A
HETATM   18  C8  UNL     1      23.993   7.890  12.654  1.00  0.00     0.142 A
HETATM   19  O1  UNL     1      24.228   7.178  11.602  1.00  0.00    -0.322 OA
ENDBRANCH   4  15
BRANCH   8  20
HETATM   20  N2  UNL     1      24.836   8.267   6.344  1.00  0.00    -0.384 N
ATOM     21  H22 UNL     1      24.493   9.219   6.219  1.00  0.00     0.157 HD
ATOM     22  H21 UNL     1      25.735   7.915   6.013  1.00  0.00     0.157 HD
ENDBRANCH   8  20
TORSDOF 2
ENDMDL