MODEL 2
REMARK VINA RESULT: -6.688479795      1.594      1.887
REMARK  4 active torsions:
REMARK  status: ('A' for Active; 'I' for Inactive)
REMARK    1  A    between atoms: C7_8  and  O1_9
REMARK    2  A    between atoms: O1_9  and  C8_10
REMARK    3  A    between atoms: C10_14  and  N3_15
REMARK    4  A    between atoms: C11_20  and  N5_21
ROOT
HETATM    1  N1  UNL     1      20.012   2.664  10.626  1.00  0.00    -0.191 NA
HETATM    2  C1  UNL     1      20.940   3.326  10.828  1.00  0.00     0.102 C
HETATM    3  C2  UNL     1      22.110   4.144  11.089  1.00  0.00     0.078 A
HETATM    4  C3  UNL     1      22.956   3.800  12.101  1.00  0.00     0.025 A
HETATM    5  C4  UNL     1      24.087   4.529  12.405  1.00  0.00     0.002 A
HETATM    6  C5  UNL     1      24.343   5.638  11.643  1.00  0.00     0.003 A
HETATM    7  C6  UNL     1      23.503   6.005  10.615  1.00  0.00     0.039 A
HETATM    8  C7  UNL     1      22.367   5.278  10.303  1.00  0.00     0.097 A
ENDROOT
BRANCH   8   9
HETATM    9  O1  UNL     1      21.482   5.574   9.304  1.00  0.00    -0.304 OA
BRANCH   9  10
HETATM   10  C8  UNL     1      21.807   5.731   7.959  1.00  0.00     0.136 A
HETATM   11  C9  UNL     1      21.783   7.014   7.395  1.00  0.00     0.147 A
HETATM   12  N2  UNL     1      22.100   7.132   6.099  1.00  0.00    -0.199 N
HETATM   13  C10 UNL     1      22.435   6.101   5.327  1.00  0.00     0.677 A
ATOM     14  H2  UNL     1      22.084   8.062   5.682  1.00  0.00     0.183 HD
HETATM   15  N4  UNL     1      22.469   4.867   5.834  1.00  0.00    -0.175 N
HETATM   16  C11 UNL     1      22.155   4.686   7.147  1.00  0.00     0.150 A
ATOM     17  H4  UNL     1      22.725   4.073   5.248  1.00  0.00     0.186 HD
BRANCH  13  18
HETATM   18  N3  UNL     1      22.724   6.290   4.104  1.00  0.00    -0.234 N
ATOM     19  H32 UNL     1      22.066   6.778   3.497  1.00  0.00     0.174 HD
ATOM     20  H31 UNL     1      23.613   5.954   3.732  1.00  0.00     0.174 HD
ENDBRANCH  13  18
BRANCH  16  21
HETATM   21  N5  UNL     1      22.261   3.484   7.604  1.00  0.00    -0.383 N
ATOM     22  H52 UNL     1      21.761   3.279   8.469  1.00  0.00     0.157 HD
ATOM     23  H51 UNL     1      22.780   2.765   7.099  1.00  0.00     0.157 HD
ENDBRANCH  16  21
ENDBRANCH   9  10
ENDBRANCH   8   9
TORSDOF 4
ENDMDL