MODEL 3
REMARK VINA RESULT: -5.538075929      1.164      1.194
REMARK  3 active torsions:
REMARK  status: ('A' for Active; 'I' for Inactive)
REMARK    1  A    between atoms: C3_3  and  S1_4
REMARK    2  A    between atoms: S1_4  and  C4_5
REMARK    3  A    between atoms: C9_12  and  N2_13
ROOT
HETATM    1  C1  UNL     1      23.806   4.944  11.410  1.00  0.00     0.098 C
HETATM    2  C2  UNL     1      23.087   5.617  10.683  1.00  0.00    -0.177 C
HETATM    3  C3  UNL     1      22.201   6.448   9.830  1.00  0.00     0.158 C
ENDROOT
BRANCH   3   4
HETATM    4  S1  UNL     1      23.001   7.919   9.287  1.00  0.00    -0.117 SA
BRANCH   4   5
HETATM    5  C4  UNL     1      24.536   7.793   8.477  1.00  0.00     0.020 A
HETATM    6  C5  UNL     1      25.748   7.788   9.203  1.00  0.00     0.020 A
HETATM    7  C6  UNL     1      26.891   7.716   8.462  1.00  0.00     0.004 A
HETATM    8  C7  UNL     1      26.934   7.650   7.114  1.00  0.00     0.031 A
HETATM    9  C8  UNL     1      25.739   7.653   6.361  1.00  0.00     0.052 A
HETATM   10  N1  UNL     1      25.651   7.606   5.049  1.00  0.00    -0.336 N
HETATM   11  C10 UNL     1      24.574   7.726   7.077  1.00  0.00     0.052 A
HETATM   12  C9  UNL     1      24.444   7.630   4.486  1.00  0.00     0.143 A
ATOM     13  H1  UNL     1      26.492   7.553   4.474  1.00  0.00     0.168 HD
HETATM   14  S2  UNL     1      23.405   7.723   5.832  1.00  0.00    -0.051 SA
BRANCH  12  15
HETATM   15  N2  UNL     1      24.151   7.594   3.203  1.00  0.00    -0.380 N
ATOM     16  H22 UNL     1      24.761   7.425   2.403  1.00  0.00     0.158 HD
ATOM     17  H21 UNL     1      23.239   7.727   2.766  1.00  0.00     0.158 HD
ENDBRANCH  12  15
ENDBRANCH   4   5
ENDBRANCH   3   4
TORSDOF 3
ENDMDL