MODEL 1
REMARK VINA RESULT: -5.743401907      0.000      0.000
REMARK  3 active torsions:
REMARK  status: ('A' for Active; 'I' for Inactive)
REMARK    1  A    between atoms: O1_2  and  C2_3
REMARK    2  A    between atoms: C7_8  and  N1_9
REMARK    3  A    between atoms: C8_10  and  N2_11
ROOT
HETATM    1  N1  UNL     1      23.449   7.925   7.347  1.00  0.00    -0.117 N
HETATM    2  C8  UNL     1      24.057   7.754   6.164  1.00  0.00     0.700 A
HETATM    3  N3  UNL     1      23.772   8.826   5.411  1.00  0.00    -0.130 N
ATOM      4  H3  UNL     1      24.100   8.971   4.456  1.00  0.00     0.205 HD
HETATM    5  N4  UNL     1      23.005   9.668   6.081  1.00  0.00    -0.261 N
ATOM      6  H4  UNL     1      22.639  10.561   5.754  1.00  0.00     0.190 HD
HETATM    7  C9  UNL     1      22.808   9.100   7.285  1.00  0.00     0.213 A
HETATM    8  S1  UNL     1      21.894   9.816   8.460  1.00  0.00    -0.038 SA
ENDROOT
BRANCH   1   9
HETATM    9  C7  UNL     1      23.465   7.052   8.459  1.00  0.00     0.093 A
HETATM   10  C2  UNL     1      24.372   7.162   9.492  1.00  0.00     0.096 A
HETATM   11  C3  UNL     1      24.330   6.262  10.564  1.00  0.00     0.039 A
HETATM   12  C4  UNL     1      23.373   5.259  10.585  1.00  0.00     0.003 A
HETATM   13  C5  UNL     1      22.462   5.143   9.556  1.00  0.00     0.002 A
HETATM   14  C6  UNL     1      22.510   6.040   8.495  1.00  0.00     0.034 A
BRANCH  10  15
HETATM   15  O1  UNL     1      25.321   8.155   9.474  1.00  0.00    -0.354 OA
HETATM   16  C1  UNL     1      26.558   7.962   8.816  1.00  0.00     0.210 C
ENDBRANCH  10  15
ENDBRANCH   1   9
BRANCH   2  17
HETATM   17  N2  UNL     1      24.796   6.740   5.785  1.00  0.00    -0.233 N
ATOM     18  H22 UNL     1      24.477   5.968   5.199  1.00  0.00     0.174 HD
ATOM     19  H21 UNL     1      25.777   6.567   6.006  1.00  0.00     0.174 HD
ENDBRANCH   2  17
TORSDOF 3
ENDMDL