MODEL 3
REMARK VINA RESULT: -6.688148367      1.953      2.452
REMARK  2 active torsions:
REMARK  status: ('A' for Active; 'I' for Inactive)
REMARK    1  A    between atoms: C3_4  and  C4_5
REMARK    2  A    between atoms: C4_5  and  N1_6
ROOT
HETATM    1  N1  UNL     1      23.887   5.668  11.263  1.00  0.00    -0.219 N
ATOM      2  H1  UNL     1      23.977   4.738  10.855  1.00  0.00     0.178 HD
HETATM    3  C5  UNL     1      24.248   5.839  12.471  1.00  0.00     0.693 A
HETATM    4  N2  UNL     1      24.775   4.771  13.272  1.00  0.00    -0.132 N
ATOM      5  H2  UNL     1      24.874   3.832  12.886  1.00  0.00     0.205 HD
HETATM    6  N3  UNL     1      25.151   5.041  14.596  1.00  0.00    -0.284 N
ATOM      7  H3  UNL     1      25.526   4.275  15.157  1.00  0.00     0.187 HD
HETATM    8  C6  UNL     1      25.042   6.309  15.191  1.00  0.00     0.075 A
HETATM    9  C7  UNL     1      25.427   6.518  16.498  1.00  0.00     0.033 A
HETATM   10  C8  UNL     1      25.318   7.780  17.088  1.00  0.00     0.002 A
HETATM   11  C9  UNL     1      24.814   8.814  16.333  1.00  0.00     0.002 A
HETATM   12  C10 UNL     1      24.429   8.582  15.009  1.00  0.00     0.032 A
HETATM   13  C11 UNL     1      24.539   7.343  14.435  1.00  0.00     0.077 A
HETATM   14  N4  UNL     1      24.137   7.118  13.064  1.00  0.00    -0.188 N
ATOM     15  H4  UNL     1      23.766   7.895  12.517  1.00  0.00     0.184 HD
ENDROOT
BRANCH   1  16
HETATM   16  C4  UNL     1      23.363   6.714  10.453  1.00  0.00     0.203 C
BRANCH  16  17
HETATM   17  C3  UNL     1      24.403   7.210   9.485  1.00  0.00     0.070 A
HETATM   18  O1  UNL     1      25.628   7.581   9.721  1.00  0.00    -0.325 OA
HETATM   19  C2  UNL     1      26.266   7.959   8.657  1.00  0.00     0.142 A
HETATM   20  C1  UNL     1      25.412   7.845   7.572  1.00  0.00     0.027 A
HETATM   21  C12 UNL     1      24.235   7.370   8.112  1.00  0.00     0.036 A
ENDBRANCH  16  17
ENDBRANCH   1  16
TORSDOF 2
ENDMDL