MODEL 1
REMARK VINA RESULT: -5.401186603      0.000      0.000
REMARK  4 active torsions:
REMARK  status: ('A' for Active; 'I' for Inactive)
REMARK    1  A    between atoms: C8_8  and  C9_9
REMARK    2  A    between atoms: C8_8  and  C10_12
REMARK    3  A    between atoms: C9_9  and  O1_10
REMARK    4  A    between atoms: C10_12  and  O2_13
ROOT
HETATM    1  C1  UNL     1     -34.130   6.205  18.741  1.00  0.00     0.045 C
HETATM    2  C2  UNL     1     -34.763   4.968  18.201  1.00  0.00     0.055 C
HETATM    3  C3  UNL     1     -34.109   3.831  19.028  1.00  0.00     0.045 C
HETATM    4  C4  UNL     1     -36.210   4.929  18.664  1.00  0.00     0.037 C
HETATM    5  C5  UNL     1     -37.045   6.007  18.055  1.00  0.00     0.003 C
HETATM    6  C6  UNL     1     -37.149   5.724  16.570  1.00  0.00     0.003 C
HETATM    7  C7  UNL     1     -35.951   6.327  15.913  1.00  0.00     0.042 C
HETATM    8  C8  UNL     1     -34.786   5.408  15.889  1.00  0.00     0.104 C
HETATM    9  O3  UNL     1     -34.541   4.636  16.939  1.00  0.00    -0.366 OA
ENDROOT
BRANCH   8  10
HETATM   10  C9  UNL     1     -35.057   4.435  14.720  1.00  0.00     0.204 C
BRANCH  10  11
HETATM   11  O1  UNL     1     -34.540   3.181  14.990  1.00  0.00    -0.398 OA
ATOM     12  H1  UNL     1     -33.598   3.168  14.863  1.00  0.00     0.209 HD
ENDBRANCH  10  11
ENDBRANCH   8  10
BRANCH   8  13
HETATM   13  C10 UNL     1     -33.516   6.146  15.482  1.00  0.00     0.204 C
BRANCH  13  14
HETATM   14  O2  UNL     1     -32.552   5.241  15.013  1.00  0.00    -0.398 OA
ATOM     15  H2  UNL     1     -31.678   5.586  15.154  1.00  0.00     0.209 HD
ENDBRANCH  13  14
ENDBRANCH   8  13
TORSDOF 4
ENDMDL