MODEL 1
REMARK VINA RESULT: -5.813872388      0.000      0.000
REMARK  3 active torsions:
REMARK  status: ('A' for Active; 'I' for Inactive)
REMARK    1  A    between atoms: C4_4  and  C5_5
REMARK    2  A    between atoms: C5_5  and  N1_6
REMARK    3  A    between atoms: N1_6  and  C6_8
ROOT
HETATM    1  C5  UNL     1     -34.472   3.841  13.603  1.00  0.00     0.153 C
ENDROOT
BRANCH   1   2
HETATM    2  C4  UNL     1     -35.707   3.701  12.751  1.00  0.00     0.203 C
HETATM    3  C3  UNL     1     -35.506   4.482  11.473  1.00  0.00     0.035 C
HETATM    4  C2  UNL     1     -36.746   4.426  10.601  1.00  0.00     0.004 C
HETATM    5  C1  UNL     1     -37.003   2.938  10.334  1.00  0.00     0.027 C
HETATM    6  C10 UNL     1     -37.255   2.305  11.691  1.00  0.00     0.233 C
HETATM    7  N3  UNL     1     -36.104   2.348  12.545  1.00  0.00    -0.069 N
ATOM      8  H32 UNL     1     -35.341   1.774  12.188  1.00  0.00     0.277 HD
ATOM      9  H31 UNL     1     -36.260   1.856  13.424  1.00  0.00     0.277 HD
ENDBRANCH   1   2
BRANCH   1  10
HETATM   10  N1  UNL     1     -34.748   3.799  15.007  1.00  0.00    -0.378 N
ATOM     11  H1  UNL     1     -35.060   2.939  15.458  1.00  0.00     0.160 HD
BRANCH  10  12
HETATM   12  C6  UNL     1     -34.571   5.010  15.755  1.00  0.00     0.072 C
HETATM   13  N2  UNL     1     -34.305   5.096  17.000  1.00  0.00    -0.380 N
HETATM   14  C7  UNL     1     -34.190   6.474  17.437  1.00  0.00     0.121 C
ATOM     15  H2  UNL     1     -34.186   4.290  17.615  1.00  0.00     0.160 HD
HETATM   16  C8  UNL     1     -34.954   7.229  16.367  1.00  0.00     0.027 C
HETATM   17  C9  UNL     1     -34.676   6.365  15.156  1.00  0.00     0.077 C
ENDBRANCH  10  12
ENDBRANCH   1  10
TORSDOF 3
ENDMDL