MODEL 5
REMARK VINA RESULT: -5.619718938      0.985      1.280
REMARK  2 active torsions:
REMARK  status: ('A' for Active; 'I' for Inactive)
REMARK    1  A    between atoms: C4_4  and  C5_5
REMARK    2  A    between atoms: C6_12  and  C7_13
ROOT
HETATM    1  C5  UNL     1     -35.264   4.286  13.547  1.00  0.00     0.082 A
HETATM    2  N1  UNL     1     -34.031   3.822  13.447  1.00  0.00    -0.286 N
ATOM      3  H1  UNL     1     -33.698   3.171  12.735  1.00  0.00     0.188 HD
HETATM    4  N2  UNL     1     -33.314   4.326  14.395  1.00  0.00    -0.242 N
ATOM      5  H2  UNL     1     -32.325   4.136  14.551  1.00  0.00     0.208 HD
HETATM    6  N3  UNL     1     -34.086   5.149  15.152  1.00  0.00    -0.288 N
ATOM      7  H3  UNL     1     -33.773   5.681  15.965  1.00  0.00     0.188 HD
HETATM    8  C6  UNL     1     -35.297   5.144  14.663  1.00  0.00     0.057 A
ENDROOT
BRANCH   1   9
HETATM    9  C4  UNL     1     -36.408   4.055  12.647  1.00  0.00     0.238 C
HETATM   10  C3  UNL     1     -36.310   2.661  12.061  1.00  0.00     0.039 C
HETATM   11  C2  UNL     1     -37.469   2.384  11.143  1.00  0.00     0.004 C
HETATM   12  C1  UNL     1     -37.483   3.363  10.003  1.00  0.00     0.027 C
HETATM   13  C10 UNL     1     -36.381   4.366  10.229  1.00  0.00     0.233 C
HETATM   14  N4  UNL     1     -36.417   4.994  11.527  1.00  0.00    -0.065 N
ATOM     15  H42 UNL     1     -37.216   5.625  11.596  1.00  0.00     0.278 HD
ATOM     16  H41 UNL     1     -35.657   5.667  11.619  1.00  0.00     0.278 HD
ENDBRANCH   1   9
BRANCH   8  17
HETATM   17  C7  UNL     1     -36.522   5.734  15.225  1.00  0.00     0.039 A
HETATM   18  C8  UNL     1     -37.387   6.795  14.655  1.00  0.00     0.011 A
HETATM   19  C9  UNL     1     -36.249   7.310  15.398  1.00  0.00     0.011 A
ENDBRANCH   8  17
TORSDOF 2
ENDMDL