MODEL 3
REMARK VINA RESULT: -4.748073622      3.669      6.076
REMARK  4 active torsions:
REMARK  status: ('A' for Active; 'I' for Inactive)
REMARK    1  A    between atoms: C6_8  and  S1_9
REMARK    2  A    between atoms: S1_9  and  C7_10
REMARK    3  A    between atoms: C7_10  and  C8_11
REMARK    4  A    between atoms: C8_11  and  N2_12
ROOT
HETATM    1  C1  UNL     1     -33.000   4.942  19.626  1.00  0.00     0.038 C
HETATM    2  C2  UNL     1     -34.443   4.870  19.104  1.00  0.00     0.026 C
HETATM    3  C3  UNL     1     -35.122   3.669  19.784  1.00  0.00     0.038 C
HETATM    4  C4  UNL     1     -35.138   6.110  19.557  1.00  0.00     0.050 C
HETATM    5  C5  UNL     1     -35.821   6.905  18.498  1.00  0.00     0.124 C
HETATM    6  N1  UNL     1     -35.198   6.771  17.200  1.00  0.00    -0.371 N
ATOM      7  H1  UNL     1     -35.281   7.552  16.550  1.00  0.00     0.161 HD
HETATM    8  C6  UNL     1     -34.548   5.734  16.811  1.00  0.00     0.136 C
HETATM    9  N3  UNL     1     -34.421   4.637  17.696  1.00  0.00    -0.362 N
ATOM     10  H3  UNL     1     -34.314   3.690  17.332  1.00  0.00     0.162 HD
ENDROOT
BRANCH   8  11
HETATM   11  S1  UNL     1     -33.825   5.698  15.172  1.00  0.00    -0.093 SA
BRANCH  11  12
HETATM   12  C7  UNL     1     -35.042   5.095  13.961  1.00  0.00     0.109 C
BRANCH  12  13
HETATM   13  C8  UNL     1     -34.610   3.790  13.343  1.00  0.00     0.240 C
BRANCH  13  14
HETATM   14  N2  UNL     1     -34.268   2.887  14.426  1.00  0.00    -0.079 N
ATOM     15  H23 UNL     1     -33.737   3.341  15.170  1.00  0.00     0.274 HD
ATOM     16  H22 UNL     1     -35.075   2.613  14.986  1.00  0.00     0.274 HD
ATOM     17  H21 UNL     1     -33.778   2.091  14.018  1.00  0.00     0.274 HD
ENDBRANCH  13  14
ENDBRANCH  12  13
ENDBRANCH  11  12
ENDBRANCH   8  11
TORSDOF 4
ENDMDL