MODEL 1
REMARK VINA RESULT: -5.717595065      0.000      0.000
REMARK  2 active torsions:
REMARK  status: ('A' for Active; 'I' for Inactive)
REMARK    1  A    between atoms: C2_2  and  C4_5
REMARK    2  A    between atoms: C4_5  and  C5_6
ROOT
HETATM    1  C1  UNL     1     -33.146   5.992  20.434  1.00  0.00     0.025 C
HETATM    2  C2  UNL     1     -34.225   5.910  19.401  1.00  0.00     0.092 C
HETATM    3  C3  UNL     1     -35.422   5.372  20.105  1.00  0.00     0.063 C
HETATM    4  N1  UNL     1     -36.359   4.956  20.638  1.00  0.00    -0.197 NA
ENDROOT
BRANCH   2   5
HETATM    5  C4  UNL     1     -33.978   5.058  18.223  1.00  0.00     0.064 C
BRANCH   5   6
HETATM    6  C5  UNL     1     -34.484   5.483  16.903  1.00  0.00     0.116 C
HETATM    7  C6  UNL     1     -34.757   7.005  17.038  1.00  0.00     0.055 C
HETATM    8  O1  UNL     1     -33.520   5.320  15.885  1.00  0.00    -0.371 OA
HETATM    9  C7  UNL     1     -34.036   5.770  14.694  1.00  0.00     0.189 C
HETATM   10  C8  UNL     1     -34.902   4.651  14.121  1.00  0.00     0.147 C
HETATM   11  N2  UNL     1     -35.898   4.353  15.120  1.00  0.00    -0.376 N
HETATM   12  C9  UNL     1     -35.754   4.905  16.444  1.00  0.00     0.105 C
ATOM     13  H2  UNL     1     -36.695   3.759  14.893  1.00  0.00     0.160 HD
HETATM   14  N3  UNL     1     -36.796   4.880  17.196  1.00  0.00    -0.387 N
ATOM     15  H32 UNL     1     -36.694   5.270  18.134  1.00  0.00     0.157 HD
ATOM     16  H31 UNL     1     -37.678   4.478  16.878  1.00  0.00     0.157 HD
ENDBRANCH   5   6
ENDBRANCH   2   5
TORSDOF 2
ENDMDL