MODEL 3
REMARK VINA RESULT: -4.833806297      1.294      1.618
REMARK  4 active torsions:
REMARK  status: ('A' for Active; 'I' for Inactive)
REMARK    1  A    between atoms: C2_2  and  O1_4
REMARK    2  A    between atoms: O1_4  and  C4_5
REMARK    3  A    between atoms: C10_11  and  N1_12
REMARK    4  A    between atoms: C10_11  and  N2_16
ROOT
HETATM    1  C4  UNL     1     -35.318   4.796  16.721  1.00  0.00     0.186 C
HETATM    2  C5  UNL     1     -36.824   4.683  16.544  1.00  0.00     0.036 C
HETATM    3  C6  UNL     1     -37.556   5.830  17.198  1.00  0.00     0.003 C
HETATM    4  C7  UNL     1     -37.269   7.046  16.330  1.00  0.00     0.000 C
HETATM    5  C8  UNL     1     -35.973   7.611  16.805  1.00  0.00     0.004 C
HETATM    6  C9  UNL     1     -34.774   7.170  16.054  1.00  0.00     0.072 C
HETATM    7  C10 UNL     1     -34.695   5.722  15.723  1.00  0.00     0.307 C
ENDROOT
BRANCH   7   8
HETATM    8  N1  UNL     1     -35.256   5.405  14.421  1.00  0.00    -0.042 N
ATOM      9  H13 UNL     1     -35.162   4.418  14.178  1.00  0.00     0.277 HD
ATOM     10  H12 UNL     1     -36.274   5.449  14.406  1.00  0.00     0.277 HD
ATOM     11  H11 UNL     1     -34.821   6.026  13.739  1.00  0.00     0.277 HD
ENDBRANCH   7   8
BRANCH   7  12
HETATM   12  N2  UNL     1     -33.283   5.375  15.637  1.00  0.00    -0.042 N
ATOM     13  H23 UNL     1     -33.108   4.378  15.762  1.00  0.00     0.277 HD
ATOM     14  H22 UNL     1     -32.908   5.457  14.692  1.00  0.00     0.277 HD
ATOM     15  H21 UNL     1     -32.790   5.955  16.315  1.00  0.00     0.277 HD
ENDBRANCH   7  12
BRANCH   1  16
HETATM   16  O1  UNL     1     -34.951   5.169  17.976  1.00  0.00    -0.377 OA
BRANCH  16  17
HETATM   17  C2  UNL     1     -34.423   4.220  18.785  1.00  0.00     0.114 C
HETATM   18  C1  UNL     1     -33.111   4.508  19.407  1.00  0.00     0.039 C
HETATM   19  C3  UNL     1     -35.403   3.870  19.914  1.00  0.00     0.039 C
ENDBRANCH  16  17
ENDBRANCH   1  16
TORSDOF 4
ENDMDL