MODEL 1
REMARK VINA RESULT: -5.563423186      0.000      0.000
REMARK  2 active torsions:
REMARK  status: ('A' for Active; 'I' for Inactive)
REMARK    1  A    between atoms: C4_4  and  O1_5
REMARK    2  A    between atoms: O1_5  and  N1_6
ROOT
HETATM    1  N1  UNL     1     -35.884   4.225  14.702  1.00  0.00    -0.275 N
ATOM      2  H1  UNL     1     -36.397   3.363  14.886  1.00  0.00     0.193 HD
HETATM    3  C5  UNL     1     -35.292   4.828  15.644  1.00  0.00     0.013 C
HETATM    4  C6  UNL     1     -35.280   4.363  17.057  1.00  0.00     0.082 C
HETATM    5  C7  UNL     1     -34.186   5.176  17.760  1.00  0.00     0.238 C
HETATM    6  N2  UNL     1     -34.482   6.575  17.758  1.00  0.00    -0.074 N
ATOM      7  H21 UNL     1     -33.681   7.114  18.090  1.00  0.00     0.277 HD
ATOM      8  H22 UNL     1     -35.154   6.803  18.490  1.00  0.00     0.277 HD
HETATM    9  C8  UNL     1     -34.933   7.065  16.477  1.00  0.00     0.238 C
HETATM   10  C9  UNL     1     -34.537   6.095  15.381  1.00  0.00     0.082 C
ENDROOT
BRANCH   1  11
HETATM   11  O1  UNL     1     -35.831   4.741  13.433  1.00  0.00    -0.275 OA
BRANCH  11  12
HETATM   12  C4  UNL     1     -35.321   3.907  12.409  1.00  0.00     0.152 C
HETATM   13  C3  UNL     1     -35.784   4.489  11.093  1.00  0.00     0.034 C
HETATM   14  C2  UNL     1     -36.737   3.477  10.522  1.00  0.00     0.003 C
HETATM   15  C1  UNL     1     -37.259   2.742  11.758  1.00  0.00     0.003 C
HETATM   16  C10 UNL     1     -36.002   2.565  12.555  1.00  0.00     0.034 C
ENDBRANCH  11  12
ENDBRANCH   1  11
TORSDOF 2
ENDMDL