MODEL 4
REMARK VINA RESULT: -5.675084981      1.862      5.478
REMARK  2 active torsions:
REMARK  status: ('A' for Active; 'I' for Inactive)
REMARK    1  A    between atoms: N1_2  and  C2_4
REMARK    2  A    between atoms: C7_9  and  C8_10
ROOT
HETATM    1  C8  UNL     1     -34.410   6.016  19.024  1.00  0.00     0.156 C
HETATM    2  C9  UNL     1     -33.381   5.041  19.357  1.00  0.00     0.061 C
HETATM    3  N2  UNL     1     -32.564   4.283  19.603  1.00  0.00    -0.197 NA
ENDROOT
BRANCH   1   4
HETATM    4  C7  UNL     1     -34.914   5.902  17.649  1.00  0.00     0.199 C
HETATM    5  C6  UNL     1     -36.351   5.368  17.555  1.00  0.00     0.040 C
HETATM    6  C5  UNL     1     -36.363   5.396  16.015  1.00  0.00     0.018 C
HETATM    7  C4  UNL     1     -37.525   4.773  15.377  1.00  0.00     0.009 C
HETATM    8  C10 UNL     1     -35.098   4.548  15.808  1.00  0.00     0.192 C
HETATM    9  C3  UNL     1     -37.056   4.229  14.017  1.00  0.00     0.025 C
HETATM   10  C2  UNL     1     -35.831   5.015  13.554  1.00  0.00     0.078 C
HETATM   11  C11 UNL     1     -34.631   4.616  14.395  1.00  0.00     0.058 C
HETATM   12  N3  UNL     1     -34.171   5.005  16.790  1.00  0.00    -0.065 N
ATOM     13  H32 UNL     1     -33.330   5.424  16.393  1.00  0.00     0.278 HD
ATOM     14  H31 UNL     1     -33.706   4.250  17.294  1.00  0.00     0.278 HD
BRANCH  10  15
HETATM   15  N1  UNL     1     -35.595   4.946  12.154  1.00  0.00    -0.421 N
HETATM   16  C1  UNL     1     -35.958   3.718  11.524  1.00  0.00     0.140 C
ATOM     17  H1  UNL     1     -35.192   5.724  11.633  1.00  0.00     0.153 HD
ENDBRANCH  10  15
ENDBRANCH   1   4
TORSDOF 2
ENDMDL