MODEL 5
REMARK VINA RESULT: -5.882040418      1.583      6.346
REMARK  3 active torsions:
REMARK  status: ('A' for Active; 'I' for Inactive)
REMARK    1  A    between atoms: C1_1  and  C5_13
REMARK    2  A    between atoms: N1_2  and  N2_4
REMARK    3  A    between atoms: N2_4  and  C2_6
ROOT
HETATM    1  C1  UNL     1     -34.668   4.425  13.952  1.00  0.00     0.084 C
HETATM    2  N1  UNL     1     -34.969   4.069  15.157  1.00  0.00    -0.313 N
ATOM      3  H1  UNL     1     -35.676   3.346  15.291  1.00  0.00     0.185 HD
ENDROOT
BRANCH   2   4
HETATM    4  N2  UNL     1     -34.369   4.632  16.277  1.00  0.00    -0.272 N
ATOM      5  H2  UNL     1     -33.513   5.177  16.170  1.00  0.00     0.190 HD
BRANCH   4   6
HETATM    6  C2  UNL     1     -34.933   4.456  17.565  1.00  0.00     0.190 C
HETATM    7  N3  UNL     1     -34.384   3.817  18.563  1.00  0.00    -0.360 N
HETATM    8  C3  UNL     1     -35.247   3.841  19.721  1.00  0.00     0.142 C
ATOM      9  H3  UNL     1     -33.471   3.363  18.530  1.00  0.00     0.162 HD
HETATM   10  C4  UNL     1     -36.169   4.999  19.418  1.00  0.00     0.142 C
HETATM   11  N4  UNL     1     -36.206   4.963  17.963  1.00  0.00    -0.360 N
ATOM     12  H4  UNL     1     -36.978   5.241  17.357  1.00  0.00     0.162 HD
ENDBRANCH   4   6
ENDBRANCH   2   4
BRANCH   1  13
HETATM   13  C5  UNL     1     -35.362   3.767  12.843  1.00  0.00     0.025 C
HETATM   14  C6  UNL     1     -35.229   4.504  11.530  1.00  0.00     0.010 C
HETATM   15  C7  UNL     1     -36.375   4.218  10.618  1.00  0.00     0.001 C
HETATM   16  C8  UNL     1     -36.953   2.846  10.776  1.00  0.00     0.000 C
HETATM   17  C9  UNL     1     -37.314   2.490  12.179  1.00  0.00     0.001 C
HETATM   18  C10 UNL     1     -36.863   3.616  13.100  1.00  0.00     0.010 C
ENDBRANCH   1  13
TORSDOF 3
ENDMDL