MODEL 4
REMARK VINA RESULT: -4.901939276      2.752      5.886
REMARK  3 active torsions:
REMARK  status: ('A' for Active; 'I' for Inactive)
REMARK    1  A    between atoms: C6_6  and  N1_7
REMARK    2  A    between atoms: C7_9  and  C8_11
REMARK    3  A    between atoms: C8_11  and  C9_12
ROOT
HETATM    1  N1  UNL     1     -35.388   5.022  16.117  1.00  0.00    -0.377 N
ATOM      2  H1  UNL     1     -36.406   4.996  16.189  1.00  0.00     0.160 HD
HETATM    3  C7  UNL     1     -34.796   5.025  14.951  1.00  0.00     0.090 C
HETATM    4  N2  UNL     1     -33.385   5.060  14.833  1.00  0.00    -0.088 NA
ENDROOT
BRANCH   1   5
HETATM    5  C6  UNL     1     -34.575   5.053  17.281  1.00  0.00     0.086 C
HETATM    6  C2  UNL     1     -34.594   6.376  18.011  1.00  0.00     0.004 C
HETATM    7  C1  UNL     1     -35.956   6.801  18.438  1.00  0.00     0.012 C
HETATM    8  C3  UNL     1     -33.763   5.991  19.245  1.00  0.00     0.006 C
HETATM    9  C4  UNL     1     -34.466   4.696  19.636  1.00  0.00     0.002 C
HETATM   10  C5  UNL     1     -34.970   4.085  18.353  1.00  0.00     0.025 C
ENDBRANCH   1   5
BRANCH   3  11
HETATM   11  C8  UNL     1     -35.580   4.993  13.688  1.00  0.00     0.084 C
BRANCH  11  12
HETATM   12  C9  UNL     1     -35.043   3.875  12.830  1.00  0.00     0.093 C
HETATM   13  S1  UNL     1     -36.343   2.832  12.166  1.00  0.00    -0.097 SA
ENDBRANCH  11  12
ENDBRANCH   3  11
TORSDOF 3
ENDMDL