MODEL 1
REMARK VINA RESULT: -7.047203634      0.000      0.000
REMARK  6 active torsions:
REMARK  status: ('A' for Active; 'I' for Inactive)
REMARK    1  A    between atoms: O1_2  and  C2_3
REMARK    2  A    between atoms: C2_3  and  C3_4
REMARK    3  A    between atoms: C4_5  and  C5_6
REMARK    4  A    between atoms: C10_11  and  C11_12
REMARK    5  A    between atoms: C11_12  and  N2_16
REMARK    6  A    between atoms: N2_16  and  N3_18
ROOT
HETATM    1  C2  UNL     1      12.876  44.746  27.095  1.00  0.00     0.131 C
HETATM    2  C8  UNL     1      11.719  45.294  26.261  1.00  0.00     0.034 C
HETATM    3  C9  UNL     1      11.796  44.455  25.030  1.00  0.00     0.021 C
HETATM    4  C10 UNL     1      13.322  44.447  24.817  1.00  0.00     0.062 C
HETATM    5  C12 UNL     1      13.719  45.313  25.970  1.00  0.00     0.045 C
HETATM    6  C13 UNL     1      12.684  46.447  25.963  1.00  0.00     0.018 C
ENDROOT
BRANCH   4   7
HETATM    7  C11 UNL     1      13.698  44.974  23.509  1.00  0.00     0.093 C
HETATM    8  N1  UNL     1      14.891  45.295  23.141  1.00  0.00    -0.388 N
ATOM      9  H12 UNL     1      15.622  45.159  23.840  1.00  0.00     0.157 HD
ATOM     10  H11 UNL     1      15.154  45.663  22.227  1.00  0.00     0.157 HD
BRANCH   7  11
HETATM   11  N2  UNL     1      12.677  45.162  22.534  1.00  0.00    -0.296 N
ATOM     12  H2  UNL     1      11.715  45.368  22.803  1.00  0.00     0.187 HD
BRANCH  11  13
HETATM   13  N3  UNL     1      13.052  45.053  21.182  1.00  0.00    -0.344 N
ATOM     14  H32 UNL     1      13.768  44.386  20.897  1.00  0.00     0.176 HD
ATOM     15  H31 UNL     1      12.580  45.664  20.517  1.00  0.00     0.176 HD
ENDBRANCH  11  13
ENDBRANCH   7  11
ENDBRANCH   4   7
BRANCH   1  16
HETATM   16  O1  UNL     1      12.874  43.366  27.189  1.00  0.00    -0.371 OA
HETATM   17  C1  UNL     1      12.901  42.905  28.482  1.00  0.00     0.204 C
ENDBRANCH   1  16
BRANCH   1  18
HETATM   18  C3  UNL     1      13.036  45.471  28.355  1.00  0.00    -0.067 C
HETATM   19  C4  UNL     1      13.148  46.069  29.404  1.00  0.00    -0.099 C
BRANCH  19  20
HETATM   20  C5  UNL     1      13.259  46.786  30.678  1.00  0.00     0.065 A
HETATM   21  C6  UNL     1      13.815  46.008  31.879  1.00  0.00     0.018 A
HETATM   22  C7  UNL     1      14.647  46.993  31.160  1.00  0.00     0.018 A
ENDBRANCH  19  20
ENDBRANCH   1  18
TORSDOF 6
ENDMDL