MODEL 1
REMARK VINA RESULT: -6.378676348      0.000      0.000
REMARK  3 active torsions:
REMARK  status: ('A' for Active; 'I' for Inactive)
REMARK    1  A    between atoms: O1_1  and  C1_3
REMARK    2  A    between atoms: C8_10  and  O2_11
REMARK    3  A    between atoms: O2_11  and  C9_12
ROOT
HETATM    1  C1  UNL     1      13.388  43.560  28.637  1.00  0.00     0.128 C
HETATM    2  C2  UNL     1      12.594  43.756  29.916  1.00  0.00     0.015 C
HETATM    3  C3  UNL     1      13.476  44.509  30.880  1.00  0.00     0.012 C
HETATM    4  C4  UNL     1      13.853  45.820  30.238  1.00  0.00    -0.013 C
HETATM    5  C5  UNL     1      12.578  46.601  30.021  1.00  0.00     0.012 C
HETATM    6  C6  UNL     1      11.731  45.852  29.028  1.00  0.00     0.016 C
HETATM    7  C7  UNL     1      11.344  44.507  29.564  1.00  0.00     0.014 C
HETATM    8  C8  UNL     1      12.526  45.733  27.725  1.00  0.00     0.132 C
HETATM    9  C12 UNL     1      13.713  44.868  27.969  1.00  0.00     0.044 C
HETATM   10  C13 UNL     1      14.625  45.623  28.948  1.00  0.00     0.014 C
ENDROOT
BRANCH   8  11
HETATM   11  O2  UNL     1      11.663  45.288  26.762  1.00  0.00    -0.376 OA
BRANCH  11  12
HETATM   12  C9  UNL     1      12.129  45.264  25.493  1.00  0.00     0.173 C
HETATM   13  C10 UNL     1      11.300  44.463  24.482  1.00  0.00     0.265 C
HETATM   14  N1  UNL     1      11.800  45.421  23.482  1.00  0.00    -0.070 N
HETATM   15  C11 UNL     1      11.778  46.407  24.580  1.00  0.00     0.265 C
ATOM     16  H12 UNL     1      12.643  45.240  22.936  1.00  0.00     0.277 HD
ATOM     17  H11 UNL     1      11.313  45.583  22.601  1.00  0.00     0.277 HD
ENDBRANCH  11  12
ENDBRANCH   8  11
BRANCH   1  18
HETATM   18  O1  UNL     1      12.809  42.636  27.806  1.00  0.00    -0.395 OA
ATOM     19  H1  UNL     1      13.407  42.338  27.131  1.00  0.00     0.210 HD
ENDBRANCH   1  18
TORSDOF 3
ENDMDL