MODEL 3
REMARK VINA RESULT: -5.420770964      1.909      4.385
REMARK  3 active torsions:
REMARK  status: ('A' for Active; 'I' for Inactive)
REMARK    1  A    between atoms: C2_2  and  C4_4
REMARK    2  A    between atoms: C5_5  and  C6_6
REMARK    3  A    between atoms: C6_6  and  O1_8
ROOT
HETATM    1  C4  UNL     1      13.988  44.321  32.164  1.00  0.00     0.030 C
HETATM    2  C5  UNL     1      14.024  45.667  32.696  1.00  0.00     0.219 C
HETATM    3  N1  UNL     1      15.042  45.567  33.803  1.00  0.00    -0.060 N
ATOM      4  H11 UNL     1      14.890  46.241  34.552  1.00  0.00     0.278 HD
ATOM      5  H12 UNL     1      15.969  45.888  33.528  1.00  0.00     0.278 HD
HETATM    6  C8  UNL     1      15.024  44.225  34.247  1.00  0.00     0.215 C
HETATM    7  C9  UNL     1      16.344  43.786  34.773  1.00  0.00     0.004 C
HETATM    8  C10 UNL     1      17.067  43.208  33.832  1.00  0.00    -0.009 C
HETATM    9  C11 UNL     1      16.281  43.202  32.541  1.00  0.00     0.122 C
HETATM   10  C12 UNL     1      16.895  44.079  31.595  1.00  0.00     0.068 C
HETATM   11  N2  UNL     1      17.407  44.766  30.827  1.00  0.00    -0.197 NA
HETATM   12  C13 UNL     1      14.939  43.467  32.942  1.00  0.00     0.048 C
ENDROOT
BRANCH   1  13
HETATM   13  C2  UNL     1      13.746  43.930  30.782  1.00  0.00    -0.016 C
HETATM   14  C1  UNL     1      12.383  44.302  30.260  1.00  0.00     0.010 C
HETATM   15  C3  UNL     1      13.814  42.393  30.709  1.00  0.00     0.010 C
ENDBRANCH   1  13
BRANCH   2  16
HETATM   16  C6  UNL     1      14.434  46.856  31.913  1.00  0.00     0.145 C
HETATM   17  C7  UNL     1      13.360  47.580  31.142  1.00  0.00     0.041 C
BRANCH  16  18
HETATM   18  O1  UNL     1      14.765  47.833  32.941  1.00  0.00    -0.394 OA
ATOM     19  H1  UNL     1      14.460  48.652  32.567  1.00  0.00     0.210 HD
ENDBRANCH  16  18
ENDBRANCH   2  16
TORSDOF 3
ENDMDL