MODEL 1
REMARK VINA RESULT: -6.738996614      0.000      0.000
REMARK  3 active torsions:
REMARK  status: ('A' for Active; 'I' for Inactive)
REMARK    1  A    between atoms: C2_2  and  C4_10
REMARK    2  A    between atoms: N1_3  and  N2_5
REMARK    3  A    between atoms: N2_5  and  C3_7
ROOT
HETATM    1  C1  UNL     1      16.492  47.081  25.302  1.00  0.00     0.068 C
HETATM    2  C2  UNL     1      15.738  46.055  24.550  1.00  0.00     0.029 C
HETATM    3  N1  UNL     1      16.140  45.733  23.373  1.00  0.00    -0.305 N
ATOM      4  H1  UNL     1      15.614  45.024  22.860  1.00  0.00     0.186 HD
ENDROOT
BRANCH   2   5
HETATM    5  C4  UNL     1      14.544  45.413  25.145  1.00  0.00     0.172 C
HETATM    6  O1  UNL     1      14.042  46.277  26.115  1.00  0.00    -0.380 OA
HETATM    7  C5  UNL     1      13.079  45.679  26.905  1.00  0.00     0.169 C
HETATM    8  C6  UNL     1      11.733  45.938  26.283  1.00  0.00     0.031 C
HETATM    9  C7  UNL     1      11.600  45.410  24.895  1.00  0.00    -0.012 C
HETATM   10  C8  UNL     1      12.489  46.201  23.939  1.00  0.00     0.012 C
HETATM   11  C10 UNL     1      12.437  44.210  24.603  1.00  0.00     0.012 C
HETATM   12  C9  UNL     1      13.514  45.131  24.075  1.00  0.00     0.021 C
ENDBRANCH   2   5
BRANCH   3  13
HETATM   13  N2  UNL     1      17.243  46.294  22.765  1.00  0.00    -0.279 N
ATOM     14  H2  UNL     1      17.549  47.216  23.074  1.00  0.00     0.189 HD
BRANCH  13  15
HETATM   15  C3  UNL     1      17.972  45.653  21.735  1.00  0.00     0.199 C
HETATM   16  N3  UNL     1      17.317  44.716  20.871  1.00  0.00    -0.068 NA
HETATM   17  S1  UNL     1      19.544  45.949  21.500  1.00  0.00    -0.043 SA
ENDBRANCH  13  15
ENDBRANCH   3  13
TORSDOF 3
ENDMDL