MODEL 4
REMARK VINA RESULT: -5.255046768      2.380      5.080
REMARK  3 active torsions:
REMARK  status: ('A' for Active; 'I' for Inactive)
REMARK    1  A    between atoms: N1_2  and  C2_5
REMARK    2  A    between atoms: C5_8  and  N2_9
REMARK    3  A    between atoms: C10_14  and  O1_15
ROOT
HETATM    1  C2  UNL     1      13.634  43.342  30.940  1.00  0.00     0.186 C
HETATM    2  C3  UNL     1      14.720  43.133  31.971  1.00  0.00     0.040 C
HETATM    3  C4  UNL     1      14.565  44.377  32.744  1.00  0.00     0.031 C
HETATM    4  C5  UNL     1      15.577  44.736  33.750  1.00  0.00     0.227 C
HETATM    5  C8  UNL     1      14.972  45.935  34.498  1.00  0.00     0.038 C
HETATM    6  C9  UNL     1      14.607  47.038  33.572  1.00  0.00     0.034 C
HETATM    7  C10 UNL     1      13.930  46.654  32.304  1.00  0.00     0.127 C
HETATM    8  C11 UNL     1      14.583  45.446  31.666  1.00  0.00    -0.010 C
HETATM    9  C12 UNL     1      15.962  45.824  31.225  1.00  0.00     0.018 C
HETATM   10  C13 UNL     1      13.774  44.811  30.591  1.00  0.00     0.045 C
ENDROOT
BRANCH   1  11
HETATM   11  N1  UNL     1      13.665  42.482  29.822  1.00  0.00    -0.075 N
HETATM   12  C1  UNL     1      12.900  43.071  28.743  1.00  0.00     0.267 C
ATOM     13  H12 UNL     1      13.348  41.540  30.050  1.00  0.00     0.277 HD
ATOM     14  H11 UNL     1      14.618  42.251  29.539  1.00  0.00     0.277 HD
ENDBRANCH   1  11
BRANCH   4  15
HETATM   15  N2  UNL     1      15.977  43.686  34.606  1.00  0.00     0.085 N
HETATM   16  C6  UNL     1      17.344  43.275  34.444  1.00  0.00     0.309 C
HETATM   17  C7  UNL     1      15.574  43.822  35.978  1.00  0.00     0.309 C
ENDBRANCH   4  15
BRANCH   7  18
HETATM   18  O1  UNL     1      14.098  47.719  31.392  1.00  0.00    -0.395 OA
ATOM     19  H1  UNL     1      13.699  48.492  31.776  1.00  0.00     0.210 HD
ENDBRANCH   7  18
TORSDOF 3
ENDMDL