MODEL 5
REMARK VINA RESULT: -6.168378135      1.513      5.980
REMARK  3 active torsions:
REMARK  status: ('A' for Active; 'I' for Inactive)
REMARK    1  A    between atoms: C2_2  and  N1_5
REMARK    2  A    between atoms: C8_9  and  N2_10
REMARK    3  A    between atoms: N2_10  and  C9_12
ROOT
HETATM    1  N1  UNL     1      13.613  45.281  29.763  1.00  0.00    -0.061 N
HETATM    2  C5  UNL     1      13.381  46.561  30.438  1.00  0.00     0.273 C
HETATM    3  C6  UNL     1      14.551  45.456  28.699  1.00  0.00     0.240 C
HETATM    4  C7  UNL     1      13.761  45.774  27.442  1.00  0.00     0.055 C
HETATM    5  C8  UNL     1      12.334  45.855  27.915  1.00  0.00     0.112 C
HETATM    6  C12 UNL     1      12.356  44.948  29.130  1.00  0.00     0.263 C
ENDROOT
BRANCH   5   7
HETATM    7  N2  UNL     1      11.417  45.368  26.912  1.00  0.00    -0.356 N
ATOM      8  H2  UNL     1      10.449  45.157  27.151  1.00  0.00     0.163 HD
BRANCH   7   9
HETATM    9  C9  UNL     1      11.893  45.190  25.590  1.00  0.00     0.171 C
HETATM   10  N3  UNL     1      12.308  44.082  25.053  1.00  0.00    -0.361 N
HETATM   11  C10 UNL     1      12.715  44.294  23.682  1.00  0.00     0.142 C
ATOM     12  H3  UNL     1      12.342  43.183  25.534  1.00  0.00     0.162 HD
HETATM   13  C11 UNL     1      12.921  45.794  23.634  1.00  0.00     0.142 C
HETATM   14  N4  UNL     1      11.981  46.244  24.641  1.00  0.00    -0.361 N
ATOM     15  H4  UNL     1      11.485  47.135  24.663  1.00  0.00     0.162 HD
ENDBRANCH   7   9
ENDBRANCH   5   7
BRANCH   1  16
HETATM   16  C2  UNL     1      14.042  44.328  30.733  1.00  0.00     0.118 C
HETATM   17  C1  UNL     1      15.553  44.397  30.840  1.00  0.00     0.046 C
HETATM   18  C3  UNL     1      13.715  42.912  30.415  1.00  0.00     0.046 C
HETATM   19  C4  UNL     1      13.474  44.648  32.104  1.00  0.00     0.046 C
ENDBRANCH   1  16
TORSDOF 3
ENDMDL