MODEL 5
REMARK VINA RESULT: -6.255177557      2.488      3.779
REMARK  5 active torsions:
REMARK  status: ('A' for Active; 'I' for Inactive)
REMARK    1  A    between atoms: C3_8  and  N3_9
REMARK    2  A    between atoms: N3_9  and  C4_11
REMARK    3  A    between atoms: C4_11  and  N4_13
REMARK    4  A    between atoms: N4_13  and  C5_15
REMARK    5  A    between atoms: C5_15  and  C6_16
ROOT
HETATM    1  N3  UNL     1      12.726  44.247  25.348  1.00  0.00    -0.316 N
ATOM      2  H3  UNL     1      12.044  43.544  25.633  1.00  0.00     0.170 HD
ENDROOT
BRANCH   1   3
HETATM    3  C3  UNL     1      12.905  44.423  24.089  1.00  0.00     0.154 A
HETATM    4  C2  UNL     1      12.430  45.532  23.383  1.00  0.00     0.076 A
HETATM    5  C1  UNL     1      11.659  46.644  24.015  1.00  0.00     0.074 C
HETATM    6  N1  UNL     1      12.798  45.384  22.101  1.00  0.00    -0.242 N
HETATM    7  O1  UNL     1      13.461  44.265  21.992  1.00  0.00    -0.155 OA
ATOM      8  H1  UNL     1      12.595  46.035  21.342  1.00  0.00     0.196 HD
HETATM    9  N2  UNL     1      13.533  43.685  23.161  1.00  0.00    -0.224 N
ATOM     10  H2  UNL     1      13.999  42.797  23.342  1.00  0.00     0.198 HD
ENDBRANCH   1   3
BRANCH   1  11
HETATM   11  C4  UNL     1      13.406  44.955  26.375  1.00  0.00     0.173 C
HETATM   12  S1  UNL     1      12.471  45.443  27.634  1.00  0.00    -0.041 SA
BRANCH  11  13
HETATM   13  N4  UNL     1      14.801  45.215  26.311  1.00  0.00    -0.367 N
ATOM     14  H4  UNL     1      15.449  44.459  26.532  1.00  0.00     0.161 HD
BRANCH  13  15
HETATM   15  C5  UNL     1      15.336  46.491  25.951  1.00  0.00     0.126 C
BRANCH  15  16
HETATM   16  C6  UNL     1      16.646  46.454  25.228  1.00  0.00    -0.005 C
HETATM   17  C7  UNL     1      16.364  45.992  23.806  1.00  0.00     0.011 C
HETATM   18  C8  UNL     1      17.297  47.826  25.246  1.00  0.00     0.011 C
ENDBRANCH  15  16
ENDBRANCH  13  15
ENDBRANCH  11  13
ENDBRANCH   1  11
TORSDOF 5
ENDMDL