MODEL 2
REMARK VINA RESULT: -6.830713684      2.753      5.710
REMARK  8 active torsions:
REMARK  status: ('A' for Active; 'I' for Inactive)
REMARK    1  A    between atoms: C2_2  and  C3_3
REMARK    2  A    between atoms: C3_3  and  C4_4
REMARK    3  A    between atoms: C4_4  and  C5_5
REMARK    4  A    between atoms: C9_12  and  N2_13
REMARK    5  A    between atoms: C10_17  and  C11_18
REMARK    6  A    between atoms: C15_25  and  C16_26
REMARK    7  A    between atoms: C20_33  and  C21_34
REMARK    8  A    between atoms: C21_34  and  C22_35
ROOT
HETATM    1  C5  UNL     1      20.934  15.750  14.682  1.00  0.00     0.176 C
HETATM    2  N1  UNL     1      19.684  15.557  13.952  1.00  0.00    -0.348 N
ATOM      3  H1  UNL     1      19.554  14.669  13.465  1.00  0.00     0.163 HD
HETATM    4  C6  UNL     1      18.650  16.497  13.869  1.00  0.00     0.218 C
HETATM    5  O1  UNL     1      17.461  16.085  13.911  1.00  0.00    -0.274 OA
HETATM    6  C7  UNL     1      18.847  17.961  13.734  1.00  0.00     0.105 C
HETATM    7  C8  UNL     1      17.535  18.689  13.608  1.00  0.00     0.044 C
HETATM    8  C9  UNL     1      17.684  20.173  13.639  1.00  0.00     0.207 C
HETATM    9  C10 UNL     1      17.060  20.709  14.930  1.00  0.00     0.118 C
HETATM   10  N3  UNL     1      17.993  21.612  15.563  1.00  0.00    -0.352 N
ATOM     11  H3  UNL     1      18.153  22.511  15.107  1.00  0.00     0.163 HD
HETATM   12  C14 UNL     1      18.702  21.361  16.754  1.00  0.00     0.240 C
HETATM   13  O2  UNL     1      19.430  22.266  17.236  1.00  0.00    -0.271 OA
HETATM   14  C15 UNL     1      18.653  20.078  17.502  1.00  0.00     0.176 C
HETATM   15  N4  UNL     1      19.924  19.909  18.173  1.00  0.00    -0.348 N
ATOM     16  H4  UNL     1      20.461  20.749  18.390  1.00  0.00     0.163 HD
HETATM   17  C18 UNL     1      20.473  18.670  18.550  1.00  0.00     0.220 C
HETATM   18  O3  UNL     1      21.045  18.591  19.692  1.00  0.00    -0.274 OA
HETATM   19  C19 UNL     1      20.458  17.431  17.750  1.00  0.00     0.128 C
HETATM   20  C20 UNL     1      21.825  16.759  17.697  1.00  0.00     0.095 C
HETATM   21  N5  UNL     1      21.643  15.435  17.157  1.00  0.00    -0.349 N
HETATM   22  C25 UNL     1      22.275  14.379  17.978  1.00  0.00     0.153 C
HETATM   23  C26 UNL     1      20.948  15.080  15.975  1.00  0.00     0.242 C
HETATM   24  O4  UNL     1      20.230  14.021  16.056  1.00  0.00    -0.271 OA
ENDROOT
BRANCH   1  25
HETATM   25  C4  UNL     1      22.059  15.313  13.763  1.00  0.00     0.035 C
BRANCH  25  26
HETATM   26  C3  UNL     1      23.010  14.336  14.330  1.00  0.00     0.002 C
BRANCH  26  27
HETATM   27  C2  UNL     1      24.314  15.112  14.593  1.00  0.00    -0.004 C
HETATM   28  C1  UNL     1      24.419  16.256  13.576  1.00  0.00     0.005 C
ENDBRANCH  26  27
ENDBRANCH  25  26
ENDBRANCH   1  25
BRANCH  20  29
HETATM   29  C21 UNL     1      22.853  17.611  17.046  1.00  0.00     0.029 C
BRANCH  29  30
HETATM   30  C22 UNL     1      24.248  17.422  17.562  1.00  0.00    -0.021 C
HETATM   31  C23 UNL     1      24.347  17.245  19.031  1.00  0.00     0.009 C
HETATM   32  C24 UNL     1      25.188  18.516  17.076  1.00  0.00     0.009 C
ENDBRANCH  29  30
ENDBRANCH  20  29
BRANCH   8  33
HETATM   33  N2  UNL     1      19.092  20.529  13.571  1.00  0.00    -0.073 N
ATOM     34  H23 UNL     1      19.606  19.936  12.919  1.00  0.00     0.274 HD
ATOM     35  H22 UNL     1      19.239  21.424  13.104  1.00  0.00     0.274 HD
ATOM     36  H21 UNL     1      19.499  20.512  14.506  1.00  0.00     0.274 HD
ENDBRANCH   8  33
BRANCH   9  37
HETATM   37  C11 UNL     1      15.785  21.419  14.517  1.00  0.00     0.002 C
HETATM   38  C12 UNL     1      16.025  22.520  13.532  1.00  0.00     0.011 C
HETATM   39  C13 UNL     1      15.113  21.991  15.728  1.00  0.00     0.011 C
ENDBRANCH   9  37
BRANCH  14  40
HETATM   40  C16 UNL     1      17.522  20.224  18.515  1.00  0.00     0.030 C
HETATM   41  C17 UNL     1      18.048  20.503  19.896  1.00  0.00     0.007 C
ENDBRANCH  14  40
TORSDOF 8
ENDMDL