MODEL 3
REMARK VINA RESULT: -8.301387578      1.240      2.624
REMARK  9 active torsions:
REMARK  status: ('A' for Active; 'I' for Inactive)
REMARK    1  A    between atoms: C2_2  and  C3_3
REMARK       I    between atoms: N1_6  and  C6_7
REMARK    2  A    between atoms: C8_10  and  N2_11
REMARK    3  A    between atoms: C8_10  and  C26_37
REMARK       I    between atoms: N2_11  and  C9_13
REMARK    4  A    between atoms: C9_13  and  C10_15
REMARK       I    between atoms: N3_19  and  C14_20
REMARK    5  A    between atoms: C14_20  and  C15_22
REMARK    6  A    between atoms: C15_22  and  O4_23
REMARK    7  A    between atoms: C15_22  and  C16_25
REMARK    8  A    between atoms: C16_25  and  C18_27
REMARK    9  A    between atoms: C23_32  and  O5_34
ROOT
HETATM    1  C10 UNL     1      21.196  14.304  16.257  1.00  0.00     0.179 C
HETATM    2  C11 UNL     1      22.185  14.312  15.141  1.00  0.00     0.037 C
HETATM    3  C12 UNL     1      23.391  14.929  15.757  1.00  0.00     0.022 C
HETATM    4  C13 UNL     1      23.182  14.881  17.279  1.00  0.00     0.127 C
HETATM    5  N3  UNL     1      21.983  14.082  17.445  1.00  0.00    -0.337 N
HETATM    6  C14 UNL     1      21.633  13.189  18.541  1.00  0.00     0.249 C
HETATM    7  O3  UNL     1      20.558  12.568  18.339  1.00  0.00    -0.270 OA
ENDROOT
BRANCH   1   8
HETATM    8  C9  UNL     1      20.333  15.511  16.276  1.00  0.00     0.243 C
HETATM    9  N2  UNL     1      20.647  16.770  15.769  1.00  0.00    -0.323 N
ATOM     10  H2  UNL     1      21.577  16.853  15.356  1.00  0.00     0.165 HD
HETATM   11  O2  UNL     1      19.190  15.293  16.836  1.00  0.00    -0.271 OA
BRANCH   9  12
HETATM   12  C8  UNL     1      19.856  17.972  15.740  1.00  0.00     0.208 C
HETATM   13  C3  UNL     1      18.390  17.591  15.368  1.00  0.00     0.069 C
HETATM   14  C4  UNL     1      17.635  18.831  15.721  1.00  0.00     0.033 C
HETATM   15  C5  UNL     1      18.371  19.424  16.858  1.00  0.00     0.130 C
HETATM   16  N1  UNL     1      19.578  18.546  17.032  1.00  0.00    -0.316 N
HETATM   17  C6  UNL     1      20.123  18.457  18.322  1.00  0.00     0.218 C
HETATM   18  C7  UNL     1      19.561  19.248  19.486  1.00  0.00     0.117 C
HETATM   19  O1  UNL     1      21.084  17.744  18.613  1.00  0.00    -0.274 OA
BRANCH  13  20
HETATM   20  C2  UNL     1      18.279  17.365  13.922  1.00  0.00    -0.027 C
HETATM   21  C1  UNL     1      17.915  16.185  13.468  1.00  0.00     0.007 C
ENDBRANCH  13  20
BRANCH  12  22
HETATM   22  C26 UNL     1      20.350  18.965  14.793  1.00  0.00     0.225 C
HETATM   23  O6  UNL     1      21.549  19.432  14.807  1.00  0.00    -0.645 OA
HETATM   24  O7  UNL     1      19.581  19.510  13.779  1.00  0.00    -0.645 OA
ENDBRANCH  12  22
ENDBRANCH   9  12
ENDBRANCH   1   8
BRANCH   6  25
HETATM   25  C15 UNL     1      22.516  13.117  19.677  1.00  0.00     0.214 C
BRANCH  25  26
HETATM   26  O4  UNL     1      22.009  13.943  20.707  1.00  0.00    -0.386 OA
ATOM     27  H4  UNL     1      21.669  14.742  20.322  1.00  0.00     0.210 HD
ENDBRANCH  25  26
BRANCH  25  28
HETATM   28  C16 UNL     1      22.986  11.855  20.231  1.00  0.00     0.028 C
HETATM   29  C17 UNL     1      24.389  11.846  20.788  1.00  0.00     0.014 C
BRANCH  28  30
HETATM   30  C18 UNL     1      22.049  10.959  20.982  1.00  0.00    -0.035 C
HETATM   31  C19 UNL     1      22.956  10.094  21.888  1.00  0.00     0.016 C
HETATM   32  C20 UNL     1      20.983  11.618  21.776  1.00  0.00     0.010 C
HETATM   33  C21 UNL     1      20.285  10.564  22.622  1.00  0.00     0.004 C
HETATM   34  C22 UNL     1      19.735   9.446  21.814  1.00  0.00     0.037 C
HETATM   35  C23 UNL     1      20.029   9.567  20.340  1.00  0.00     0.055 C
HETATM   36  C24 UNL     1      19.798   8.172  19.742  1.00  0.00     0.045 C
HETATM   37  C25 UNL     1      21.423   9.968  20.029  1.00  0.00     0.046 C
BRANCH  35  38
HETATM   38  O5  UNL     1      19.072  10.394  19.755  1.00  0.00    -0.390 OA
ATOM     39  H5  UNL     1      19.089  10.267  18.814  1.00  0.00     0.210 HD
ENDBRANCH  35  38
ENDBRANCH  28  30
ENDBRANCH  25  28
ENDBRANCH   6  25
TORSDOF 9
ENDMDL