MODEL 1
REMARK VINA RESULT: -6.875379614      0.000      0.000
REMARK  10 active torsions:
REMARK  status: ('A' for Active; 'I' for Inactive)
REMARK    1  A    between atoms: S1_2  and  C2_3
REMARK    2  A    between atoms: C2_3  and  N1_5
REMARK       I    between atoms: C3_7  and  N2_8
REMARK       I    between atoms: C3_7  and  N4_27
REMARK    3  A    between atoms: N2_8  and  C4_10
REMARK    4  A    between atoms: C4_10  and  C5_11
REMARK    5  A    between atoms: C4_10  and  C8_16
REMARK    6  A    between atoms: C5_11  and  C6_12
REMARK    7  A    between atoms: C6_12  and  C7_13
REMARK       I    between atoms: C8_16  and  N3_18
REMARK    8  A    between atoms: C11_21  and  C12_22
REMARK    9  A    between atoms: C17_30  and  C18_31
REMARK   10  A    between atoms: C18_31  and  N5_32
ROOT
HETATM    1  N1  UNL     1      21.386  18.524  16.708  1.00  0.00    -0.176 N
ATOM      2  H1  UNL     1      21.442  19.041  17.586  1.00  0.00     0.185 HD
HETATM    3  C3  UNL     1      20.193  18.240  16.241  1.00  0.00     0.678 C
HETATM    4  N2  UNL     1      20.183  17.529  15.029  1.00  0.00    -0.213 N
ATOM      5  H2  UNL     1      20.602  17.979  14.215  1.00  0.00     0.178 HD
HETATM    6  N4  UNL     1      19.134  18.697  17.024  1.00  0.00    -0.218 N
HETATM    7  C15 UNL     1      18.202  19.727  16.646  1.00  0.00     0.141 C
HETATM    8  C16 UNL     1      17.921  20.728  17.711  1.00  0.00     0.027 C
HETATM    9  C17 UNL     1      18.375  20.436  19.086  1.00  0.00     0.014 C
HETATM   10  C19 UNL     1      19.267  19.267  19.295  1.00  0.00     0.027 C
HETATM   11  C20 UNL     1      18.935  18.139  18.348  1.00  0.00     0.141 C
ENDROOT
BRANCH   4  12
HETATM   12  C4  UNL     1      19.617  16.186  14.843  1.00  0.00     0.192 C
BRANCH  12  13
HETATM   13  C5  UNL     1      18.822  16.177  13.544  1.00  0.00     0.046 C
BRANCH  13  14
HETATM   14  C6  UNL     1      17.711  17.217  13.594  1.00  0.00     0.116 C
BRANCH  14  15
HETATM   15  C7  UNL     1      16.509  16.618  12.972  1.00  0.00     0.172 C
HETATM   16  O1  UNL     1      15.434  16.505  13.633  1.00  0.00    -0.648 OA
HETATM   17  O2  UNL     1      16.562  16.181  11.664  1.00  0.00    -0.648 OA
ENDBRANCH  14  15
ENDBRANCH  13  14
ENDBRANCH  12  13
BRANCH  12  18
HETATM   18  C8  UNL     1      20.682  15.160  14.867  1.00  0.00     0.243 C
HETATM   19  O3  UNL     1      21.378  15.045  13.808  1.00  0.00    -0.271 OA
HETATM   20  N3  UNL     1      21.011  14.306  15.920  1.00  0.00    -0.350 N
HETATM   21  C9  UNL     1      20.343  14.363  17.191  1.00  0.00     0.127 C
HETATM   22  C14 UNL     1      22.053  13.323  15.775  1.00  0.00     0.127 C
HETATM   23  C10 UNL     1      19.722  13.024  17.479  1.00  0.00     0.035 C
HETATM   24  C11 UNL     1      20.798  11.986  17.521  1.00  0.00     0.090 C
HETATM   25  C13 UNL     1      21.739  11.991  16.365  1.00  0.00     0.035 C
BRANCH  24  26
HETATM   26  C12 UNL     1      21.468  11.992  18.843  1.00  0.00     0.177 C
HETATM   27  O4  UNL     1      20.853  11.585  19.840  1.00  0.00    -0.648 OA
HETATM   28  O5  UNL     1      22.776  12.449  18.973  1.00  0.00    -0.648 OA
ENDBRANCH  24  26
ENDBRANCH  12  18
ENDBRANCH   4  12
BRANCH   1  29
HETATM   29  C2  UNL     1      22.575  18.172  16.091  1.00  0.00     0.153 C
HETATM   30  S2  UNL     1      23.159  19.010  14.835  1.00  0.00    -0.052 SA
BRANCH  29  31
HETATM   31  S1  UNL     1      23.477  16.770  16.691  1.00  0.00    -0.104 SA
HETATM   32  C1  UNL     1      23.161  16.363  18.400  1.00  0.00     0.098 C
ENDBRANCH  29  31
ENDBRANCH   1  29
BRANCH   9  33
HETATM   33  C18 UNL     1      17.216  20.365  20.089  1.00  0.00     0.234 C
BRANCH  33  34
HETATM   34  N5  UNL     1      17.325  21.459  21.043  1.00  0.00    -0.079 N
ATOM     35  H53 UNL     1      17.086  21.167  21.991  1.00  0.00     0.274 HD
ATOM     36  H52 UNL     1      18.296  21.725  21.212  1.00  0.00     0.274 HD
ATOM     37  H51 UNL     1      16.760  22.247  20.729  1.00  0.00     0.274 HD
ENDBRANCH  33  34
ENDBRANCH   9  33
TORSDOF 10
ENDMDL