MODEL 1
REMARK VINA RESULT: -7.642227531      0.000      0.000
REMARK  7 active torsions:
REMARK  status: ('A' for Active; 'I' for Inactive)
REMARK    1  A    between atoms: C2_2  and  C4_4
REMARK    2  A    between atoms: C4_4  and  C5_5
REMARK    3  A    between atoms: C7_10  and  C8_11
REMARK    4  A    between atoms: C8_11  and  C9_12
REMARK    5  A    between atoms: C13_19  and  C14_20
REMARK    6  A    between atoms: C14_20  and  C15_21
REMARK    7  A    between atoms: C19_28  and  C20_29
ROOT
HETATM    1  C5  UNL     1      22.771  13.463  19.860  1.00  0.00     0.177 C
HETATM    2  N1  UNL     1      22.619  14.816  19.418  1.00  0.00    -0.346 N
ATOM      3  H1  UNL     1      21.672  15.187  19.490  1.00  0.00     0.163 HD
HETATM    4  C6  UNL     1      23.566  15.712  18.903  1.00  0.00     0.241 C
HETATM    5  O1  UNL     1      23.735  16.850  19.424  1.00  0.00    -0.271 OA
HETATM    6  C7  UNL     1      24.471  15.457  17.708  1.00  0.00     0.177 C
HETATM    7  N2  UNL     1      24.758  16.761  17.108  1.00  0.00    -0.346 N
ATOM      8  H2  UNL     1      25.664  17.187  17.302  1.00  0.00     0.163 HD
HETATM    9  C12 UNL     1      23.852  17.471  16.273  1.00  0.00     0.241 C
HETATM   10  O2  UNL     1      23.638  18.716  16.537  1.00  0.00    -0.271 OA
HETATM   11  C13 UNL     1      23.124  16.926  15.131  1.00  0.00     0.177 C
HETATM   12  N3  UNL     1      21.888  17.686  14.986  1.00  0.00    -0.347 N
ATOM     13  H3  UNL     1      21.943  18.597  14.531  1.00  0.00     0.163 HD
HETATM   14  C18 UNL     1      20.624  17.255  15.429  1.00  0.00     0.222 C
HETATM   15  O3  UNL     1      19.866  18.075  16.037  1.00  0.00    -0.273 OA
HETATM   16  C19 UNL     1      20.111  15.873  15.226  1.00  0.00     0.081 C
HETATM   17  C23 UNL     1      19.880  15.166  16.568  1.00  0.00     0.024 C
HETATM   18  C24 UNL     1      20.646  13.895  16.537  1.00  0.00     0.104 C
HETATM   19  C25 UNL     1      20.356  12.940  17.631  1.00  0.00     0.224 C
HETATM   20  O4  UNL     1      19.186  12.891  18.077  1.00  0.00    -0.273 OA
HETATM   21  N4  UNL     1      21.322  12.069  18.215  1.00  0.00    -0.296 N
ATOM     22  H4  UNL     1      21.095  11.075  18.228  1.00  0.00     0.171 HD
HETATM   23  C26 UNL     1      22.567  12.446  18.778  1.00  0.00     0.247 C
HETATM   24  O5  UNL     1      23.596  11.847  18.303  1.00  0.00    -0.271 OA
ENDROOT
BRANCH   1  25
HETATM   25  C4  UNL     1      21.969  13.092  21.090  1.00  0.00     0.038 C
BRANCH  25  26
HETATM   26  C2  UNL     1      22.633  12.164  22.017  1.00  0.00    -0.020 C
HETATM   27  C1  UNL     1      22.131  10.771  22.085  1.00  0.00     0.009 C
HETATM   28  C3  UNL     1      24.151  12.220  21.838  1.00  0.00     0.009 C
ENDBRANCH  25  26
ENDBRANCH   1  25
BRANCH   6  29
HETATM   29  C8  UNL     1      25.751  14.833  18.158  1.00  0.00     0.038 C
BRANCH  29  30
HETATM   30  C9  UNL     1      27.023  15.430  17.682  1.00  0.00    -0.020 C
HETATM   31  C10 UNL     1      27.683  14.436  16.714  1.00  0.00     0.009 C
HETATM   32  C11 UNL     1      28.057  15.795  18.678  1.00  0.00     0.009 C
ENDBRANCH  29  30
ENDBRANCH   6  29
BRANCH  11  33
HETATM   33  C14 UNL     1      23.917  16.885  13.878  1.00  0.00     0.038 C
BRANCH  33  34
HETATM   34  C15 UNL     1      24.430  15.611  13.356  1.00  0.00    -0.020 C
HETATM   35  C16 UNL     1      25.839  15.243  13.622  1.00  0.00     0.009 C
HETATM   36  C17 UNL     1      23.565  14.500  13.999  1.00  0.00     0.009 C
ENDBRANCH  33  34
ENDBRANCH  11  33
BRANCH  16  37
HETATM   37  C20 UNL     1      18.859  15.870  14.387  1.00  0.00    -0.010 C
HETATM   38  C21 UNL     1      18.787  16.950  13.372  1.00  0.00     0.010 C
HETATM   39  C22 UNL     1      17.605  15.845  15.210  1.00  0.00     0.010 C
ENDBRANCH  16  37
TORSDOF 7
ENDMDL