MODEL 2
REMARK VINA RESULT: -6.778388765      3.492      7.379
REMARK  11 active torsions:
REMARK  status: ('A' for Active; 'I' for Inactive)
REMARK    1  A    between atoms: C2_2  and  C3_3
REMARK    2  A    between atoms: C3_3  and  C5_5
REMARK    3  A    between atoms: C7_7  and  O1_8
REMARK    4  A    between atoms: O1_8  and  C8_9
REMARK    5  A    between atoms: C10_14  and  C11_15
REMARK    6  A    between atoms: C14_20  and  O4_21
REMARK    7  A    between atoms: C15_23  and  C16_24
REMARK    8  A    between atoms: C16_24  and  C17_25
REMARK    9  A    between atoms: C20_30  and  O5_31
REMARK   10  A    between atoms: C21_35  and  C22_36
REMARK   11  A    between atoms: C25_39  and  O6_40
ROOT
HETATM    1  C5  UNL     1      22.559  18.362  15.762  1.00  0.00     0.089 C
HETATM    2  C6  UNL     1      23.430  18.040  14.577  1.00  0.00     0.066 C
HETATM    3  C7  UNL     1      24.581  17.076  14.854  1.00  0.00     0.206 C
HETATM    4  C9  UNL     1      24.202  15.683  15.072  1.00  0.00     0.179 C
HETATM    5  O3  UNL     1      23.740  15.110  14.050  1.00  0.00    -0.293 OA
HETATM    6  C10 UNL     1      24.261  14.820  16.263  1.00  0.00     0.159 C
HETATM    7  N2  UNL     1      23.477  13.607  16.107  1.00  0.00    -0.361 N
ATOM      8  H2  UNL     1      23.988  12.878  15.609  1.00  0.00     0.162 HD
HETATM    9  C14 UNL     1      22.223  13.209  16.464  1.00  0.00     0.135 C
HETATM   10  C15 UNL     1      21.238  13.698  17.458  1.00  0.00     0.159 C
HETATM   11  N3  UNL     1      19.934  13.878  16.768  1.00  0.00    -0.345 N
ATOM     12  H3  UNL     1      19.854  13.333  15.911  1.00  0.00     0.163 HD
HETATM   13  C20 UNL     1      18.809  14.626  17.042  1.00  0.00     0.214 C
HETATM   14  N4  UNL     1      18.586  16.039  17.037  1.00  0.00    -0.344 N
ATOM     15  H4  UNL     1      18.075  16.427  17.831  1.00  0.00     0.164 HD
HETATM   16  C21 UNL     1      19.015  16.978  16.013  1.00  0.00     0.163 C
HETATM   17  C25 UNL     1      20.444  16.790  15.656  1.00  0.00     0.135 C
HETATM   18  N5  UNL     1      21.628  17.309  16.095  1.00  0.00    -0.368 N
ATOM     19  H5  UNL     1      21.957  16.793  16.911  1.00  0.00     0.161 HD
ENDROOT
BRANCH   1  20
HETATM   20  C3  UNL     1      23.458  18.782  16.904  1.00  0.00     0.004 C
HETATM   21  C4  UNL     1      23.640  20.286  16.908  1.00  0.00     0.012 C
BRANCH  20  22
HETATM   22  C2  UNL     1      22.909  18.396  18.267  1.00  0.00     0.002 C
HETATM   23  C1  UNL     1      23.801  17.378  18.889  1.00  0.00     0.005 C
ENDBRANCH  20  22
ENDBRANCH   1  20
BRANCH   3  24
HETATM   24  O1  UNL     1      25.427  17.166  13.661  1.00  0.00    -0.293 OA
BRANCH  24  25
HETATM   25  C8  UNL     1      26.121  18.274  13.317  1.00  0.00     0.373 C
HETATM   26  N1  UNL     1      25.900  18.858  12.022  1.00  0.00    -0.032 NA
HETATM   27  O2  UNL     1      26.952  18.795  14.105  1.00  0.00    -0.242 OA
ENDBRANCH  24  25
ENDBRANCH   3  24
BRANCH  17  28
HETATM   28  O6  UNL     1      20.524  15.900  14.689  1.00  0.00    -0.348 OA
ATOM     29  H6  UNL     1      21.426  15.613  14.614  1.00  0.00     0.219 HD
ENDBRANCH  17  28
BRANCH  16  30
HETATM   30  C22 UNL     1      18.550  18.338  16.368  1.00  0.00     0.008 C
HETATM   31  C23 UNL     1      18.910  19.404  15.363  1.00  0.00     0.012 C
HETATM   32  C24 UNL     1      18.905  18.811  17.736  1.00  0.00     0.012 C
ENDBRANCH  16  30
BRANCH   6  33
HETATM   33  C11 UNL     1      25.683  14.451  16.684  1.00  0.00     0.007 C
HETATM   34  C12 UNL     1      25.613  13.541  17.922  1.00  0.00     0.012 C
HETATM   35  C13 UNL     1      26.495  15.640  17.136  1.00  0.00     0.012 C
ENDBRANCH   6  33
BRANCH  13  36
HETATM   36  O5  UNL     1      17.684  14.014  17.375  1.00  0.00    -0.333 OA
ATOM     37  H5  UNL     1      16.934  14.528  17.649  1.00  0.00     0.220 HD
ENDBRANCH  13  36
BRANCH   9  38
HETATM   38  O4  UNL     1      21.765  12.178  15.805  1.00  0.00    -0.348 OA
ATOM     39  H4  UNL     1      21.179  11.616  16.298  1.00  0.00     0.219 HD
ENDBRANCH   9  38
BRANCH  10  40
HETATM   40  C16 UNL     1      20.946  12.736  18.544  1.00  0.00     0.037 C
BRANCH  40  41
HETATM   41  C17 UNL     1      21.670  12.649  19.798  1.00  0.00    -0.020 C
HETATM   42  C18 UNL     1      22.699  11.475  19.532  1.00  0.00     0.009 C
HETATM   43  C19 UNL     1      22.655  13.795  20.074  1.00  0.00     0.009 C
ENDBRANCH  40  41
ENDBRANCH  10  40
TORSDOF 11
ENDMDL