MODEL 5
REMARK VINA RESULT: -9.276608820      2.279      2.589
REMARK  8 active torsions:
REMARK  status: ('A' for Active; 'I' for Inactive)
REMARK    1  A    between atoms: N1_1  and  C1_5
REMARK       I    between atoms: N2_8  and  C4_9
REMARK    2  A    between atoms: C4_9  and  C5_11
REMARK    3  A    between atoms: C5_11  and  N3_12
REMARK       I    between atoms: N3_12  and  C6_14
REMARK    4  A    between atoms: C6_14  and  C7_16
REMARK    5  A    between atoms: C13_22  and  C14_23
REMARK       I    between atoms: C14_23  and  N4_25
REMARK    6  A    between atoms: N4_25  and  C15_27
REMARK    7  A    between atoms: C15_27  and  C16_28
REMARK    8  A    between atoms: C16_28  and  C17_29
ROOT
HETATM    1  C7  UNL     1      22.382  11.422  19.058  1.00  0.00     0.176 C
HETATM    2  C8  UNL     1      23.793  11.183  19.432  1.00  0.00     0.035 C
HETATM    3  C9  UNL     1      24.285  11.566  20.751  1.00  0.00     0.007 C
HETATM    4  C10 UNL     1      23.390  12.027  21.815  1.00  0.00    -0.010 C
HETATM    5  C11 UNL     1      22.666  11.026  22.628  1.00  0.00     0.007 C
HETATM    6  C12 UNL     1      21.984   9.907  21.981  1.00  0.00     0.035 C
HETATM    7  C13 UNL     1      21.301  10.153  20.679  1.00  0.00     0.176 C
HETATM    8  N5  UNL     1      21.444  11.432  20.115  1.00  0.00    -0.367 N
HETATM    9  C24 UNL     1      21.202  12.563  20.873  1.00  0.00     0.060 C
HETATM   10  C25 UNL     1      22.474  13.182  21.384  1.00  0.00     0.049 C
ENDROOT
BRANCH   1  11
HETATM   11  C6  UNL     1      22.274  12.539  18.095  1.00  0.00     0.240 C
HETATM   12  N3  UNL     1      21.185  12.544  17.196  1.00  0.00    -0.351 N
ATOM     13  H3  UNL     1      20.521  11.771  17.250  1.00  0.00     0.163 HD
HETATM   14  O2  UNL     1      23.083  13.494  18.013  1.00  0.00    -0.271 OA
BRANCH  12  15
HETATM   15  C5  UNL     1      20.944  13.568  16.203  1.00  0.00     0.225 C
BRANCH  15  16
HETATM   16  C4  UNL     1      19.734  14.345  16.462  1.00  0.00     0.237 C
HETATM   17  N2  UNL     1      19.477  15.545  15.765  1.00  0.00    -0.351 N
HETATM   18  C3  UNL     1      20.429  16.007  14.782  1.00  0.00     0.128 C
HETATM   19  C26 UNL     1      18.294  16.306  16.016  1.00  0.00     0.128 C
HETATM   20  C2  UNL     1      19.595  16.589  13.643  1.00  0.00     0.052 C
HETATM   21  C1  UNL     1      18.965  17.860  14.152  1.00  0.00     0.186 C
HETATM   22  C27 UNL     1      18.425  17.737  15.538  1.00  0.00     0.052 C
HETATM   23  O1  UNL     1      18.906  13.944  17.315  1.00  0.00    -0.272 OA
BRANCH  21  24
HETATM   24  N1  UNL     1      19.923  18.945  14.122  1.00  0.00    -0.075 N
ATOM     25  H13 UNL     1      20.817  18.675  14.533  1.00  0.00     0.274 HD
ATOM     26  H12 UNL     1      20.246  19.141  13.175  1.00  0.00     0.274 HD
ATOM     27  H11 UNL     1      19.534  19.774  14.571  1.00  0.00     0.274 HD
ENDBRANCH  21  24
ENDBRANCH  15  16
ENDBRANCH  12  15
ENDBRANCH   1  11
BRANCH   7  28
HETATM   28  C14 UNL     1      19.866   9.763  20.697  1.00  0.00     0.240 C
HETATM   29  O3  UNL     1      19.366   9.292  21.766  1.00  0.00    -0.271 OA
HETATM   30  N4  UNL     1      19.035   9.902  19.554  1.00  0.00    -0.359 N
ATOM     31  H4  UNL     1      19.417  10.278  18.686  1.00  0.00     0.162 HD
BRANCH  30  32
HETATM   32  C15 UNL     1      17.627   9.504  19.626  1.00  0.00     0.123 C
BRANCH  32  33
HETATM   33  C16 UNL     1      16.909  10.080  18.438  1.00  0.00     0.024 C
BRANCH  33  34
HETATM   34  C17 UNL     1      15.447   9.820  18.412  1.00  0.00    -0.013 C
HETATM   35  C18 UNL     1      15.103   8.709  17.479  1.00  0.00     0.005 C
HETATM   36  C19 UNL     1      13.837   9.044  16.711  1.00  0.00     0.000 C
HETATM   37  C20 UNL     1      12.669   8.611  17.596  1.00  0.00     0.000 C
HETATM   38  C21 UNL     1      12.658   9.464  18.863  1.00  0.00     0.000 C
HETATM   39  C22 UNL     1      13.615   8.853  19.834  1.00  0.00     0.000 C
HETATM   40  C23 UNL     1      14.990   9.442  19.802  1.00  0.00     0.005 C
ENDBRANCH  33  34
ENDBRANCH  32  33
ENDBRANCH  30  32
ENDBRANCH   7  28
TORSDOF 8
ENDMDL