MODEL 1
REMARK VINA RESULT: -8.991452373      0.000      0.000
REMARK  9 active torsions:
REMARK  status: ('A' for Active; 'I' for Inactive)
REMARK    1  A    between atoms: C3_3  and  N1_4
REMARK       I    between atoms: N1_4  and  C4_6
REMARK    2  A    between atoms: C4_6  and  C5_8
REMARK       I    between atoms: N2_12  and  C9_13
REMARK    3  A    between atoms: C9_13  and  C10_15
REMARK    4  A    between atoms: C10_15  and  C11_16
REMARK    5  A    between atoms: C10_15  and  N5_30
REMARK    6  A    between atoms: C11_16  and  C12_17
REMARK    7  A    between atoms: C15_20  and  C16_21
REMARK       I    between atoms: N5_30  and  C21_32
REMARK    8  A    between atoms: C21_32  and  O4_34
REMARK    9  A    between atoms: O4_34  and  C22_35
ROOT
HETATM    1  C1  UNL     1      25.567  14.539  16.079  1.00  0.00     0.014 C
HETATM    2  C2  UNL     1      25.422  14.250  17.247  1.00  0.00    -0.098 C
HETATM    3  C3  UNL     1      25.235  13.878  18.666  1.00  0.00     0.216 C
ENDROOT
BRANCH   3   4
HETATM    4  N1  UNL     1      24.181  12.887  18.824  1.00  0.00    -0.349 N
HETATM    5  C4  UNL     1      24.215  11.931  19.891  1.00  0.00     0.241 C
HETATM    6  O1  UNL     1      25.179  11.965  20.695  1.00  0.00    -0.271 OA
ATOM      7  H1  UNL     1      23.404  12.873  18.164  1.00  0.00     0.163 HD
BRANCH   5   8
HETATM    8  C5  UNL     1      23.144  10.947  20.026  1.00  0.00     0.179 C
HETATM    9  C6  UNL     1      22.978  10.566  21.483  1.00  0.00     0.037 C
HETATM   10  C7  UNL     1      22.285  11.737  22.085  1.00  0.00     0.022 C
HETATM   11  C8  UNL     1      21.514  12.356  20.935  1.00  0.00     0.127 C
HETATM   12  N2  UNL     1      21.824  11.560  19.772  1.00  0.00    -0.337 N
HETATM   13  C9  UNL     1      21.036  11.370  18.628  1.00  0.00     0.243 C
HETATM   14  O2  UNL     1      21.475  10.583  17.706  1.00  0.00    -0.271 OA
BRANCH  13  15
HETATM   15  C10 UNL     1      19.708  12.030  18.424  1.00  0.00     0.179 C
BRANCH  15  16
HETATM   16  C11 UNL     1      19.720  12.970  17.265  1.00  0.00     0.040 C
BRANCH  16  17
HETATM   17  C12 UNL     1      20.830  13.978  17.251  1.00  0.00    -0.007 C
HETATM   18  C13 UNL     1      21.571  13.823  15.901  1.00  0.00     0.011 C
HETATM   19  C14 UNL     1      20.691  14.894  15.371  1.00  0.00     0.001 C
HETATM   20  C15 UNL     1      21.272  15.911  14.459  1.00  0.00     0.054 C
HETATM   21  C20 UNL     1      20.503  15.376  16.791  1.00  0.00    -0.005 C
HETATM   22  C17 UNL     1      22.556  16.452  14.966  1.00  0.00     0.012 C
HETATM   23  C18 UNL     1      22.636  16.706  16.431  1.00  0.00     0.001 C
HETATM   24  C19 UNL     1      21.426  16.443  17.234  1.00  0.00     0.005 C
BRANCH  20  25
HETATM   25  C16 UNL     1      20.248  16.931  14.161  1.00  0.00     0.091 C
HETATM   26  N3  UNL     1      20.526  18.180  14.190  1.00  0.00    -0.391 N
ATOM     27  H32 UNL     1      21.482  18.441  14.429  1.00  0.00     0.157 HD
ATOM     28  H31 UNL     1      19.818  18.885  13.985  1.00  0.00     0.157 HD
HETATM   29  N4  UNL     1      18.904  16.565  13.825  1.00  0.00    -0.088 NA
ENDBRANCH  20  25
ENDBRANCH  16  17
ENDBRANCH  15  16
BRANCH  15  30
HETATM   30  N5  UNL     1      18.704  11.013  18.141  1.00  0.00    -0.324 N
HETATM   31  C21 UNL     1      18.110  10.218  19.131  1.00  0.00     0.361 C
HETATM   32  O3  UNL     1      18.488  10.408  20.326  1.00  0.00    -0.238 OA
ATOM     33  H5  UNL     1      18.419  10.873  17.171  1.00  0.00     0.165 HD
BRANCH  31  34
HETATM   34  O4  UNL     1      17.153   9.251  18.926  1.00  0.00    -0.297 OA
BRANCH  34  35
HETATM   35  C22 UNL     1      15.834   9.488  19.296  1.00  0.00     0.149 C
HETATM   36  C23 UNL     1      14.931  10.154  18.268  1.00  0.00     0.039 C
HETATM   37  C24 UNL     1      13.599   9.973  18.893  1.00  0.00    -0.023 C
HETATM   38  C27 UNL     1      15.077   8.849  17.495  1.00  0.00     0.022 C
HETATM   39  C25 UNL     1      13.655   8.687  19.325  1.00  0.00    -0.023 C
HETATM   40  C26 UNL     1      14.991   8.262  18.913  1.00  0.00     0.039 C
ENDBRANCH  34  35
ENDBRANCH  31  34
ENDBRANCH  15  30
ENDBRANCH  13  15
ENDBRANCH   5   8
ENDBRANCH   3   4
TORSDOF 9
ENDMDL