MODEL 2
REMARK VINA RESULT: -9.553740670      2.347      6.978
REMARK  8 active torsions:
REMARK  status: ('A' for Active; 'I' for Inactive)
REMARK       I    between atoms: C1_2  and  N1_3
REMARK       I    between atoms: C1_2  and  N4_27
REMARK    1  A    between atoms: N1_3  and  C2_5
REMARK    2  A    between atoms: C2_5  and  C3_6
REMARK    3  A    between atoms: C2_5  and  C13_20
REMARK    4  A    between atoms: C3_6  and  S1_7
REMARK    5  A    between atoms: S1_7  and  N2_10
REMARK       I    between atoms: C13_20  and  N3_22
REMARK    6  A    between atoms: N3_22  and  C14_24
REMARK    7  A    between atoms: C14_24  and  O5_25
REMARK    8  A    between atoms: N4_27  and  C15_29
ROOT
HETATM    1  C2  UNL     1      19.179  10.404  18.738  1.00  0.00     0.194 C
ENDROOT
BRANCH   1   2
HETATM    2  N1  UNL     1      19.300  11.847  18.695  1.00  0.00    -0.329 N
HETATM    3  C1  UNL     1      19.885  12.547  17.616  1.00  0.00     0.317 C
HETATM    4  O1  UNL     1      20.325  11.896  16.646  1.00  0.00    -0.247 OA
HETATM    5  N4  UNL     1      19.981  13.952  17.617  1.00  0.00    -0.334 N
ATOM      6  H4  UNL     1      19.612  14.447  18.430  1.00  0.00     0.165 HD
ATOM      7  H1  UNL     1      18.944  12.387  19.484  1.00  0.00     0.165 HD
BRANCH   5   8
HETATM    8  C15 UNL     1      20.553  14.743  16.568  1.00  0.00     0.035 C
HETATM    9  C16 UNL     1      21.010  16.095  17.133  1.00  0.00     0.035 C
HETATM   10  C17 UNL     1      21.502  17.008  16.055  1.00  0.00    -0.012 C
HETATM   11  C18 UNL     1      22.697  16.372  15.396  1.00  0.00     0.009 C
HETATM   12  C22 UNL     1      20.420  17.238  15.021  1.00  0.00     0.009 C
HETATM   13  C19 UNL     1      22.290  15.012  14.872  1.00  0.00    -0.012 C
HETATM   14  C20 UNL     1      21.216  15.187  13.843  1.00  0.00     0.009 C
HETATM   15  C24 UNL     1      21.771  14.108  15.959  1.00  0.00     0.035 C
HETATM   16  C21 UNL     1      20.041  15.915  14.432  1.00  0.00    -0.012 C
HETATM   17  C23 UNL     1      19.472  15.046  15.550  1.00  0.00     0.035 C
ENDBRANCH   5   8
ENDBRANCH   1   2
BRANCH   1  18
HETATM   18  C3  UNL     1      20.301   9.712  19.448  1.00  0.00     0.198 C
BRANCH  18  19
HETATM   19  S1  UNL     1      21.084  10.647  20.703  1.00  0.00     0.231 S
HETATM   20  O2  UNL     1      20.003  11.157  21.648  1.00  0.00    -0.206 OA
HETATM   21  O3  UNL     1      22.005   9.822  21.552  1.00  0.00    -0.206 OA
BRANCH  19  22
HETATM   22  N2  UNL     1      21.941  11.995  20.131  1.00  0.00    -0.310 N
HETATM   23  C4  UNL     1      21.966  13.124  20.997  1.00  0.00     0.135 C
HETATM   24  C5  UNL     1      22.919  14.197  20.593  1.00  0.00     0.025 C
HETATM   25  C6  UNL     1      23.219  14.175  19.110  1.00  0.00    -0.007 C
HETATM   26  C7  UNL     1      24.203  15.242  18.764  1.00  0.00     0.005 C
HETATM   27  C11 UNL     1      23.794  12.826  18.742  1.00  0.00     0.008 C
HETATM   28  C8  UNL     1      25.051  14.881  17.546  1.00  0.00     0.000 C
HETATM   29  C9  UNL     1      25.927  13.685  17.850  1.00  0.00     0.000 C
HETATM   30  C10 UNL     1      25.299  12.855  18.958  1.00  0.00     0.007 C
HETATM   31  C12 UNL     1      23.172  11.692  19.477  1.00  0.00     0.140 C
ENDBRANCH  19  22
ENDBRANCH  18  19
ENDBRANCH   1  18
BRANCH   1  32
HETATM   32  C13 UNL     1      17.849   9.963  19.162  1.00  0.00     0.243 C
HETATM   33  O4  UNL     1      17.688   9.477  20.301  1.00  0.00    -0.271 OA
HETATM   34  N3  UNL     1      16.734  10.078  18.304  1.00  0.00    -0.338 N
ATOM     35  H3  UNL     1      16.858  10.476  17.373  1.00  0.00     0.164 HD
BRANCH  34  36
HETATM   36  C14 UNL     1      15.422   9.644  18.719  1.00  0.00     0.290 C
BRANCH  36  37
HETATM   37  O5  UNL     1      15.068  10.312  19.893  1.00  0.00    -0.382 OA
ATOM     38  H5  UNL     1      14.259   9.945  20.229  1.00  0.00     0.211 HD
ENDBRANCH  36  37
ENDBRANCH  34  36
ENDBRANCH   1  32
TORSDOF 8
ENDMDL