MODEL 5
REMARK VINA RESULT: -8.956266133      1.737      9.948
REMARK  8 active torsions:
REMARK  status: ('A' for Active; 'I' for Inactive)
REMARK    1  A    between atoms: C2_2  and  C3_3
REMARK    2  A    between atoms: C2_2  and  N2_6
REMARK    3  A    between atoms: N2_6  and  C4_7
REMARK       I    between atoms: N2_6  and  C21_29
REMARK    4  A    between atoms: C4_7  and  C5_8
REMARK    5  A    between atoms: C8_11  and  O2_12
REMARK    6  A    between atoms: C11_16  and  C12_17
REMARK       I    between atoms: C12_17  and  N3_19
REMARK    7  A    between atoms: N3_19  and  C13_21
REMARK       I    between atoms: C21_29  and  N4_31
REMARK    8  A    between atoms: N4_31  and  C22_33
ROOT
HETATM    1  C5  UNL     1      20.152  12.133  17.769  1.00  0.00     0.026 C
HETATM    2  C6  UNL     1      20.914  12.084  19.077  1.00  0.00     0.018 C
HETATM    3  C7  UNL     1      20.001  11.218  19.940  1.00  0.00     0.033 C
HETATM    4  C8  UNL     1      20.720  10.454  20.993  1.00  0.00     0.123 C
HETATM    5  C9  UNL     1      20.608   8.984  20.661  1.00  0.00     0.033 C
HETATM    6  C10 UNL     1      20.126   8.922  19.226  1.00  0.00     0.022 C
HETATM    7  C11 UNL     1      19.389  10.244  19.006  1.00  0.00     0.048 C
HETATM    8  C20 UNL     1      19.703  10.728  17.625  1.00  0.00     0.029 C
ENDROOT
BRANCH   1   9
HETATM    9  C4  UNL     1      20.806  12.795  16.643  1.00  0.00     0.074 C
BRANCH   9  10
HETATM   10  N2  UNL     1      21.021  14.201  16.612  1.00  0.00    -0.300 N
HETATM   11  C21 UNL     1      22.318  14.710  16.838  1.00  0.00     0.323 C
HETATM   12  O4  UNL     1      22.488  15.971  16.795  1.00  0.00    -0.247 OA
HETATM   13  N4  UNL     1      23.486  13.954  17.112  1.00  0.00    -0.338 N
ATOM     14  H4  UNL     1      23.410  12.938  17.152  1.00  0.00     0.164 HD
BRANCH  10  15
HETATM   15  C2  UNL     1      19.953  15.108  16.331  1.00  0.00     0.178 C
HETATM   16  C1  UNL     1      18.636  14.645  16.942  1.00  0.00     0.042 C
BRANCH  15  17
HETATM   17  C3  UNL     1      19.674  15.419  14.932  1.00  0.00     0.254 C
HETATM   18  N1  UNL     1      18.389  15.747  14.478  1.00  0.00    -0.060 NA
HETATM   19  O1  UNL     1      20.614  15.388  14.103  1.00  0.00    -0.275 OA
ENDBRANCH  15  17
ENDBRANCH  10  15
BRANCH  13  20
HETATM   20  C22 UNL     1      24.778  14.558  17.336  1.00  0.00     0.086 C
HETATM   21  C23 UNL     1      25.612  13.660  18.261  1.00  0.00     0.025 C
HETATM   22  C24 UNL     1      26.752  14.526  18.751  1.00  0.00     0.002 C
HETATM   23  C25 UNL     1      27.595  14.924  17.589  1.00  0.00     0.000 C
HETATM   24  C26 UNL     1      26.854  15.458  16.414  1.00  0.00     0.002 C
HETATM   25  C27 UNL     1      25.578  14.758  16.094  1.00  0.00     0.025 C
ENDBRANCH  13  20
ENDBRANCH   9  10
ENDBRANCH   1   9
BRANCH   7  26
HETATM   26  C12 UNL     1      17.930  10.060  19.245  1.00  0.00     0.227 C
HETATM   27  O3  UNL     1      17.577   9.822  20.438  1.00  0.00    -0.273 OA
HETATM   28  N3  UNL     1      16.929  10.126  18.272  1.00  0.00    -0.355 N
ATOM     29  H3  UNL     1      17.188  10.318  17.304  1.00  0.00     0.162 HD
BRANCH  28  30
HETATM   30  C13 UNL     1      15.532   9.930  18.604  1.00  0.00     0.088 C
HETATM   31  C14 UNL     1      15.147   8.464  18.590  1.00  0.00     0.030 C
HETATM   32  C15 UNL     1      13.895   8.486  17.747  1.00  0.00    -0.012 C
HETATM   33  C16 UNL     1      12.839   9.341  18.412  1.00  0.00     0.005 C
HETATM   34  C19 UNL     1      14.356   9.454  16.642  1.00  0.00     0.011 C
HETATM   35  C17 UNL     1      13.286  10.790  18.219  1.00  0.00     0.007 C
HETATM   36  C18 UNL     1      14.636  10.625  17.603  1.00  0.00     0.009 C
ENDBRANCH  28  30
ENDBRANCH   7  26
BRANCH   4  37
HETATM   37  O2  UNL     1      22.058  10.840  21.121  1.00  0.00    -0.395 OA
ATOM     38  H2  UNL     1      22.246  11.236  21.964  1.00  0.00     0.210 HD
ENDBRANCH   4  37
TORSDOF 8
ENDMDL