MODEL 2
REMARK VINA RESULT: -8.053196816      1.234      1.551
REMARK  8 active torsions:
REMARK  status: ('A' for Active; 'I' for Inactive)
REMARK    1  A    between atoms: C1_2  and  C2_4
REMARK    2  A    between atoms: C2_4  and  C3_5
REMARK    3  A    between atoms: C2_4  and  N1_11
REMARK    4  A    between atoms: C13_16  and  C14_17
REMARK    5  A    between atoms: C16_21  and  C17_22
REMARK       I    between atoms: C17_22  and  N2_24
REMARK    6  A    between atoms: N2_24  and  C18_26
REMARK    7  A    between atoms: C18_26  and  C19_27
REMARK       I    between atoms: C19_27  and  N3_29
REMARK    8  A    between atoms: N3_29  and  C20_31
ROOT
HETATM    1  N1  UNL     1      22.591  15.773  17.072  1.00  0.00    -0.360 N
HETATM    2  C9  UNL     1      22.408  17.107  17.401  1.00  0.00     0.065 C
HETATM    3  C10 UNL     1      23.702  17.901  17.382  1.00  0.00     0.025 C
HETATM    4  C11 UNL     1      24.323  17.798  16.023  1.00  0.00     0.011 C
HETATM    5  C12 UNL     1      25.249  16.592  16.083  1.00  0.00     0.024 C
HETATM    6  C13 UNL     1      24.997  15.975  17.466  1.00  0.00     0.078 C
HETATM    7  C15 UNL     1      24.733  17.234  18.258  1.00  0.00     0.033 C
HETATM    8  C16 UNL     1      23.787  15.098  17.406  1.00  0.00     0.196 C
ENDROOT
BRANCH   8   9
HETATM    9  C17 UNL     1      23.649  14.307  18.676  1.00  0.00     0.242 C
HETATM   10  O5  UNL     1      23.179  14.811  19.742  1.00  0.00    -0.271 OA
HETATM   11  N2  UNL     1      24.047  12.954  18.704  1.00  0.00    -0.341 N
ATOM     12  H2  UNL     1      24.415  12.573  17.833  1.00  0.00     0.163 HD
BRANCH  11  13
HETATM   13  C18 UNL     1      23.991  12.052  19.820  1.00  0.00     0.114 A
HETATM   14  C26 UNL     1      25.119  12.181  20.834  1.00  0.00     0.044 A
HETATM   15  C27 UNL     1      25.082  11.018  19.927  1.00  0.00     0.044 A
BRANCH  13  16
HETATM   16  C19 UNL     1      22.650  11.626  20.299  1.00  0.00     0.246 C
HETATM   17  O6  UNL     1      22.378  11.693  21.523  1.00  0.00    -0.271 OA
HETATM   18  N3  UNL     1      21.689  11.150  19.395  1.00  0.00    -0.354 N
ATOM     19  H3  UNL     1      21.905  11.092  18.400  1.00  0.00     0.162 HD
BRANCH  18  20
HETATM   20  C20 UNL     1      20.363  10.734  19.895  1.00  0.00     0.084 C
HETATM   21  C21 UNL     1      19.390  10.846  18.729  1.00  0.00     0.025 C
HETATM   22  C22 UNL     1      18.049  10.326  19.167  1.00  0.00     0.002 C
HETATM   23  C23 UNL     1      18.168   8.835  19.474  1.00  0.00     0.000 C
HETATM   24  C24 UNL     1      19.163   8.633  20.567  1.00  0.00     0.002 C
HETATM   25  C25 UNL     1      20.453   9.350  20.393  1.00  0.00     0.025 C
ENDBRANCH  18  20
ENDBRANCH  13  16
ENDBRANCH  11  13
ENDBRANCH   8   9
BRANCH   1  26
HETATM   26  C2  UNL     1      21.533  14.920  16.720  1.00  0.00     0.215 C
BRANCH  26  27
HETATM   27  C1  UNL     1      22.032  13.781  15.843  1.00  0.00     0.201 C
HETATM   28  O1  UNL     1      22.583  13.905  14.750  1.00  0.00    -0.646 OA
HETATM   29  O2  UNL     1      21.827  12.481  16.359  1.00  0.00    -0.646 OA
ENDBRANCH  26  27
BRANCH  26  30
HETATM   30  C3  UNL     1      20.411  15.563  15.969  1.00  0.00    -0.051 C
HETATM   31  C4  UNL     1      19.154  15.190  16.283  1.00  0.00    -0.021 C
HETATM   32  C5  UNL     1      18.008  15.781  15.591  1.00  0.00     0.027 C
HETATM   33  C6  UNL     1      18.234  15.996  14.123  1.00  0.00     0.004 C
HETATM   34  C7  UNL     1      19.635  16.336  13.761  1.00  0.00     0.005 C
HETATM   35  C8  UNL     1      20.574  16.561  14.912  1.00  0.00     0.036 C
ENDBRANCH  26  30
ENDBRANCH   1  26
BRANCH   6  36
HETATM   36  C14 UNL     1      26.206  15.241  17.913  1.00  0.00     0.184 C
HETATM   37  O3  UNL     1      26.902  15.668  18.831  1.00  0.00    -0.647 OA
HETATM   38  O4  UNL     1      26.504  14.061  17.245  1.00  0.00    -0.647 OA
ENDBRANCH   6  36
TORSDOF 8
ENDMDL