MODEL 2
REMARK VINA RESULT: -9.163076501      4.632      7.669
REMARK  10 active torsions:
REMARK  status: ('A' for Active; 'I' for Inactive)
REMARK    1  A    between atoms: C2_2  and  C3_3
REMARK    2  A    between atoms: C2_2  and  C5_6
REMARK    3  A    between atoms: C3_3  and  O1_4
REMARK    4  A    between atoms: C15_16  and  O2_17
REMARK    5  A    between atoms: O2_17  and  C16_18
REMARK    6  A    between atoms: C18_21  and  O4_22
REMARK    7  A    between atoms: O4_22  and  C19_23
REMARK    8  A    between atoms: C19_23  and  O5_25
REMARK    9  A    between atoms: C21_27  and  N1_28
REMARK   10  A    between atoms: C22_32  and  O6_33
ROOT
HETATM    1  C5  UNL     1      55.356  46.489  68.978  1.00  0.00     0.028 C
HETATM    2  C6  UNL     1      56.243  47.330  68.104  1.00  0.00    -0.009 C
HETATM    3  C7  UNL     1      57.638  47.570  68.525  1.00  0.00     0.011 C
HETATM    4  C8  UNL     1      56.210  46.722  66.688  1.00  0.00     0.010 C
HETATM    5  C9  UNL     1      55.389  45.496  66.840  1.00  0.00    -0.001 C
HETATM    6  C10 UNL     1      54.635  45.046  65.606  1.00  0.00    -0.005 C
HETATM    7  C11 UNL     1      55.590  44.945  64.408  1.00  0.00     0.006 C
HETATM    8  C12 UNL     1      54.844  44.363  63.205  1.00  0.00     0.006 C
HETATM    9  C13 UNL     1      53.694  45.277  62.947  1.00  0.00    -0.004 C
HETATM   10  C14 UNL     1      52.886  45.135  61.746  1.00  0.00     0.037 C
HETATM   11  C15 UNL     1      51.429  45.037  62.280  1.00  0.00     0.126 C
HETATM   12  C23 UNL     1      51.526  45.875  63.570  1.00  0.00     0.042 C
HETATM   13  C24 UNL     1      52.754  45.190  64.129  1.00  0.00    -0.034 C
HETATM   14  C25 UNL     1      52.313  43.797  64.483  1.00  0.00     0.016 C
HETATM   15  C26 UNL     1      53.470  45.894  65.230  1.00  0.00    -0.001 C
HETATM   16  C27 UNL     1      52.644  46.444  66.326  1.00  0.00     0.006 C
HETATM   17  C28 UNL     1      53.550  46.938  67.434  1.00  0.00     0.010 C
HETATM   18  C29 UNL     1      54.472  45.821  67.943  1.00  0.00    -0.032 C
HETATM   19  C30 UNL     1      53.579  44.755  68.458  1.00  0.00     0.016 C
ENDROOT
BRANCH  11  20
HETATM   20  O2  UNL     1      50.537  45.488  61.369  1.00  0.00    -0.353 OA
BRANCH  20  21
HETATM   21  C16 UNL     1      49.729  44.427  60.930  1.00  0.00     0.290 C
HETATM   22  O3  UNL     1      48.883  43.902  61.817  1.00  0.00    -0.356 OA
HETATM   23  C17 UNL     1      47.552  44.156  61.537  1.00  0.00     0.205 C
HETATM   24  C18 UNL     1      47.386  45.634  61.244  1.00  0.00     0.181 C
HETATM   25  C21 UNL     1      48.030  45.897  59.874  1.00  0.00     0.247 C
HETATM   26  C22 UNL     1      49.060  44.819  59.616  1.00  0.00     0.206 C
BRANCH  24  27
HETATM   27  O4  UNL     1      46.174  46.177  61.386  1.00  0.00    -0.352 OA
BRANCH  27  28
HETATM   28  C19 UNL     1      44.922  46.093  61.549  1.00  0.00     0.253 C
HETATM   29  C20 UNL     1      43.841  45.884  62.484  1.00  0.00     0.070 C
BRANCH  28  30
HETATM   30  O5  UNL     1      44.285  46.265  60.269  1.00  0.00    -0.372 OA
ATOM     31  H5  UNL     1      43.588  45.624  60.193  1.00  0.00     0.212 HD
ENDBRANCH  28  30
ENDBRANCH  27  28
ENDBRANCH  24  27
BRANCH  25  32
HETATM   32  N1  UNL     1      47.042  45.849  58.837  1.00  0.00    -0.070 N
ATOM     33  H13 UNL     1      46.665  44.908  58.716  1.00  0.00     0.274 HD
ATOM     34  H12 UNL     1      46.181  46.323  59.110  1.00  0.00     0.274 HD
ATOM     35  H11 UNL     1      47.419  46.221  57.966  1.00  0.00     0.274 HD
ENDBRANCH  25  32
BRANCH  26  36
HETATM   36  O6  UNL     1      48.485  43.763  58.953  1.00  0.00    -0.388 OA
ATOM     37  H6  UNL     1      47.627  43.958  58.596  1.00  0.00     0.210 HD
ENDBRANCH  26  36
ENDBRANCH  20  21
ENDBRANCH  11  20
BRANCH   1  38
HETATM   38  C2  UNL     1      56.071  45.555  69.889  1.00  0.00    -0.061 C
HETATM   39  C1  UNL     1      56.614  44.407  69.684  1.00  0.00     0.017 C
BRANCH  38  40
HETATM   40  C3  UNL     1      55.994  45.982  71.357  1.00  0.00     0.201 C
BRANCH  40  41
HETATM   41  O1  UNL     1      57.047  45.477  72.118  1.00  0.00    -0.392 OA
HETATM   42  C4  UNL     1      57.177  46.207  73.285  1.00  0.00     0.201 C
ENDBRANCH  40  41
ENDBRANCH  38  40
ENDBRANCH   1  38
TORSDOF 10
ENDMDL