MODEL 1
REMARK VINA RESULT: -10.354751928      0.000      0.000
REMARK  9 active torsions:
REMARK  status: ('A' for Active; 'I' for Inactive)
REMARK    1  A    between atoms: C2_2  and  C3_3
REMARK    2  A    between atoms: C2_2  and  C18_23
REMARK    3  A    between atoms: C3_3  and  C4_4
REMARK    4  A    between atoms: C4_4  and  O1_5
REMARK    5  A    between atoms: C6_8  and  C7_9
REMARK    6  A    between atoms: C8_10  and  C9_11
REMARK    7  A    between atoms: C13_16  and  C14_17
REMARK    8  A    between atoms: C14_17  and  O2_20
REMARK    9  A    between atoms: C18_23  and  C19_25
ROOT
HETATM    1  C9  UNL     1      46.436  47.475  67.458  1.00  0.00     0.011 C
HETATM    2  C10 UNL     1      46.324  48.268  68.537  1.00  0.00     0.093 C
HETATM    3  C11 UNL     1      46.946  49.564  68.575  1.00  0.00     0.087 C
HETATM    4  N1  UNL     1      47.449  50.600  68.625  1.00  0.00    -0.192 NA
ENDROOT
BRANCH   1   5
HETATM    5  C8  UNL     1      47.188  47.906  66.304  1.00  0.00    -0.003 C
HETATM    6  C7  UNL     1      47.322  47.190  65.222  1.00  0.00    -0.022 C
BRANCH   6   7
HETATM    7  C6  UNL     1      46.758  45.857  64.970  1.00  0.00     0.011 C
HETATM    8  C5  UNL     1      47.461  45.131  63.851  1.00  0.00     0.046 C
HETATM    9  C4  UNL     1      47.262  45.785  62.493  1.00  0.00     0.059 C
HETATM   10  C17 UNL     1      45.825  46.271  62.346  1.00  0.00     0.045 C
HETATM   11  C13 UNL     1      44.946  45.540  63.343  1.00  0.00     0.023 C
HETATM   12  C12 UNL     1      45.268  45.977  64.752  1.00  0.00     0.016 C
BRANCH   9  13
HETATM   13  C3  UNL     1      47.597  44.743  61.473  1.00  0.00     0.049 C
BRANCH  13  14
HETATM   14  C2  UNL     1      47.947  45.190  60.110  1.00  0.00     0.054 C
HETATM   15  C1  UNL     1      46.705  45.015  59.223  1.00  0.00     0.018 C
BRANCH  14  16
HETATM   16  C18 UNL     1      49.043  44.489  59.422  1.00  0.00     0.135 C
HETATM   17  O3  UNL     1      48.807  43.398  58.875  1.00  0.00    -0.297 OA
BRANCH  16  18
HETATM   18  C19 UNL     1      50.425  44.990  59.322  1.00  0.00     0.058 C
HETATM   19  C20 UNL     1      51.508  44.009  59.126  1.00  0.00     0.013 C
HETATM   20  C21 UNL     1      51.974  43.372  60.445  1.00  0.00     0.013 C
HETATM   21  C22 UNL     1      52.551  44.482  61.259  1.00  0.00    -0.012 C
HETATM   22  C23 UNL     1      53.506  45.246  60.328  1.00  0.00     0.018 C
HETATM   23  C24 UNL     1      51.442  45.448  61.583  1.00  0.00     0.134 C
HETATM   24  C29 UNL     1      53.288  44.064  62.474  1.00  0.00     0.024 A
HETATM   25  C25 UNL     1      50.719  46.002  60.416  1.00  0.00     0.045 C
HETATM   26  O4  UNL     1      50.545  44.898  62.459  1.00  0.00    -0.354 OA
HETATM   27  C26 UNL     1      51.064  44.368  63.605  1.00  0.00     0.279 C
HETATM   28  O5  UNL     1      50.656  43.022  63.817  1.00  0.00    -0.288 OA
HETATM   29  C30 UNL     1      52.547  44.380  63.698  1.00  0.00     0.025 A
HETATM   30  C27 UNL     1      51.690  42.219  63.358  1.00  0.00     0.266 C
HETATM   31  O6  UNL     1      51.512  41.023  63.000  1.00  0.00    -0.265 OA
HETATM   32  C28 UNL     1      52.933  42.979  63.371  1.00  0.00     0.105 A
HETATM   33  C31 UNL     1      53.220  45.138  64.810  1.00  0.00     0.022 C
ENDBRANCH  16  18
ENDBRANCH  14  16
ENDBRANCH  13  14
ENDBRANCH   9  13
BRANCH   9  34
HETATM   34  O1  UNL     1      48.102  46.863  62.428  1.00  0.00    -0.390 OA
ATOM     35  H1  UNL     1      48.182  47.308  63.264  1.00  0.00     0.210 HD
ENDBRANCH   9  34
BRANCH  11  36
HETATM   36  C14 UNL     1      43.504  45.760  62.990  1.00  0.00     0.054 C
HETATM   37  C15 UNL     1      42.735  46.335  64.157  1.00  0.00     0.045 C
HETATM   38  C16 UNL     1      43.305  46.632  61.797  1.00  0.00     0.045 C
BRANCH  36  39
HETATM   39  O2  UNL     1      42.954  44.496  62.711  1.00  0.00    -0.390 OA
ATOM     40  H2  UNL     1      42.734  44.489  61.787  1.00  0.00     0.210 HD
ENDBRANCH  36  39
ENDBRANCH  11  36
ENDBRANCH   6   7
ENDBRANCH   1   5
TORSDOF 9
ENDMDL