MODEL 3
REMARK VINA RESULT: -6.912574152      2.285      3.684
REMARK  9 active torsions:
REMARK  status: ('A' for Active; 'I' for Inactive)
REMARK    1  A    between atoms: C2_2  and  O2_4
REMARK    2  A    between atoms: O2_4  and  C3_5
REMARK    3  A    between atoms: C5_7  and  C6_8
REMARK    4  A    between atoms: C6_8  and  C7_10
REMARK    5  A    between atoms: C7_10  and  S1_11
REMARK    6  A    between atoms: S1_11  and  C8_12
REMARK    7  A    between atoms: C8_12  and  C9_13
REMARK    8  A    between atoms: C9_13  and  O4_14
REMARK    9  A    between atoms: C20_29  and  N2_30
ROOT
HETATM    1  C3  UNL     1      51.788  46.222  65.625  1.00  0.00     0.141 C
HETATM    2  C4  UNL     1      52.478  45.944  64.328  1.00  0.00     0.046 C
HETATM    3  C5  UNL     1      51.708  44.857  63.608  1.00  0.00     0.065 C
HETATM    4  C10 UNL     1      50.787  45.513  62.660  1.00  0.00     0.033 C
HETATM    5  C11 UNL     1      49.908  44.423  62.037  1.00  0.00     0.238 C
HETATM    6  N1  UNL     1      48.577  44.617  62.565  1.00  0.00    -0.074 N
ATOM      7  H11 UNL     1      48.068  43.748  62.722  1.00  0.00     0.277 HD
ATOM      8  H12 UNL     1      47.925  45.021  61.893  1.00  0.00     0.277 HD
HETATM    9  C12 UNL     1      48.750  45.433  63.788  1.00  0.00     0.242 C
HETATM   10  C13 UNL     1      49.754  46.411  63.289  1.00  0.00    -0.010 C
HETATM   11  C14 UNL     1      49.074  47.029  62.044  1.00  0.00     0.018 C
HETATM   12  C15 UNL     1      50.191  47.486  64.135  1.00  0.00     0.007 C
HETATM   13  C16 UNL     1      49.161  48.614  64.181  1.00  0.00     0.007 C
HETATM   14  C17 UNL     1      49.840  49.936  64.594  1.00  0.00     0.012 C
HETATM   15  C18 UNL     1      50.377  49.729  65.949  1.00  0.00    -0.019 C
HETATM   16  C19 UNL     1      49.191  49.799  66.894  1.00  0.00     0.018 C
HETATM   17  C20 UNL     1      51.317  50.789  66.464  1.00  0.00     0.087 C
HETATM   18  C25 UNL     1      52.130  50.026  67.503  1.00  0.00     0.026 C
HETATM   19  C26 UNL     1      51.660  48.579  67.443  1.00  0.00     0.008 C
HETATM   20  C27 UNL     1      51.194  48.511  66.056  1.00  0.00     0.007 C
HETATM   21  C28 UNL     1      50.640  47.207  65.543  1.00  0.00    -0.008 C
HETATM   22  C29 UNL     1      49.560  46.742  66.452  1.00  0.00     0.018 C
ENDROOT
BRANCH   3  23
HETATM   23  C6  UNL     1      52.670  44.016  62.842  1.00  0.00     0.140 C
HETATM   24  O3  UNL     1      53.286  44.448  61.879  1.00  0.00    -0.297 OA
BRANCH  23  25
HETATM   25  C7  UNL     1      52.906  42.600  63.241  1.00  0.00     0.152 C
BRANCH  25  26
HETATM   26  S1  UNL     1      51.547  41.985  64.271  1.00  0.00    -0.160 SA
BRANCH  26  27
HETATM   27  C8  UNL     1      51.615  40.189  64.424  1.00  0.00     0.100 C
BRANCH  27  28
HETATM   28  C9  UNL     1      51.365  39.820  65.862  1.00  0.00     0.174 C
BRANCH  28  29
HETATM   29  O4  UNL     1      52.170  40.621  66.669  1.00  0.00    -0.400 OA
ATOM     30  H4  UNL     1      52.100  41.519  66.366  1.00  0.00     0.209 HD
ENDBRANCH  28  29
ENDBRANCH  27  28
ENDBRANCH  26  27
ENDBRANCH  25  26
ENDBRANCH  23  25
ENDBRANCH   3  23
BRANCH   1  31
HETATM   31  O2  UNL     1      51.432  44.974  66.185  1.00  0.00    -0.316 OA
BRANCH  31  32
HETATM   32  C2  UNL     1      51.997  44.415  67.296  1.00  0.00     0.255 C
HETATM   33  C1  UNL     1      51.563  44.782  68.685  1.00  0.00     0.126 C
HETATM   34  O1  UNL     1      52.903  43.573  67.157  1.00  0.00    -0.266 OA
ENDBRANCH  31  32
ENDBRANCH   1  31
BRANCH  17  35
HETATM   35  N2  UNL     1      52.061  51.512  65.549  1.00  0.00    -0.407 N
HETATM   36  C21 UNL     1      53.138  51.029  64.817  1.00  0.00     0.117 C
HETATM   37  C22 UNL     1      53.543  52.295  64.016  1.00  0.00     0.021 C
HETATM   38  C23 UNL     1      53.542  53.317  65.127  1.00  0.00     0.021 C
HETATM   39  C24 UNL     1      52.474  52.825  66.038  1.00  0.00     0.117 C
ENDBRANCH  17  35
TORSDOF 9
ENDMDL