MODEL 1
REMARK VINA RESULT: -8.488425247      0.000      0.000
REMARK  12 active torsions:
REMARK  status: ('A' for Active; 'I' for Inactive)
REMARK    1  A    between atoms: C2_2  and  C3_3
REMARK    2  A    between atoms: C3_3  and  O1_4
REMARK    3  A    between atoms: C4_6  and  O2_7
REMARK    4  A    between atoms: O2_7  and  C5_8
REMARK    5  A    between atoms: C5_8  and  C6_10
REMARK    6  A    between atoms: C9_13  and  C10_14
REMARK    7  A    between atoms: C10_14  and  C11_15
REMARK    8  A    between atoms: C11_15  and  O5_17
REMARK    9  A    between atoms: O5_17  and  C12_18
REMARK   10  A    between atoms: C17_24  and  O7_25
REMARK   11  A    between atoms: C20_29  and  C21_30
REMARK   12  A    between atoms: C22_31  and  C23_32
ROOT
HETATM    1  C3  UNL     1      51.105  45.294  63.651  1.00  0.00     0.111 C
HETATM    2  C4  UNL     1      49.617  45.528  63.550  1.00  0.00     0.200 C
HETATM    3  C9  UNL     1      49.068  45.259  62.162  1.00  0.00     0.164 C
HETATM    4  O6  UNL     1      49.608  44.029  61.782  1.00  0.00    -0.377 OA
HETATM    5  C15 UNL     1      50.873  44.370  61.295  1.00  0.00     0.132 C
HETATM    6  C16 UNL     1      51.451  43.157  60.655  1.00  0.00     0.064 C
HETATM    7  C17 UNL     1      52.879  43.336  60.156  1.00  0.00     0.125 C
HETATM    8  C18 UNL     1      53.403  44.542  60.783  1.00  0.00     0.024 C
HETATM    9  C19 UNL     1      54.800  44.795  61.150  1.00  0.00     0.017 C
HETATM   10  C20 UNL     1      54.269  45.484  62.377  1.00  0.00     0.017 C
HETATM   11  C28 UNL     1      53.081  44.463  62.266  1.00  0.00    -0.022 C
HETATM   12  C29 UNL     1      53.471  43.257  62.982  1.00  0.00     0.017 C
HETATM   13  C30 UNL     1      51.721  45.043  62.346  1.00  0.00     0.065 C
ENDROOT
BRANCH   3  14
HETATM   14  C10 UNL     1      47.561  45.188  62.242  1.00  0.00     0.145 C
BRANCH  14  15
HETATM   15  C11 UNL     1      47.005  45.511  60.902  1.00  0.00     0.261 C
HETATM   16  O4  UNL     1      47.744  45.820  59.939  1.00  0.00    -0.265 OA
BRANCH  15  17
HETATM   17  O5  UNL     1      45.630  45.479  60.669  1.00  0.00    -0.317 OA
BRANCH  17  18
HETATM   18  C12 UNL     1      44.782  46.276  61.462  1.00  0.00     0.123 C
HETATM   19  C13 UNL     1      44.092  45.405  62.464  1.00  0.00     0.040 C
HETATM   20  C14 UNL     1      43.793  47.027  60.588  1.00  0.00     0.040 C
ENDBRANCH  17  18
ENDBRANCH  15  17
ENDBRANCH  14  15
ENDBRANCH   3  14
BRANCH   2  21
HETATM   21  O2  UNL     1      49.221  46.806  64.019  1.00  0.00    -0.310 OA
BRANCH  21  22
HETATM   22  C5  UNL     1      48.673  47.011  65.276  1.00  0.00     0.262 C
HETATM   23  O3  UNL     1      49.461  46.851  66.249  1.00  0.00    -0.265 OA
BRANCH  22  24
HETATM   24  C6  UNL     1      47.281  47.388  65.520  1.00  0.00     0.077 C
HETATM   25  C7  UNL     1      47.131  47.809  66.965  1.00  0.00     0.020 C
HETATM   26  C8  UNL     1      46.310  46.237  65.296  1.00  0.00     0.020 C
ENDBRANCH  22  24
ENDBRANCH  21  22
ENDBRANCH   2  21
BRANCH   1  27
HETATM   27  C2  UNL     1      51.321  44.307  64.731  1.00  0.00     0.004 C
HETATM   28  C1  UNL     1      51.928  44.522  65.882  1.00  0.00     0.010 C
ENDBRANCH   1  27
BRANCH   1  29
HETATM   29  O1  UNL     1      51.617  46.560  64.099  1.00  0.00    -0.383 OA
ATOM     30  H1  UNL     1      51.228  47.240  63.561  1.00  0.00     0.211 HD
ENDBRANCH   1  29
BRANCH   7  31
HETATM   31  O7  UNL     1      53.629  42.171  60.317  1.00  0.00    -0.395 OA
ATOM     32  H7  UNL     1      54.548  42.364  60.458  1.00  0.00     0.210 HD
ENDBRANCH   7  31
BRANCH  10  33
HETATM   33  C21 UNL     1      54.943  45.370  63.647  1.00  0.00    -0.025 C
HETATM   34  C22 UNL     1      55.135  46.226  64.572  1.00  0.00    -0.025 C
BRANCH  34  35
HETATM   35  C23 UNL     1      54.745  47.647  64.717  1.00  0.00     0.016 A
HETATM   36  C24 UNL     1      55.091  48.222  66.098  1.00  0.00     0.018 A
HETATM   37  C25 UNL     1      55.840  48.647  64.887  1.00  0.00    -0.040 A
HETATM   38  C26 UNL     1      55.553  50.074  64.430  1.00  0.00     0.015 C
HETATM   39  C27 UNL     1      57.280  48.236  64.678  1.00  0.00     0.015 C
ENDBRANCH  34  35
ENDBRANCH  10  33
TORSDOF 12
ENDMDL