MODEL 4
REMARK VINA RESULT: -8.259467668      1.829      2.465
REMARK  8 active torsions:
REMARK  status: ('A' for Active; 'I' for Inactive)
REMARK    1  A    between atoms: C2_2  and  O2_4
REMARK    2  A    between atoms: O2_4  and  C3_5
REMARK    3  A    between atoms: C3_5  and  C4_6
REMARK    4  A    between atoms: C4_6  and  C5_7
REMARK    5  A    between atoms: C5_7  and  C6_8
REMARK    6  A    between atoms: C6_8  and  C8_10
REMARK    7  A    between atoms: C17_21  and  C18_22
REMARK    8  A    between atoms: C22_28  and  O7_29
ROOT
HETATM    1  C8  UNL     1      48.362  46.497  64.872  1.00  0.00     0.137 C
HETATM    2  O3  UNL     1      48.663  45.489  63.953  1.00  0.00    -0.373 OA
HETATM    3  C9  UNL     1      50.003  45.951  63.943  1.00  0.00     0.072 C
HETATM    4  C10 UNL     1      50.502  45.774  62.539  1.00  0.00     0.047 C
HETATM    5  C11 UNL     1      50.831  45.367  65.047  1.00  0.00     0.032 C
HETATM    6  C12 UNL     1      51.351  44.063  64.540  1.00  0.00     0.086 C
HETATM    7  C13 UNL     1      52.717  44.220  64.046  1.00  0.00     0.132 C
HETATM    8  O4  UNL     1      53.068  43.908  62.940  1.00  0.00    -0.298 OA
HETATM    9  C14 UNL     1      53.648  44.791  65.003  1.00  0.00     0.064 C
HETATM   10  C15 UNL     1      55.056  44.777  64.496  1.00  0.00     0.014 C
HETATM   11  C16 UNL     1      56.005  45.627  65.251  1.00  0.00     0.026 C
HETATM   12  C17 UNL     1      55.540  46.205  66.513  1.00  0.00     0.081 C
HETATM   13  C19 UNL     1      55.973  47.645  66.674  1.00  0.00     0.149 C
HETATM   14  O6  UNL     1      57.043  48.053  66.264  1.00  0.00    -0.296 OA
HETATM   15  C20 UNL     1      54.946  48.426  67.369  1.00  0.00     0.082 C
HETATM   16  C21 UNL     1      55.544  49.047  68.640  1.00  0.00     0.020 C
HETATM   17  C22 UNL     1      53.941  47.325  67.740  1.00  0.00     0.135 C
HETATM   18  C23 UNL     1      54.087  46.246  66.779  1.00  0.00     0.047 C
HETATM   19  C24 UNL     1      53.235  46.173  65.533  1.00  0.00    -0.022 C
HETATM   20  C25 UNL     1      53.590  47.156  64.480  1.00  0.00     0.017 C
HETATM   21  C26 UNL     1      51.752  46.235  65.793  1.00  0.00     0.002 C
HETATM   22  C27 UNL     1      51.258  47.640  65.937  1.00  0.00     0.007 C
HETATM   23  C28 UNL     1      50.280  48.200  65.008  1.00  0.00     0.015 C
HETATM   24  C29 UNL     1      49.423  47.294  64.208  1.00  0.00     0.014 C
HETATM   25  C30 UNL     1      48.880  47.989  62.987  1.00  0.00     0.021 C
ENDROOT
BRANCH   1  26
HETATM   26  C6  UNL     1      46.924  46.906  64.681  1.00  0.00     0.011 C
HETATM   27  C7  UNL     1      46.185  47.012  65.997  1.00  0.00     0.012 C
BRANCH  26  28
HETATM   28  C5  UNL     1      46.226  45.751  63.935  1.00  0.00     0.009 C
BRANCH  28  29
HETATM   29  C4  UNL     1      44.739  45.798  64.215  1.00  0.00     0.027 C
BRANCH  29  30
HETATM   30  C3  UNL     1      43.930  45.256  63.081  1.00  0.00     0.178 C
BRANCH  30  31
HETATM   31  O2  UNL     1      42.643  44.840  63.408  1.00  0.00    -0.322 OA
BRANCH  31  32
HETATM   32  C2  UNL     1      41.579  45.641  63.734  1.00  0.00     0.254 C
HETATM   33  C1  UNL     1      41.519  47.041  63.274  1.00  0.00     0.126 C
HETATM   34  O1  UNL     1      40.648  45.182  64.426  1.00  0.00    -0.266 OA
ENDBRANCH  31  32
ENDBRANCH  30  31
ENDBRANCH  29  30
ENDBRANCH  28  29
ENDBRANCH  26  28
ENDBRANCH   1  26
BRANCH  12  35
HETATM   35  C18 UNL     1      56.195  45.489  67.674  1.00  0.00     0.249 C
HETATM   36  O5  UNL     1      55.785  44.444  68.100  1.00  0.00    -0.306 OA
ENDBRANCH  12  35
BRANCH  17  37
HETATM   37  O7  UNL     1      54.469  46.837  68.978  1.00  0.00    -0.394 OA
ATOM     38  H7  UNL     1      54.453  45.896  68.847  1.00  0.00     0.210 HD
ENDBRANCH  17  37
TORSDOF 8
ENDMDL