MODEL 4
REMARK VINA RESULT: -6.485187294      2.247      7.480
REMARK  10 active torsions:
REMARK  status: ('A' for Active; 'I' for Inactive)
REMARK    1  A    between atoms: C2_2  and  O2_4
REMARK    2  A    between atoms: O2_4  and  C3_5
REMARK    3  A    between atoms: C14_17  and  O4_18
REMARK    4  A    between atoms: C21_26  and  C22_27
REMARK    5  A    between atoms: C21_26  and  C23_29
REMARK    6  A    between atoms: C23_29  and  O6_30
REMARK    7  A    between atoms: C23_29  and  C24_32
REMARK    8  A    between atoms: C24_32  and  C25_33
REMARK    9  A    between atoms: C25_33  and  C26_34
REMARK   10  A    between atoms: C26_34  and  C29_37
ROOT
HETATM    1  C3  UNL     1      55.286  47.313  65.574  1.00  0.00     0.165 C
HETATM    2  C4  UNL     1      54.167  48.084  64.867  1.00  0.00     0.038 C
HETATM    3  C5  UNL     1      53.007  47.919  65.843  1.00  0.00     0.041 C
HETATM    4  C6  UNL     1      52.460  46.461  65.791  1.00  0.00     0.071 C
HETATM    5  O3  UNL     1      53.512  45.649  65.458  1.00  0.00    -0.366 OA
HETATM    6  C7  UNL     1      54.777  45.894  65.654  1.00  0.00     0.081 C
HETATM    7  C8  UNL     1      55.418  45.320  66.928  1.00  0.00     0.048 C
HETATM    8  C9  UNL     1      55.550  45.169  64.525  1.00  0.00     0.048 C
HETATM    9  C10 UNL     1      52.123  46.209  67.199  1.00  0.00     0.017 C
HETATM   10  C11 UNL     1      51.819  44.869  67.718  1.00  0.00     0.013 C
HETATM   11  C12 UNL     1      51.212  47.226  67.852  1.00  0.00     0.010 C
HETATM   12  C13 UNL     1      49.824  46.977  67.338  1.00  0.00     0.033 C
HETATM   13  C14 UNL     1      49.665  47.671  66.058  1.00  0.00     0.127 C
HETATM   14  C15 UNL     1      50.184  47.134  64.796  1.00  0.00    -0.002 C
HETATM   15  C16 UNL     1      49.914  48.186  63.729  1.00  0.00     0.013 C
HETATM   16  C17 UNL     1      48.641  48.123  63.020  1.00  0.00     0.001 C
HETATM   17  C18 UNL     1      48.095  46.772  62.684  1.00  0.00     0.000 C
HETATM   18  C19 UNL     1      48.412  45.696  63.682  1.00  0.00     0.007 C
HETATM   19  C20 UNL     1      49.612  45.781  64.469  1.00  0.00     0.015 C
HETATM   20  C21 UNL     1      50.955  45.243  64.017  1.00  0.00     0.050 C
HETATM   21  C30 UNL     1      51.506  46.477  64.694  1.00  0.00     0.050 C
ENDROOT
BRANCH  20  22
HETATM   22  C22 UNL     1      51.226  43.923  64.576  1.00  0.00     0.244 C
HETATM   23  O5  UNL     1      50.887  42.826  64.211  1.00  0.00    -0.306 OA
ENDBRANCH  20  22
BRANCH  20  24
HETATM   24  C23 UNL     1      51.164  45.127  62.534  1.00  0.00     0.134 C
BRANCH  24  25
HETATM   25  O6  UNL     1      50.444  44.175  61.891  1.00  0.00    -0.394 OA
ATOM     26  H6  UNL     1      49.644  43.887  62.314  1.00  0.00     0.210 HD
ENDBRANCH  24  25
BRANCH  24  27
HETATM   27  C24 UNL     1      52.580  45.000  62.055  1.00  0.00     0.034 C
BRANCH  27  28
HETATM   28  C25 UNL     1      52.553  43.832  61.041  1.00  0.00     0.018 C
BRANCH  28  29
HETATM   29  C26 UNL     1      53.794  42.985  61.195  1.00  0.00     0.006 C
HETATM   30  C27 UNL     1      55.028  43.814  61.406  1.00  0.00     0.022 C
HETATM   31  C28 UNL     1      53.662  42.006  62.348  1.00  0.00     0.022 C
BRANCH  29  32
HETATM   32  C29 UNL     1      53.961  42.178  59.961  1.00  0.00     0.239 C
HETATM   33  O7  UNL     1      53.021  41.796  59.320  1.00  0.00    -0.306 OA
ENDBRANCH  29  32
ENDBRANCH  28  29
ENDBRANCH  27  28
ENDBRANCH  24  27
ENDBRANCH  20  24
BRANCH  13  34
HETATM   34  O4  UNL     1      48.252  47.771  65.903  1.00  0.00    -0.395 OA
ATOM     35  H4  UNL     1      48.115  48.686  65.690  1.00  0.00     0.210 HD
ENDBRANCH  13  34
BRANCH   1  36
HETATM   36  O2  UNL     1      56.513  47.441  64.939  1.00  0.00    -0.313 OA
BRANCH  36  37
HETATM   37  C2  UNL     1      57.435  48.399  65.382  1.00  0.00     0.255 C
HETATM   38  C1  UNL     1      57.381  49.816  64.967  1.00  0.00     0.126 C
HETATM   39  O1  UNL     1      58.333  48.006  66.164  1.00  0.00    -0.266 OA
ENDBRANCH  36  37
ENDBRANCH   1  36
TORSDOF 10
ENDMDL