MODEL 2
REMARK VINA RESULT: -8.446343615      2.256      7.567
REMARK  9 active torsions:
REMARK  status: ('A' for Active; 'I' for Inactive)
REMARK    1  A    between atoms: C2_2  and  C3_3
REMARK    2  A    between atoms: C14_16  and  O3_17
REMARK    3  A    between atoms: C17_22  and  O5_23
REMARK    4  A    between atoms: C20_27  and  C21_28
REMARK    5  A    between atoms: C22_29  and  C23_30
REMARK    6  A    between atoms: C23_30  and  C24_31
REMARK    7  A    between atoms: C24_31  and  C25_32
REMARK    8  A    between atoms: C25_32  and  O6_33
REMARK    9  A    between atoms: O6_33  and  C26_34
ROOT
HETATM    1  C3  UNL     1      51.941  45.821  65.685  1.00  0.00     0.001 C
HETATM    2  C4  UNL     1      53.053  46.794  65.373  1.00  0.00     0.022 C
HETATM    3  C5  UNL     1      50.833  46.656  66.312  1.00  0.00     0.184 C
HETATM    4  O1  UNL     1      49.589  46.405  65.803  1.00  0.00    -0.360 OA
HETATM    5  C6  UNL     1      49.210  47.471  65.022  1.00  0.00     0.267 A
HETATM    6  O2  UNL     1      49.982  47.446  63.878  1.00  0.00    -0.346 OA
HETATM    7  C7  UNL     1      49.024  47.264  62.998  1.00  0.00     0.103 A
HETATM    8  C8  UNL     1      48.789  48.703  62.420  1.00  0.00     0.050 C
HETATM    9  C9  UNL     1      48.030  47.158  64.131  1.00  0.00     0.078 A
HETATM   10  C10 UNL     1      47.464  45.834  64.442  1.00  0.00     0.013 C
HETATM   11  C11 UNL     1      47.148  44.994  63.253  1.00  0.00     0.008 C
HETATM   12  C12 UNL     1      47.426  45.845  62.069  1.00  0.00     0.022 C
HETATM   13  C13 UNL     1      46.728  45.428  60.862  1.00  0.00     0.013 C
HETATM   14  C14 UNL     1      48.930  46.222  61.983  1.00  0.00     0.127 C
HETATM   15  C15 UNL     1      49.727  45.091  61.742  1.00  0.00     0.142 A
HETATM   16  O4  UNL     1      48.983  43.918  61.215  1.00  0.00    -0.361 OA
HETATM   17  C16 UNL     1      49.630  44.574  60.273  1.00  0.00     0.191 A
HETATM   18  C17 UNL     1      50.995  44.455  59.752  1.00  0.00     0.155 C
HETATM   19  C18 UNL     1      51.741  45.310  60.792  1.00  0.00     0.036 C
HETATM   20  C19 UNL     1      53.071  45.505  60.403  1.00  0.00     0.014 C
HETATM   21  C20 UNL     1      51.142  44.728  62.031  1.00  0.00     0.081 C
HETATM   22  C29 UNL     1      51.819  45.140  63.244  1.00  0.00     0.144 C
HETATM   23  O7  UNL     1      52.840  45.836  63.065  1.00  0.00    -0.297 OA
HETATM   24  C30 UNL     1      51.515  44.884  64.644  1.00  0.00     0.095 C
ENDROOT
BRANCH  21  25
HETATM   25  C21 UNL     1      51.146  43.223  62.119  1.00  0.00    -0.006 C
HETATM   26  C22 UNL     1      52.221  42.337  62.347  1.00  0.00    -0.003 C
BRANCH  26  27
HETATM   27  C23 UNL     1      53.417  42.229  61.473  1.00  0.00     0.002 C
BRANCH  27  28
HETATM   28  C24 UNL     1      54.638  42.421  61.888  1.00  0.00     0.024 C
BRANCH  28  29
HETATM   29  C25 UNL     1      55.120  43.496  62.727  1.00  0.00     0.135 C
BRANCH  29  30
HETATM   30  O6  UNL     1      56.012  44.408  62.312  1.00  0.00    -0.359 OA
BRANCH  30  31
HETATM   31  C26 UNL     1      56.624  45.251  63.176  1.00  0.00     0.119 C
HETATM   32  C27 UNL     1      56.149  46.701  62.816  1.00  0.00     0.039 C
HETATM   33  C28 UNL     1      56.209  45.075  64.601  1.00  0.00     0.039 C
ENDBRANCH  30  31
ENDBRANCH  29  30
ENDBRANCH  28  29
ENDBRANCH  27  28
ENDBRANCH  26  27
ENDBRANCH  21  25
BRANCH  14  34
HETATM   34  O3  UNL     1      48.893  46.963  60.741  1.00  0.00    -0.383 OA
ATOM     35  H3  UNL     1      48.867  46.284  60.078  1.00  0.00     0.210 HD
ENDBRANCH  14  34
BRANCH  18  36
HETATM   36  O5  UNL     1      51.204  45.172  58.546  1.00  0.00    -0.392 OA
ATOM     37  H5  UNL     1      50.942  44.692  57.769  1.00  0.00     0.210 HD
ENDBRANCH  18  36
BRANCH   1  38
HETATM   38  C2  UNL     1      52.523  45.047  66.865  1.00  0.00    -0.025 C
HETATM   39  C1  UNL     1      52.431  43.743  66.972  1.00  0.00     0.008 C
ENDBRANCH   1  38
TORSDOF 9
ENDMDL