MODEL 3
REMARK VINA RESULT: -8.383691523      2.666      8.657
REMARK  8 active torsions:
REMARK  status: ('A' for Active; 'I' for Inactive)
REMARK    1  A    between atoms: C2_2  and  C3_3
REMARK    2  A    between atoms: C2_2  and  C23_27
REMARK    3  A    between atoms: C3_3  and  C4_5
REMARK    4  A    between atoms: C8_9  and  C10_11
REMARK    5  A    between atoms: C10_11  and  C12_13
REMARK    6  A    between atoms: C12_13  and  C13_14
REMARK    7  A    between atoms: C13_14  and  C14_15
REMARK    8  A    between atoms: C19_22  and  O4_23
ROOT
HETATM    1  C4  UNL     1      52.053  46.246  64.300  1.00  0.00     0.001 C
HETATM    2  C5  UNL     1      51.104  47.231  64.871  1.00  0.00     0.028 A
HETATM    3  C6  UNL     1      50.338  47.320  66.035  1.00  0.00     0.016 A
HETATM    4  C7  UNL     1      49.896  46.320  65.162  1.00  0.00     0.005 A
HETATM    5  C8  UNL     1      49.073  46.337  63.865  1.00  0.00    -0.021 C
HETATM    6  C9  UNL     1      48.952  47.769  63.362  1.00  0.00     0.017 C
HETATM    7  C15 UNL     1      49.928  45.495  62.991  1.00  0.00     0.013 C
HETATM    8  C16 UNL     1      49.773  44.017  63.206  1.00  0.00     0.026 C
HETATM    9  C17 UNL     1      49.869  45.666  61.514  1.00  0.00    -0.047 C
HETATM   10  C18 UNL     1      49.167  46.294  60.630  1.00  0.00     0.018 C
HETATM   11  C19 UNL     1      51.046  44.817  61.040  1.00  0.00     0.154 C
HETATM   12  C21 UNL     1      52.074  44.921  62.142  1.00  0.00     0.072 C
HETATM   13  C22 UNL     1      51.419  45.879  63.051  1.00  0.00    -0.053 C
ENDROOT
BRANCH   1  14
HETATM   14  C3  UNL     1      52.686  45.279  65.165  1.00  0.00     0.186 C
HETATM   15  O1  UNL     1      52.183  44.216  65.612  1.00  0.00    -0.287 OA
BRANCH  14  16
HETATM   16  C2  UNL     1      54.082  45.435  65.659  1.00  0.00     0.014 C
HETATM   17  C1  UNL     1      55.061  45.135  64.829  1.00  0.00     0.025 C
BRANCH  16  18
HETATM   18  C23 UNL     1      54.426  45.890  67.003  1.00  0.00     0.184 C
HETATM   19  C24 UNL     1      55.229  45.003  67.863  1.00  0.00     0.208 C
HETATM   20  O5  UNL     1      54.505  44.020  68.514  1.00  0.00    -0.353 OA
HETATM   21  C25 UNL     1      53.644  44.703  69.376  1.00  0.00     0.318 C
HETATM   22  O6  UNL     1      54.309  45.592  70.209  1.00  0.00    -0.321 OA
HETATM   23  C29 UNL     1      52.730  45.628  68.614  1.00  0.00     0.319 C
HETATM   24  C26 UNL     1      53.267  46.375  70.671  1.00  0.00     0.163 C
HETATM   25  C27 UNL     1      53.708  47.737  71.151  1.00  0.00     0.078 C
HETATM   26  C28 UNL     1      52.541  45.713  71.833  1.00  0.00     0.078 C
HETATM   27  O7  UNL     1      52.374  46.541  69.646  1.00  0.00    -0.321 OA
HETATM   28  O8  UNL     1      53.322  46.351  67.650  1.00  0.00    -0.344 OA
ENDBRANCH  16  18
ENDBRANCH  14  16
ENDBRANCH   1  14
BRANCH   5  29
HETATM   29  C10 UNL     1      47.757  45.883  64.397  1.00  0.00    -0.008 C
HETATM   30  C11 UNL     1      47.172  47.037  65.312  1.00  0.00     0.011 C
BRANCH  29  31
HETATM   31  C12 UNL     1      46.587  45.529  63.616  1.00  0.00     0.015 C
BRANCH  31  32
HETATM   32  C13 UNL     1      45.191  45.912  63.833  1.00  0.00     0.113 C
BRANCH  32  33
HETATM   33  C14 UNL     1      44.260  45.382  62.761  1.00  0.00     0.172 C
HETATM   34  O2  UNL     1      43.263  44.713  63.101  1.00  0.00    -0.648 OA
HETATM   35  O3  UNL     1      44.492  45.622  61.425  1.00  0.00    -0.648 OA
ENDBRANCH  32  33
ENDBRANCH  31  32
ENDBRANCH  29  31
ENDBRANCH   5  29
BRANCH  11  36
HETATM   36  O4  UNL     1      50.699  43.559  60.667  1.00  0.00    -0.386 OA
HETATM   37  C20 UNL     1      51.797  42.836  60.264  1.00  0.00     0.202 C
ENDBRANCH  11  36
TORSDOF 8
ENDMDL