MODEL 1
REMARK VINA RESULT: -9.059980433      0.000      0.000
REMARK  9 active torsions:
REMARK  status: ('A' for Active; 'I' for Inactive)
REMARK    1  A    between atoms: O1_2  and  C2_3
REMARK    2  A    between atoms: C2_3  and  C3_5
REMARK    3  A    between atoms: C3_5  and  C4_6
REMARK    4  A    between atoms: C4_6  and  C5_7
REMARK    5  A    between atoms: C6_8  and  C7_9
REMARK    6  A    between atoms: C10_12  and  C11_13
REMARK    7  A    between atoms: C12_14  and  C13_15
REMARK    8  A    between atoms: C25_29  and  O5_30
REMARK    9  A    between atoms: C28_34  and  O6_35
ROOT
HETATM    1  C7  UNL     1      50.736  45.459  62.271  1.00  0.00     0.029 C
HETATM    2  C8  UNL     1      50.719  45.752  63.761  1.00  0.00     0.010 C
HETATM    3  C9  UNL     1      51.692  46.830  64.026  1.00  0.00     0.010 C
HETATM    4  C10 UNL     1      53.075  46.450  64.419  1.00  0.00     0.019 C
HETATM    5  C20 UNL     1      53.841  45.600  63.458  1.00  0.00     0.064 C
HETATM    6  C21 UNL     1      54.441  44.347  64.052  1.00  0.00     0.013 C
HETATM    7  C22 UNL     1      54.202  43.150  63.114  1.00  0.00     0.008 C
HETATM    8  C23 UNL     1      52.777  42.760  63.348  1.00  0.00     0.017 C
HETATM    9  C24 UNL     1      52.675  41.228  63.427  1.00  0.00     0.013 C
HETATM   10  C25 UNL     1      51.868  43.167  62.208  1.00  0.00     0.079 C
HETATM   11  C26 UNL     1      52.412  42.399  60.987  1.00  0.00     0.042 C
HETATM   12  C27 UNL     1      52.659  43.455  59.918  1.00  0.00     0.036 C
HETATM   13  C28 UNL     1      51.707  44.506  60.330  1.00  0.00     0.138 C
HETATM   14  C29 UNL     1      51.862  44.584  61.857  1.00  0.00     0.085 C
HETATM   15  C30 UNL     1      53.116  45.319  62.189  1.00  0.00     0.146 C
HETATM   16  O7  UNL     1      53.645  45.779  61.201  1.00  0.00    -0.296 OA
ENDROOT
BRANCH   4  17
HETATM   17  C11 UNL     1      53.059  45.967  65.826  1.00  0.00    -0.025 C
HETATM   18  C12 UNL     1      52.495  46.655  66.801  1.00  0.00    -0.026 C
BRANCH  18  19
HETATM   19  C13 UNL     1      52.435  46.260  68.204  1.00  0.00     0.009 C
HETATM   20  C14 UNL     1      53.736  45.708  68.690  1.00  0.00     0.016 C
HETATM   21  C15 UNL     1      53.315  44.834  69.846  1.00  0.00     0.024 C
HETATM   22  C16 UNL     1      54.282  43.690  70.060  1.00  0.00     0.184 C
HETATM   23  C18 UNL     1      52.127  44.086  69.257  1.00  0.00     0.092 C
HETATM   24  O3  UNL     1      54.150  42.909  68.904  1.00  0.00    -0.321 OA
HETATM   25  C17 UNL     1      52.831  43.025  68.482  1.00  0.00     0.263 C
HETATM   26  O4  UNL     1      52.271  42.347  67.575  1.00  0.00    -0.265 OA
HETATM   27  C19 UNL     1      51.461  45.104  68.364  1.00  0.00     0.023 C
ENDBRANCH  18  19
ENDBRANCH   4  17
BRANCH   1  28
HETATM   28  C6  UNL     1      49.406  45.150  61.734  1.00  0.00    -0.025 C
HETATM   29  C5  UNL     1      48.326  45.039  62.495  1.00  0.00    -0.030 C
BRANCH  29  30
HETATM   30  C4  UNL     1      46.985  44.737  62.052  1.00  0.00     0.037 C
BRANCH  30  31
HETATM   31  C3  UNL     1      45.969  45.383  62.981  1.00  0.00     0.115 C
BRANCH  31  32
HETATM   32  C2  UNL     1      44.613  45.352  62.366  1.00  0.00     0.258 C
HETATM   33  O2  UNL     1      43.615  44.932  62.960  1.00  0.00    -0.265 OA
BRANCH  32  34
HETATM   34  O1  UNL     1      44.505  45.827  61.054  1.00  0.00    -0.326 OA
HETATM   35  C1  UNL     1      43.672  46.959  60.773  1.00  0.00     0.213 C
ENDBRANCH  32  34
ENDBRANCH  31  32
ENDBRANCH  30  31
ENDBRANCH  29  30
ENDBRANCH   1  28
BRANCH  10  36
HETATM   36  O5  UNL     1      50.648  42.599  62.485  1.00  0.00    -0.388 OA
ATOM     37  H5  UNL     1      50.391  42.143  61.692  1.00  0.00     0.210 HD
ENDBRANCH  10  36
BRANCH  13  38
HETATM   38  O6  UNL     1      51.778  45.702  59.708  1.00  0.00    -0.394 OA
ATOM     39  H6  UNL     1      51.689  45.718  58.763  1.00  0.00     0.210 HD
ENDBRANCH  13  38
TORSDOF 9
ENDMDL