MODEL 1
REMARK VINA RESULT: -5.755793698      0.000      0.000
REMARK  7 active torsions:
REMARK  status: ('A' for Active; 'I' for Inactive)
REMARK    1  A    between atoms: C3_3  and  N1_4
REMARK    2  A    between atoms: N1_4  and  C4_5
REMARK    3  A    between atoms: C5_6  and  O1_7
REMARK    4  A    between atoms: C5_6  and  N2_9
REMARK    5  A    between atoms: N2_9  and  C6_11
REMARK    6  A    between atoms: C12_17  and  C13_18
REMARK    7  A    between atoms: C13_18  and  O2_19
ROOT
HETATM    1  C1  UNL     1       3.086  19.950  20.511  1.00  0.00     0.013 C
HETATM    2  C2  UNL     1       2.546  19.113  19.819  1.00  0.00    -0.088 C
HETATM    3  C3  UNL     1       1.932  18.086  18.984  1.00  0.00     0.346 C
ENDROOT
BRANCH   3   4
HETATM    4  N1  UNL     1       0.510  18.210  18.860  1.00  0.00     0.029 N
HETATM    5  C11 UNL     1       0.022  17.495  17.664  1.00  0.00     0.281 C
HETATM    6  C12 UNL     1      -0.415  16.170  18.183  1.00  0.00     0.135 C
HETATM    7  N3  UNL     1      -1.101  16.597  19.382  1.00  0.00    -0.347 N
HETATM    8  C14 UNL     1      -0.180  17.570  19.934  1.00  0.00     0.280 C
ATOM      9  H3  UNL     1      -2.003  16.291  19.747  1.00  0.00     0.163 HD
HETATM   10  N4  UNL     1      -0.103  17.705  21.200  1.00  0.00    -0.365 N
ATOM     11  H42 UNL     1       0.545  18.390  21.589  1.00  0.00     0.159 HD
ATOM     12  H41 UNL     1      -0.596  17.248  21.967  1.00  0.00     0.159 HD
BRANCH   4  13
HETATM   13  C4  UNL     1       0.050  19.547  18.674  1.00  0.00     0.268 C
HETATM   14  C5  UNL     1       0.302  20.321  17.511  1.00  0.00     0.160 C
BRANCH  14  15
HETATM   15  O1  UNL     1      -0.208  21.521  17.514  1.00  0.00    -0.345 OA
ATOM     16  H1  UNL     1       0.419  22.231  17.434  1.00  0.00     0.219 HD
ENDBRANCH  14  15
BRANCH  14  17
HETATM   17  N2  UNL     1       1.010  20.015  16.354  1.00  0.00    -0.365 N
ATOM     18  H2  UNL     1       0.840  19.119  15.895  1.00  0.00     0.162 HD
BRANCH  17  19
HETATM   19  C6  UNL     1       2.000  20.940  15.764  1.00  0.00     0.083 C
HETATM   20  C7  UNL     1       1.913  20.908  14.273  1.00  0.00     0.025 C
HETATM   21  C8  UNL     1       3.292  20.606  13.740  1.00  0.00     0.002 C
HETATM   22  C9  UNL     1       4.124  20.152  14.910  1.00  0.00     0.002 C
HETATM   23  C10 UNL     1       3.397  20.576  16.156  1.00  0.00     0.025 C
ENDBRANCH  17  19
ENDBRANCH  14  17
ENDBRANCH   4  13
BRANCH   6  24
HETATM   24  C13 UNL     1      -1.358  15.456  17.229  1.00  0.00     0.190 C
BRANCH  24  25
HETATM   25  O2  UNL     1      -1.436  16.182  16.060  1.00  0.00    -0.399 OA
ATOM     26  H2  UNL     1      -2.272  16.004  15.647  1.00  0.00     0.209 HD
ENDBRANCH  24  25
ENDBRANCH   6  24
ENDBRANCH   3   4
TORSDOF 7
ENDMDL