MODEL 5
REMARK VINA RESULT: -5.075543635      5.581      8.029
REMARK  8 active torsions:
REMARK  status: ('A' for Active; 'I' for Inactive)
REMARK    1  A    between atoms: C2_2  and  N1_3
REMARK    2  A    between atoms: C2_2  and  C3_7
REMARK    3  A    between atoms: C4_8  and  C5_9
REMARK    4  A    between atoms: C5_9  and  C6_10
REMARK    5  A    between atoms: C6_10  and  C7_12
REMARK    6  A    between atoms: N2_13  and  N3_15
REMARK    7  A    between atoms: N6_24  and  C9_25
REMARK    8  A    between atoms: C9_25  and  C10_26
ROOT
HETATM    1  C3  UNL     1       4.095  20.990  16.329  1.00  0.00     0.160 C
HETATM    2  C4  UNL     1       4.256  20.815  14.868  1.00  0.00     0.132 C
HETATM    3  N4  UNL     1       4.062  22.154  14.403  1.00  0.00    -0.219 N
ATOM      4  H4  UNL     1       4.556  22.646  13.659  1.00  0.00     0.178 HD
HETATM    5  C8  UNL     1       2.979  22.642  15.257  1.00  0.00     0.674 C
HETATM    6  N5  UNL     1       2.379  23.753  15.012  1.00  0.00    -0.235 N
ATOM      7  H51 UNL     1       1.624  24.094  15.607  1.00  0.00     0.174 HD
ATOM      8  H52 UNL     1       2.519  24.440  14.271  1.00  0.00     0.174 HD
HETATM    9  N6  UNL     1       2.788  21.699  16.274  1.00  0.00    -0.188 N
ENDROOT
BRANCH   2  10
HETATM   10  C5  UNL     1       5.384  20.098  14.297  1.00  0.00     0.112 C
BRANCH  10  11
HETATM   11  C6  UNL     1       5.644  20.404  12.870  1.00  0.00     0.168 C
HETATM   12  O1  UNL     1       4.762  20.639  12.032  1.00  0.00    -0.292 OA
BRANCH  11  13
HETATM   13  C7  UNL     1       7.035  20.426  12.440  1.00  0.00     0.156 C
HETATM   14  N2  UNL     1       7.773  19.376  12.387  1.00  0.00    -0.315 N
ATOM     15  H2  UNL     1       7.396  18.467  12.654  1.00  0.00     0.185 HD
BRANCH  14  16
HETATM   16  N3  UNL     1       9.097  19.491  11.962  1.00  0.00    -0.345 N
ATOM     17  H32 UNL     1       9.848  19.451  12.650  1.00  0.00     0.176 HD
ATOM     18  H31 UNL     1       9.294  19.613  10.969  1.00  0.00     0.176 HD
ENDBRANCH  14  16
ENDBRANCH  11  13
ENDBRANCH  10  11
ENDBRANCH   2  10
BRANCH   1  19
HETATM   19  C2  UNL     1       5.018  21.938  17.000  1.00  0.00     0.205 C
HETATM   20  C1  UNL     1       4.633  21.959  18.487  1.00  0.00     0.042 C
BRANCH  19  21
HETATM   21  N1  UNL     1       6.401  21.640  16.931  1.00  0.00    -0.073 N
ATOM     22  H13 UNL     1       6.972  22.446  16.677  1.00  0.00     0.274 HD
ATOM     23  H12 UNL     1       6.819  21.467  17.845  1.00  0.00     0.274 HD
ATOM     24  H11 UNL     1       6.506  20.856  16.287  1.00  0.00     0.274 HD
ENDBRANCH  19  21
ENDBRANCH   1  19
BRANCH   9  25
HETATM   25  C9  UNL     1       1.702  21.351  17.082  1.00  0.00     0.091 C
BRANCH  25  26
HETATM   26  C10 UNL     1       1.161  19.981  17.148  1.00  0.00    -0.018 C
HETATM   27  C11 UNL     1       1.066  19.327  15.804  1.00  0.00     0.020 C
HETATM   28  C12 UNL     1      -0.298  20.046  17.681  1.00  0.00     0.020 C
HETATM   29  C13 UNL     1       1.902  19.077  18.108  1.00  0.00     0.020 C
ENDBRANCH  25  26
ENDBRANCH   9  25
TORSDOF 8
ENDMDL