MODEL 4
REMARK VINA RESULT: -5.259451268      1.817      2.394
REMARK  7 active torsions:
REMARK  status: ('A' for Active; 'I' for Inactive)
REMARK    1  A    between atoms: N2_6  and  C4_7
REMARK    2  A    between atoms: C4_7  and  C5_8
REMARK    3  A    between atoms: C6_9  and  N3_10
REMARK    4  A    between atoms: C11_17  and  O1_18
REMARK    5  A    between atoms: C12_20  and  C13_21
REMARK    6  A    between atoms: C13_21  and  C14_22
REMARK    7  A    between atoms: C14_22  and  O2_23
ROOT
HETATM    1  C4  UNL     1      -1.021  15.221  18.962  1.00  0.00     0.158 C
ENDROOT
BRANCH   1   2
HETATM    2  N2  UNL     1      -1.017  14.345  17.807  1.00  0.00    -0.341 N
HETATM    3  C3  UNL     1      -0.264  13.217  17.637  1.00  0.00     0.183 A
HETATM    4  N1  UNL     1      -0.550  12.682  16.431  1.00  0.00    -0.354 N
HETATM    5  C2  UNL     1      -1.474  13.442  15.817  1.00  0.00     0.029 A
ATOM      6  H1  UNL     1      -0.131  11.835  16.046  1.00  0.00     0.166 HD
HETATM    7  C1  UNL     1      -2.079  13.230  14.478  1.00  0.00     0.070 C
HETATM    8  C12 UNL     1      -1.740  14.468  16.703  1.00  0.00     0.037 A
BRANCH   8   9
HETATM    9  C13 UNL     1      -2.712  15.552  16.418  1.00  0.00     0.085 C
BRANCH   9  10
HETATM   10  C14 UNL     1      -1.993  16.772  15.826  1.00  0.00     0.170 C
BRANCH  10  11
HETATM   11  O2  UNL     1      -2.892  17.717  15.400  1.00  0.00    -0.400 OA
ATOM     12  H2  UNL     1      -2.509  18.587  15.417  1.00  0.00     0.209 HD
ENDBRANCH  10  11
ENDBRANCH   9  10
ENDBRANCH   8   9
ENDBRANCH   1   2
BRANCH   1  13
HETATM   13  C5  UNL     1      -0.544  16.580  18.646  1.00  0.00     0.018 C
HETATM   14  C6  UNL     1       0.153  17.298  19.483  1.00  0.00     0.203 C
BRANCH  14  15
HETATM   15  N3  UNL     1       0.619  18.605  19.195  1.00  0.00    -0.022 N
HETATM   16  C7  UNL     1      -0.191  19.525  20.013  1.00  0.00     0.281 C
HETATM   17  C8  UNL     1       0.442  18.858  17.803  1.00  0.00     0.264 C
HETATM   18  C9  UNL     1       1.598  19.417  17.065  1.00  0.00     0.142 C
HETATM   19  N4  UNL     1       2.406  20.331  17.812  1.00  0.00    -0.415 N
HETATM   20  C10 UNL     1       2.685  19.943  19.145  1.00  0.00     0.176 C
ATOM     21  H4  UNL     1       2.757  21.200  17.412  1.00  0.00     0.153 HD
HETATM   22  C11 UNL     1       1.980  18.744  19.663  1.00  0.00     0.345 C
BRANCH  22  23
HETATM   23  O1  UNL     1       2.736  17.601  19.466  1.00  0.00    -0.368 OA
ATOM     24  H1  UNL     1       2.886  17.114  20.268  1.00  0.00     0.212 HD
ENDBRANCH  22  23
ENDBRANCH  14  15
ENDBRANCH   1  13
TORSDOF 7
ENDMDL