MODEL 4
REMARK VINA RESULT: -5.883791015      1.356      1.764
REMARK  5 active torsions:
REMARK  status: ('A' for Active; 'I' for Inactive)
REMARK    1  A    between atoms: N1_2  and  C2_3
REMARK    2  A    between atoms: C2_3  and  C3_4
REMARK    3  A    between atoms: C3_4  and  N2_5
REMARK       I    between atoms: N2_5  and  C4_7
REMARK       I    between atoms: C4_7  and  N4_11
REMARK    4  A    between atoms: N4_11  and  C5_13
REMARK    5  A    between atoms: C5_13  and  C6_14
ROOT
HETATM    1  N2  UNL     1       0.725  18.780  16.322  1.00  0.00    -0.225 N
ATOM      2  H2  UNL     1       0.626  17.983  15.692  1.00  0.00     0.177 HD
HETATM    3  C4  UNL     1       0.932  18.557  17.701  1.00  0.00     0.667 C
HETATM    4  N3  UNL     1       1.284  19.542  18.450  1.00  0.00    -0.235 N
ATOM      5  H31 UNL     1       1.432  19.381  19.446  1.00  0.00     0.174 HD
ATOM      6  H32 UNL     1       1.394  20.452  18.003  1.00  0.00     0.174 HD
HETATM    7  N4  UNL     1       0.779  17.302  18.316  1.00  0.00    -0.225 N
ATOM      8  H4  UNL     1       1.630  16.801  18.573  1.00  0.00     0.177 HD
ENDROOT
BRANCH   1   9
HETATM    9  C3  UNL     1       0.652  20.131  15.788  1.00  0.00     0.166 C
BRANCH   9  10
HETATM   10  C2  UNL     1       1.492  20.228  14.560  1.00  0.00     0.257 C
BRANCH  10  11
HETATM   11  N1  UNL     1       2.722  20.967  14.741  1.00  0.00    -0.065 N
HETATM   12  C1  UNL     1       2.584  21.808  15.903  1.00  0.00     0.272 C
HETATM   13  C11 UNL     1       3.024  21.711  13.538  1.00  0.00     0.263 C
HETATM   14  C12 UNL     1       3.902  20.924  12.592  1.00  0.00     0.195 C
HETATM   15  O1  UNL     1       5.145  20.635  13.148  1.00  0.00    -0.388 OA
HETATM   16  C13 UNL     1       5.086  20.771  14.535  1.00  0.00     0.195 C
HETATM   17  C14 UNL     1       3.812  20.063  14.984  1.00  0.00     0.263 C
ENDBRANCH  10  11
ENDBRANCH   9  10
ENDBRANCH   1   9
BRANCH   7  18
HETATM   18  C5  UNL     1      -0.475  16.662  18.613  1.00  0.00     0.171 C
BRANCH  18  19
HETATM   19  C6  UNL     1      -0.729  15.464  17.735  1.00  0.00     0.204 C
HETATM   20  C7  UNL     1      -1.774  15.806  16.703  1.00  0.00     0.035 C
HETATM   21  C8  UNL     1      -2.122  14.578  15.881  1.00  0.00     0.004 C
HETATM   22  C9  UNL     1      -1.314  13.380  16.329  1.00  0.00     0.027 C
HETATM   23  C10 UNL     1      -1.481  13.188  17.805  1.00  0.00     0.233 C
HETATM   24  N5  UNL     1      -1.294  14.409  18.569  1.00  0.00    -0.069 N
ATOM     25  H52 UNL     1      -0.732  14.247  19.404  1.00  0.00     0.277 HD
ATOM     26  H51 UNL     1      -2.159  14.707  19.020  1.00  0.00     0.277 HD
ENDBRANCH  18  19
ENDBRANCH   7  18
TORSDOF 5
ENDMDL