MODEL 2
REMARK VINA RESULT: -6.517469152      1.335      1.565
REMARK  6 active torsions:
REMARK  status: ('A' for Active; 'I' for Inactive)
REMARK    1  A    between atoms: C3_3  and  C4_4
REMARK    2  A    between atoms: C4_4  and  N1_5
REMARK       I    between atoms: N1_5  and  C5_7
REMARK       I    between atoms: C5_7  and  N3_11
REMARK    3  A    between atoms: N3_11  and  C6_13
REMARK    4  A    between atoms: C6_13  and  C7_14
REMARK    5  A    between atoms: C10_17  and  C11_18
REMARK    6  A    between atoms: C11_18  and  O1_19
ROOT
HETATM    1  C1  UNL     1      -1.801  13.175  14.905  1.00  0.00     0.012 C
HETATM    2  C2  UNL     1      -1.572  13.497  16.048  1.00  0.00    -0.116 C
HETATM    3  C3  UNL     1      -1.286  13.861  17.435  1.00  0.00     0.113 C
ENDROOT
BRANCH   3   4
HETATM    4  C4  UNL     1      -0.997  15.335  17.530  1.00  0.00     0.150 C
BRANCH   4   5
HETATM    5  N1  UNL     1      -0.202  15.654  18.707  1.00  0.00    -0.226 N
HETATM    6  C5  UNL     1      -0.306  16.992  19.201  1.00  0.00     0.667 C
HETATM    7  N2  UNL     1      -0.745  17.182  20.392  1.00  0.00    -0.235 N
HETATM    8  N3  UNL     1       0.061  18.106  18.403  1.00  0.00    -0.226 N
ATOM      9  H22 UNL     1      -1.009  16.381  20.966  1.00  0.00     0.174 HD
ATOM     10  H21 UNL     1      -0.819  18.136  20.745  1.00  0.00     0.174 HD
ATOM     11  H3  UNL     1      -0.681  18.634  17.945  1.00  0.00     0.177 HD
ATOM     12  H1  UNL     1       0.397  14.960  19.154  1.00  0.00     0.177 HD
BRANCH   8  13
HETATM   13  C6  UNL     1       1.429  18.536  18.201  1.00  0.00     0.155 C
BRANCH  13  14
HETATM   14  C7  UNL     1       1.444  19.703  17.316  1.00  0.00     0.086 C
HETATM   15  C8  UNL     1       2.596  20.557  17.320  1.00  0.00    -0.097 C
HETATM   16  C9  UNL     1       3.453  21.134  17.096  1.00  0.00    -0.062 C
HETATM   17  C10 UNL     1       4.553  21.802  16.490  1.00  0.00     0.241 A
HETATM   18  N4  UNL     1       4.220  22.577  15.333  1.00  0.00    -0.040 N
HETATM   19  C12 UNL     1       4.627  21.253  15.097  1.00  0.00     0.261 A
ATOM     20  H42 UNL     1       3.389  23.106  15.067  1.00  0.00     0.280 HD
ATOM     21  H41 UNL     1       4.549  23.477  14.983  1.00  0.00     0.280 HD
HETATM   22  C13 UNL     1       3.729  20.044  14.941  1.00  0.00     0.005 C
HETATM   23  C14 UNL     1       2.289  20.120  14.934  1.00  0.00    -0.027 C
HETATM   24  C15 UNL     1       1.409  19.260  15.793  1.00  0.00     0.045 C
BRANCH  17  25
HETATM   25  C11 UNL     1       5.818  21.937  17.243  1.00  0.00     0.219 C
BRANCH  25  26
HETATM   26  O1  UNL     1       6.165  23.300  17.292  1.00  0.00    -0.397 OA
ATOM     27  H1  UNL     1       5.715  23.698  18.028  1.00  0.00     0.209 HD
ENDBRANCH  25  26
ENDBRANCH  17  25
ENDBRANCH  13  14
ENDBRANCH   8  13
ENDBRANCH   4   5
ENDBRANCH   3   4
TORSDOF 6
ENDMDL