MODEL 5
REMARK VINA RESULT: -5.583253170      5.264      7.502
REMARK  5 active torsions:
REMARK  status: ('A' for Active; 'I' for Inactive)
REMARK    1  A    between atoms: N1_3  and  C3_5
REMARK    2  A    between atoms: C4_6  and  C5_7
REMARK    3  A    between atoms: C7_11  and  N2_12
REMARK       I    between atoms: N2_12  and  C8_14
REMARK       I    between atoms: C8_14  and  N3_16
REMARK    4  A    between atoms: N3_16  and  N4_18
REMARK    5  A    between atoms: C9_23  and  C10_24
ROOT
HETATM    1  C1  UNL     1      -3.870  21.987  25.325  1.00  0.00     0.037 C
HETATM    2  C2  UNL     1      -3.198  21.292  26.040  1.00  0.00    -0.005 C
HETATM    3  N1  UNL     1      -2.400  20.494  26.868  1.00  0.00    -0.345 N
ATOM      4  H1  UNL     1      -1.744  20.940  27.510  1.00  0.00     0.170 HD
ENDROOT
BRANCH   3   5
HETATM    5  C3  UNL     1      -2.484  19.046  26.833  1.00  0.00     0.111 C
HETATM    6  C4  UNL     1      -1.129  18.480  27.258  1.00  0.00     0.112 C
HETATM    7  C6  UNL     1      -0.380  18.482  25.966  1.00  0.00     0.043 C
HETATM    8  C7  UNL     1      -1.409  17.848  25.020  1.00  0.00     0.093 C
HETATM    9  C9  UNL     1      -2.693  18.517  25.471  1.00  0.00     0.036 C
BRANCH   6  10
HETATM   10  C5  UNL     1      -0.514  19.275  28.313  1.00  0.00     0.179 C
HETATM   11  O1  UNL     1       0.630  19.733  28.172  1.00  0.00    -0.648 OA
HETATM   12  O2  UNL     1      -1.204  19.527  29.482  1.00  0.00    -0.648 OA
ENDBRANCH   6  10
BRANCH   8  13
HETATM   13  N2  UNL     1      -1.053  18.197  23.666  1.00  0.00    -0.337 N
HETATM   14  C8  UNL     1      -1.336  17.278  22.623  1.00  0.00     0.336 C
HETATM   15  O3  UNL     1      -1.890  16.164  22.842  1.00  0.00    -0.246 OA
HETATM   16  N3  UNL     1      -0.997  17.598  21.292  1.00  0.00    -0.237 N
ATOM     17  H3  UNL     1      -0.548  18.488  21.078  1.00  0.00     0.193 HD
ATOM     18  H2  UNL     1      -0.605  19.090  23.463  1.00  0.00     0.164 HD
BRANCH  16  19
HETATM   19  N4  UNL     1      -1.276  16.697  20.276  1.00  0.00    -0.245 N
HETATM   20  N5  UNL     1      -0.471  16.488  19.323  1.00  0.00    -0.331 N
ATOM     21  H52 UNL     1       0.407  17.007  19.317  1.00  0.00     0.178 HD
ATOM     22  H51 UNL     1      -0.676  15.825  18.576  1.00  0.00     0.178 HD
ATOM     23  H4  UNL     1      -2.159  16.186  20.299  1.00  0.00     0.208 HD
ENDBRANCH  16  19
ENDBRANCH   8  13
BRANCH   9  24
HETATM   24  C10 UNL     1      -3.822  17.560  25.297  1.00  0.00    -0.015 C
HETATM   25  C11 UNL     1      -4.577  17.283  26.572  1.00  0.00     0.010 C
HETATM   26  C12 UNL     1      -4.801  17.927  24.233  1.00  0.00     0.010 C
ENDBRANCH   9  24
ENDBRANCH   3   5
TORSDOF 5
ENDMDL