MODEL 2
REMARK VINA RESULT: -5.650472686      1.366      1.946
REMARK  7 active torsions:
REMARK  status: ('A' for Active; 'I' for Inactive)
REMARK    1  A    between atoms: N1_2  and  C3_4
REMARK    2  A    between atoms: C3_4  and  C4_5
REMARK    3  A    between atoms: C4_5  and  C5_6
REMARK    4  A    between atoms: C5_6  and  C6_7
REMARK    5  A    between atoms: C6_7  and  N2_8
REMARK       I    between atoms: N2_8  and  C7_10
REMARK       I    between atoms: C7_10  and  N3_12
REMARK    6  A    between atoms: N3_12  and  C8_14
REMARK    7  A    between atoms: N4_16  and  N5_18
ROOT
HETATM    1  C8  UNL     1      -2.265  17.564  24.450  1.00  0.00     0.161 C
HETATM    2  C9  UNL     1      -3.654  17.557  24.975  1.00  0.00     0.115 C
HETATM    3  N4  UNL     1      -4.768  17.494  24.351  1.00  0.00    -0.294 N
ATOM      4  H4  UNL     1      -4.783  17.438  23.332  1.00  0.00     0.187 HD
HETATM    5  N6  UNL     1      -3.488  17.641  26.398  1.00  0.00    -0.372 N
ATOM      6  H6  UNL     1      -4.081  17.212  27.108  1.00  0.00     0.161 HD
HETATM    7  C10 UNL     1      -2.330  18.443  26.622  1.00  0.00     0.089 C
HETATM    8  C11 UNL     1      -2.647  19.920  26.680  1.00  0.00     0.026 C
HETATM    9  C12 UNL     1      -2.275  19.994  25.212  1.00  0.00     0.011 C
HETATM   10  C13 UNL     1      -1.637  18.645  25.299  1.00  0.00     0.039 C
ENDROOT
BRANCH   1  11
HETATM   11  N3  UNL     1      -2.191  17.832  23.054  1.00  0.00    -0.331 N
HETATM   12  C7  UNL     1      -0.986  17.655  22.352  1.00  0.00     0.316 C
HETATM   13  N2  UNL     1      -0.918  17.923  20.969  1.00  0.00    -0.343 N
HETATM   14  O1  UNL     1       0.029  17.256  22.963  1.00  0.00    -0.247 OA
ATOM     15  H2  UNL     1      -1.779  18.236  20.521  1.00  0.00     0.164 HD
ATOM     16  H3  UNL     1      -3.020  18.157  22.557  1.00  0.00     0.165 HD
BRANCH  13  17
HETATM   17  C6  UNL     1       0.235  17.800  20.129  1.00  0.00     0.124 C
BRANCH  17  18
HETATM   18  C5  UNL     1      -0.242  17.328  18.742  1.00  0.00     0.021 C
BRANCH  18  19
HETATM   19  C4  UNL     1      -1.157  16.160  18.938  1.00  0.00     0.032 C
BRANCH  19  20
HETATM   20  C3  UNL     1      -0.844  15.006  18.073  1.00  0.00     0.271 C
BRANCH  20  21
HETATM   21  N1  UNL     1      -1.800  14.586  17.129  1.00  0.00     0.080 N
HETATM   22  C1  UNL     1      -2.152  15.479  16.099  1.00  0.00     0.309 C
HETATM   23  C2  UNL     1      -1.508  13.261  16.624  1.00  0.00     0.309 C
ENDBRANCH  20  21
ENDBRANCH  19  20
ENDBRANCH  18  19
ENDBRANCH  17  18
ENDBRANCH  13  17
ENDBRANCH   1  11
BRANCH   3  24
HETATM   24  N5  UNL     1      -5.973  17.503  25.076  1.00  0.00    -0.344 N
ATOM     25  H52 UNL     1      -6.859  17.540  24.571  1.00  0.00     0.176 HD
ATOM     26  H51 UNL     1      -5.948  17.472  26.095  1.00  0.00     0.176 HD
ENDBRANCH   3  24
TORSDOF 7
ENDMDL