MODEL 4
REMARK VINA RESULT: -5.405271612      6.256      9.036
REMARK  7 active torsions:
REMARK  status: ('A' for Active; 'I' for Inactive)
REMARK    1  A    between atoms: C2_2  and  N1_4
REMARK    2  A    between atoms: C2_2  and  C4_8
REMARK    3  A    between atoms: C4_8  and  N2_9
REMARK    4  A    between atoms: N2_9  and  C7_12
REMARK    5  A    between atoms: C7_12  and  C8_13
REMARK    6  A    between atoms: C8_13  and  N3_14
REMARK       I    between atoms: N3_14  and  C9_16
REMARK       I    between atoms: C9_16  and  N5_20
REMARK    7  A    between atoms: N5_20  and  C10_22
ROOT
HETATM    1  N3  UNL     1       4.109  22.888  16.342  1.00  0.00    -0.225 N
ATOM      2  H3  UNL     1       4.053  23.696  16.961  1.00  0.00     0.177 HD
HETATM    3  C9  UNL     1       5.179  21.965  16.505  1.00  0.00     0.669 C
HETATM    4  N4  UNL     1       5.975  22.077  17.483  1.00  0.00    -0.235 N
ATOM      5  H41 UNL     1       6.742  21.416  17.601  1.00  0.00     0.174 HD
ATOM      6  H42 UNL     1       5.862  22.837  18.155  1.00  0.00     0.174 HD
HETATM    7  N5  UNL     1       5.335  20.914  15.576  1.00  0.00    -0.197 N
ATOM      8  H5  UNL     1       4.623  20.185  15.549  1.00  0.00     0.180 HD
ENDROOT
BRANCH   1   9
HETATM    9  C8  UNL     1       3.104  22.714  15.328  1.00  0.00     0.166 C
BRANCH   9  10
HETATM   10  C7  UNL     1       1.811  22.176  15.743  1.00  0.00     0.256 C
BRANCH  10  11
HETATM   11  N2  UNL     1       1.420  20.843  15.420  1.00  0.00    -0.071 N
HETATM   12  C5  UNL     1      -0.008  20.946  15.136  1.00  0.00     0.272 C
HETATM   13  C6  UNL     1       2.086  20.424  14.191  1.00  0.00     0.272 C
BRANCH  11  14
HETATM   14  C4  UNL     1       1.767  20.004  16.509  1.00  0.00     0.274 C
BRANCH  14  15
HETATM   15  C2  UNL     1       0.788  19.248  17.275  1.00  0.00     0.140 C
HETATM   16  C1  UNL     1       1.603  18.407  18.292  1.00  0.00     0.047 C
HETATM   17  C3  UNL     1      -0.122  20.085  18.163  1.00  0.00     0.047 C
BRANCH  15  18
HETATM   18  N1  UNL     1      -0.009  18.296  16.560  1.00  0.00    -0.070 N
ATOM     19  H13 UNL     1      -0.388  17.552  17.145  1.00  0.00     0.275 HD
ATOM     20  H12 UNL     1      -0.906  18.664  16.242  1.00  0.00     0.275 HD
ATOM     21  H11 UNL     1       0.592  17.963  15.805  1.00  0.00     0.275 HD
ENDBRANCH  15  18
ENDBRANCH  14  15
ENDBRANCH  11  14
ENDBRANCH  10  11
ENDBRANCH   9  10
ENDBRANCH   1   9
BRANCH   7  22
HETATM   22  C10 UNL     1       6.445  20.818  14.665  1.00  0.00     0.304 C
HETATM   23  N6  UNL     1       6.440  21.991  13.803  1.00  0.00    -0.053 N
HETATM   24  C11 UNL     1       5.384  21.677  12.869  1.00  0.00     0.239 C
ATOM     25  H62 UNL     1       6.336  22.882  14.288  1.00  0.00     0.279 HD
ATOM     26  H61 UNL     1       7.339  22.217  13.377  1.00  0.00     0.279 HD
HETATM   27  C12 UNL     1       5.728  20.253  12.479  1.00  0.00     0.019 A
HETATM   28  C13 UNL     1       7.131  19.827  12.401  1.00  0.00     0.015 A
HETATM   29  C14 UNL     1       6.359  19.699  13.681  1.00  0.00     0.042 A
ENDBRANCH   7  22
TORSDOF 7
ENDMDL