MODEL 5
REMARK VINA RESULT: -6.927477786      5.784     10.265
REMARK  10 active torsions:
REMARK  status: ('A' for Active; 'I' for Inactive)
REMARK    1  A    between atoms: N1_2  and  O1_3
REMARK    2  A    between atoms: C2_5  and  C3_6
REMARK    3  A    between atoms: C3_6  and  C4_7
REMARK    4  A    between atoms: C5_8  and  C6_9
REMARK    5  A    between atoms: C7_10  and  C8_11
REMARK    6  A    between atoms: C8_11  and  N2_12
REMARK    7  A    between atoms: N2_12  and  O2_13
REMARK    8  A    between atoms: N2_12  and  C9_15
REMARK    9  A    between atoms: C10_16  and  C11_17
REMARK   10  A    between atoms: C11_17  and  C12_18
ROOT
HETATM    1  N2  UNL     1       0.577  17.263  19.941  1.00  0.00    -0.165 NA
ENDROOT
BRANCH   1   2
HETATM    2  C8  UNL     1       0.400  18.518  20.653  1.00  0.00     0.220 C
BRANCH   2   3
HETATM    3  C7  UNL     1      -0.765  18.410  21.562  1.00  0.00    -0.075 C
HETATM    4  C6  UNL     1      -1.705  18.335  22.315  1.00  0.00    -0.014 C
BRANCH   4   5
HETATM    5  C5  UNL     1      -2.799  18.259  23.219  1.00  0.00    -0.015 C
HETATM    6  C4  UNL     1      -3.733  18.214  23.991  1.00  0.00    -0.087 C
BRANCH   6   7
HETATM    7  C3  UNL     1      -4.872  18.183  24.916  1.00  0.00     0.141 C
BRANCH   7   8
HETATM    8  C2  UNL     1      -4.806  16.930  25.710  1.00  0.00     0.101 C
HETATM    9  N1  UNL     1      -5.741  16.576  26.510  1.00  0.00    -0.279 N
HETATM   10  C1  UNL     1      -6.900  17.453  26.623  1.00  0.00     0.184 C
BRANCH   9  11
HETATM   11  O1  UNL     1      -5.620  15.415  27.207  1.00  0.00    -0.289 OA
ATOM     12  H1  UNL     1      -4.788  15.094  27.535  1.00  0.00     0.244 HD
ENDBRANCH   9  11
ENDBRANCH   7   8
ENDBRANCH   6   7
ENDBRANCH   4   5
ENDBRANCH   2   3
ENDBRANCH   1   2
BRANCH   1  13
HETATM   13  O2  UNL     1       1.618  17.340  19.086  1.00  0.00    -0.308 OA
ATOM     14  H2  UNL     1       1.347  17.118  18.203  1.00  0.00     0.237 HD
ENDBRANCH   1  13
BRANCH   1  15
HETATM   15  C9  UNL     1      -0.644  16.953  19.285  1.00  0.00     0.087 C
HETATM   16  C10 UNL     1      -0.705  15.885  18.508  1.00  0.00    -0.007 C
BRANCH  16  17
HETATM   17  C11 UNL     1      -1.945  15.529  17.813  1.00  0.00     0.086 C
BRANCH  17  18
HETATM   18  C12 UNL     1      -1.758  14.501  16.754  1.00  0.00     0.032 A
HETATM   19  C13 UNL     1      -1.172  13.270  16.834  1.00  0.00     0.118 A
HETATM   20  N3  UNL     1      -1.236  12.697  15.627  1.00  0.00    -0.317 N
HETATM   21  C14 UNL     1      -1.856  13.570  14.817  1.00  0.00     0.324 A
ATOM     22  H3  UNL     1      -0.882  11.775  15.372  1.00  0.00     0.170 HD
HETATM   23  O3  UNL     1      -2.088  13.349  13.591  1.00  0.00    -0.247 OA
HETATM   24  N4  UNL     1      -2.181  14.679  15.498  1.00  0.00    -0.311 N
ATOM     25  H4  UNL     1      -2.660  15.500  15.128  1.00  0.00     0.170 HD
ENDBRANCH  17  18
ENDBRANCH  16  17
ENDBRANCH   1  15
TORSDOF 10
ENDMDL