MODEL 1
REMARK VINA RESULT: -6.049276324      0.000      0.000
REMARK  6 active torsions:
REMARK  status: ('A' for Active; 'I' for Inactive)
REMARK    1  A    between atoms: C2_2  and  C3_3
REMARK    2  A    between atoms: C3_3  and  N1_4
REMARK    3  A    between atoms: N1_4  and  C4_5
REMARK    4  A    between atoms: C4_5  and  C5_6
REMARK    5  A    between atoms: C5_6  and  N2_7
REMARK       I    between atoms: N2_7  and  C6_9
REMARK    6  A    between atoms: C6_9  and  C7_11
ROOT
HETATM    1  C7  UNL     1      -1.111  16.264  17.724  1.00  0.00     0.209 C
HETATM    2  C8  UNL     1      -0.426  15.063  18.359  1.00  0.00     0.155 C
HETATM    3  N3  UNL     1      -1.360  14.063  18.770  1.00  0.00    -0.383 N
ATOM      4  H3  UNL     1      -1.906  14.132  19.629  1.00  0.00     0.160 HD
HETATM    5  C9  UNL     1      -1.462  12.951  17.867  1.00  0.00     0.193 C
HETATM    6  N4  UNL     1      -1.421  13.296  16.489  1.00  0.00    -0.189 N
ATOM      7  H4  UNL     1      -1.091  12.563  15.862  1.00  0.00     0.184 HD
HETATM    8  C10 UNL     1      -1.776  14.518  15.869  1.00  0.00     0.673 C
HETATM    9  N5  UNL     1      -2.190  14.457  14.632  1.00  0.00    -0.235 N
ATOM     10  H51 UNL     1      -2.446  15.337  14.186  1.00  0.00     0.174 HD
ATOM     11  H52 UNL     1      -2.233  13.539  14.190  1.00  0.00     0.174 HD
HETATM   12  N6  UNL     1      -1.716  15.803  16.489  1.00  0.00    -0.212 N
ATOM     13  H6  UNL     1      -2.188  16.537  15.962  1.00  0.00     0.178 HD
ENDROOT
BRANCH   1  14
HETATM   14  C6  UNL     1      -0.174  17.370  17.492  1.00  0.00     0.242 C
HETATM   15  N2  UNL     1      -0.329  18.332  16.463  1.00  0.00    -0.358 N
ATOM     16  H2  UNL     1      -1.143  18.237  15.855  1.00  0.00     0.162 HD
HETATM   17  O1  UNL     1       0.822  17.470  18.250  1.00  0.00    -0.271 OA
BRANCH  15  18
HETATM   18  C5  UNL     1       0.560  19.431  16.202  1.00  0.00     0.150 C
BRANCH  18  19
HETATM   19  C4  UNL     1       1.607  19.133  15.161  1.00  0.00     0.258 C
BRANCH  19  20
HETATM   20  N1  UNL     1       1.851  20.274  14.294  1.00  0.00    -0.055 N
HETATM   21  C11 UNL     1       0.732  21.049  13.807  1.00  0.00     0.271 A
HETATM   22  C12 UNL     1       1.477  20.177  12.905  1.00  0.00     0.213 A
HETATM   23  C13 UNL     1       2.299  20.829  11.831  1.00  0.00     0.042 C
BRANCH  20  24
HETATM   24  C3  UNL     1       3.097  20.957  14.591  1.00  0.00     0.265 C
BRANCH  24  25
HETATM   25  C2  UNL     1       4.228  20.069  14.873  1.00  0.00    -0.009 C
HETATM   26  C1  UNL     1       5.352  20.070  14.170  1.00  0.00     0.008 C
ENDBRANCH  24  25
ENDBRANCH  20  24
ENDBRANCH  19  20
ENDBRANCH  18  19
ENDBRANCH  15  18
ENDBRANCH   1  14
TORSDOF 6
ENDMDL