MODEL 2
REMARK VINA RESULT: -5.512110385      1.742      1.893
REMARK  9 active torsions:
REMARK  status: ('A' for Active; 'I' for Inactive)
REMARK    1  A    between atoms: C2_2  and  C3_3
REMARK    2  A    between atoms: C3_3  and  N1_4
REMARK    3  A    between atoms: C5_6  and  C6_7
REMARK    4  A    between atoms: C7_8  and  C8_9
REMARK    5  A    between atoms: C8_9  and  N2_10
REMARK    6  A    between atoms: N2_10  and  C9_11
REMARK    7  A    between atoms: C9_11  and  C10_12
REMARK    8  A    between atoms: C10_12  and  N3_13
REMARK    9  A    between atoms: N3_13  and  C11_15
ROOT
HETATM    1  N2  UNL     1     -10.722  23.707  49.050  1.00  0.00     0.020 N
HETATM    2  C12 UNL     1     -12.134  23.542  48.910  1.00  0.00     0.269 C
HETATM    3  C13 UNL     1     -12.677  24.787  48.254  1.00  0.00     0.153 C
HETATM    4  N4  UNL     1     -11.662  25.779  48.569  1.00  0.00    -0.335 N
ATOM      5  H4  UNL     1     -11.796  26.785  48.682  1.00  0.00     0.164 HD
HETATM    6  C14 UNL     1     -10.445  25.055  48.688  1.00  0.00     0.415 C
HETATM    7  O2  UNL     1      -9.294  25.547  48.499  1.00  0.00    -0.239 OA
ENDROOT
BRANCH   1   8
HETATM    8  C8  UNL     1     -10.326  23.536  50.440  1.00  0.00     0.277 C
BRANCH   8   9
HETATM    9  C7  UNL     1     -11.519  23.469  51.337  1.00  0.00    -0.001 C
HETATM   10  C6  UNL     1     -11.634  24.190  52.426  1.00  0.00    -0.003 C
BRANCH  10  11
HETATM   11  C5  UNL     1     -12.831  24.105  53.302  1.00  0.00     0.124 C
HETATM   12  C4  UNL     1     -13.761  25.282  53.130  1.00  0.00     0.154 C
HETATM   13  N1  UNL     1     -14.407  25.370  54.442  1.00  0.00    -0.353 N
HETATM   14  C15 UNL     1     -13.393  25.011  55.374  1.00  0.00     0.170 C
HETATM   15  N5  UNL     1     -12.475  24.132  54.715  1.00  0.00    -0.358 N
HETATM   16  S1  UNL     1     -13.327  25.540  56.937  1.00  0.00    -0.041 SA
ATOM     17  H5  UNL     1     -11.711  23.618  55.155  1.00  0.00     0.162 HD
BRANCH  13  18
HETATM   18  C3  UNL     1     -15.777  25.743  54.727  1.00  0.00     0.151 C
BRANCH  18  19
HETATM   19  C2  UNL     1     -16.716  24.813  54.095  1.00  0.00    -0.017 C
HETATM   20  C1  UNL     1     -16.819  23.562  54.528  1.00  0.00     0.008 C
ENDBRANCH  18  19
ENDBRANCH  13  18
ENDBRANCH  10  11
ENDBRANCH   8   9
ENDBRANCH   1   8
BRANCH   1  21
HETATM   21  C9  UNL     1      -9.970  22.796  48.229  1.00  0.00     0.269 C
BRANCH  21  22
HETATM   22  C10 UNL     1      -9.593  21.595  49.070  1.00  0.00     0.150 C
BRANCH  22  23
HETATM   23  N3  UNL     1     -10.299  20.434  48.557  1.00  0.00    -0.367 N
ATOM     24  H3  UNL     1     -11.055  20.540  47.880  1.00  0.00     0.161 HD
BRANCH  23  25
HETATM   25  C11 UNL     1      -9.914  19.156  49.017  1.00  0.00     0.348 C
HETATM   26  O1  UNL     1      -8.861  18.988  49.661  1.00  0.00    -0.284 OA
ENDBRANCH  23  25
ENDBRANCH  22  23
ENDBRANCH  21  22
ENDBRANCH   1  21
TORSDOF 9
ENDMDL