MODEL 1
REMARK VINA RESULT: -6.339449839      0.000      0.000
REMARK  10 active torsions:
REMARK  status: ('A' for Active; 'I' for Inactive)
REMARK    1  A    between atoms: C2_2  and  C3_3
REMARK    2  A    between atoms: C3_3  and  N1_4
REMARK    3  A    between atoms: N1_4  and  C4_6
REMARK    4  A    between atoms: C4_6  and  C5_7
REMARK    5  A    between atoms: C4_6  and  C8_10
REMARK    6  A    between atoms: C8_10  and  N2_11
REMARK    7  A    between atoms: C8_10  and  C11_23
REMARK       I    between atoms: N2_11  and  C9_13
REMARK    8  A    between atoms: C9_13  and  C10_15
REMARK    9  A    between atoms: C10_15  and  N3_16
REMARK   10  A    between atoms: N3_16  and  N4_18
REMARK       I    between atoms: C11_23  and  N6_25
ROOT
HETATM    1  C8  UNL     1     -10.276  23.196  49.202  1.00  0.00     0.199 C
ENDROOT
BRANCH   1   2
HETATM    2  C4  UNL     1     -11.472  23.717  49.945  1.00  0.00     0.116 C
BRANCH   2   3
HETATM    3  N1  UNL     1     -12.650  23.311  49.302  1.00  0.00    -0.395 N
ATOM      4  H1  UNL     1     -12.911  22.326  49.354  1.00  0.00     0.159 HD
BRANCH   3   5
HETATM    5  C3  UNL     1     -13.484  24.171  48.598  1.00  0.00     0.055 C
BRANCH   5   6
HETATM    6  C2  UNL     1     -13.226  25.651  48.708  1.00  0.00     0.039 C
HETATM    7  C1  UNL     1     -14.289  26.207  49.656  1.00  0.00     0.010 C
ENDBRANCH   5   6
ENDBRANCH   3   5
ENDBRANCH   2   3
BRANCH   2   8
HETATM    8  C5  UNL     1     -11.339  23.484  51.416  1.00  0.00     0.003 C
HETATM    9  C6  UNL     1     -12.374  24.088  52.298  1.00  0.00     0.011 C
HETATM   10  C7  UNL     1      -9.950  23.769  51.974  1.00  0.00     0.011 C
ENDBRANCH   2   8
ENDBRANCH   1   2
BRANCH   1  11
HETATM   11  N2  UNL     1     -10.497  21.757  48.982  1.00  0.00    -0.344 N
HETATM   12  C9  UNL     1      -9.606  20.782  49.463  1.00  0.00     0.237 C
HETATM   13  O1  UNL     1      -8.567  21.135  50.111  1.00  0.00    -0.272 OA
ATOM     14  H2  UNL     1     -11.323  21.459  48.464  1.00  0.00     0.163 HD
BRANCH  12  15
HETATM   15  C10 UNL     1      -9.836  19.332  49.239  1.00  0.00     0.243 C
BRANCH  15  16
HETATM   16  N3  UNL     1      -8.866  18.537  49.960  1.00  0.00    -0.314 N
ATOM     17  H3  UNL     1      -7.869  18.742  49.896  1.00  0.00     0.182 HD
BRANCH  16  18
HETATM   18  N4  UNL     1      -9.327  17.490  50.740  1.00  0.00    -0.253 N
HETATM   19  N5  UNL     1      -8.599  16.942  51.621  1.00  0.00    -0.331 N
ATOM     20  H52 UNL     1      -7.649  17.294  51.745  1.00  0.00     0.178 HD
ATOM     21  H51 UNL     1      -8.938  16.171  52.195  1.00  0.00     0.178 HD
ATOM     22  H4  UNL     1     -10.278  17.150  50.602  1.00  0.00     0.207 HD
ENDBRANCH  16  18
ENDBRANCH  15  16
ENDBRANCH  12  15
ENDBRANCH   1  11
BRANCH   1  23
HETATM   23  C11 UNL     1     -10.056  23.854  47.898  1.00  0.00     0.244 C
HETATM   24  O2  UNL     1     -10.375  23.239  46.860  1.00  0.00    -0.271 OA
HETATM   25  N6  UNL     1      -9.503  25.133  47.793  1.00  0.00    -0.350 N
HETATM   26  C12 UNL     1      -9.050  25.958  48.911  1.00  0.00     0.126 C
HETATM   27  C16 UNL     1      -9.351  25.711  46.454  1.00  0.00     0.126 C
HETATM   28  C13 UNL     1      -7.803  26.699  48.445  1.00  0.00     0.020 C
HETATM   29  C14 UNL     1      -8.191  27.710  47.375  1.00  0.00     0.003 C
HETATM   30  C15 UNL     1      -9.401  27.212  46.599  1.00  0.00     0.020 C
ENDBRANCH   1  23
TORSDOF 10
ENDMDL