MODEL 1
REMARK VINA RESULT: -6.851911630      0.000      0.000
REMARK  8 active torsions:
REMARK  status: ('A' for Active; 'I' for Inactive)
REMARK    1  A    between atoms: N1_2  and  C2_4
REMARK    2  A    between atoms: C2_4  and  C4_11
REMARK    3  A    between atoms: C3_5  and  N2_6
REMARK       I    between atoms: C4_11  and  N4_13
REMARK    4  A    between atoms: N4_13  and  C5_15
REMARK    5  A    between atoms: C5_15  and  C6_16
REMARK    6  A    between atoms: C13_23  and  C14_24
REMARK    7  A    between atoms: C14_24  and  C15_25
REMARK    8  A    between atoms: C15_25  and  N5_26
ROOT
HETATM    1  C5  UNL     1     -10.484  23.310  51.509  1.00  0.00     0.161 C
ENDROOT
BRANCH   1   2
HETATM    2  N4  UNL     1     -10.261  22.028  50.833  1.00  0.00    -0.351 N
HETATM    3  C4  UNL     1      -9.134  21.275  51.248  1.00  0.00     0.269 C
HETATM    4  O1  UNL     1      -8.371  21.679  52.141  1.00  0.00    -0.266 OA
ATOM      5  H4  UNL     1     -10.887  21.695  50.100  1.00  0.00     0.163 HD
BRANCH   3   6
HETATM    6  C2  UNL     1      -8.838  19.964  50.583  1.00  0.00     0.113 C
HETATM    7  C3  UNL     1      -8.022  19.011  51.281  1.00  0.00     0.141 C
BRANCH   6   8
HETATM    8  N1  UNL     1      -9.758  19.719  49.592  1.00  0.00    -0.389 N
HETATM    9  C1  UNL     1      -9.505  19.729  48.206  1.00  0.00     0.146 C
ATOM     10  H1  UNL     1     -10.712  19.510  49.886  1.00  0.00     0.159 HD
ENDBRANCH   6   8
BRANCH   7  11
HETATM   11  N2  UNL     1      -8.674  18.023  52.065  1.00  0.00    -0.316 N
HETATM   12  N3  UNL     1      -8.662  16.797  51.720  1.00  0.00    -0.345 N
ATOM     13  H32 UNL     1      -8.172  16.537  50.864  1.00  0.00     0.176 HD
ATOM     14  H31 UNL     1      -9.130  16.087  52.283  1.00  0.00     0.176 HD
ATOM     15  H2  UNL     1      -9.160  18.299  52.919  1.00  0.00     0.185 HD
ENDBRANCH   7  11
ENDBRANCH   3   6
ENDBRANCH   1   2
BRANCH   1  16
HETATM   16  C6  UNL     1     -11.586  24.064  50.738  1.00  0.00    -0.041 C
HETATM   17  C7  UNL     1     -12.530  24.676  51.441  1.00  0.00    -0.013 C
HETATM   18  C8  UNL     1     -13.719  25.470  51.148  1.00  0.00     0.013 A
HETATM   19  C9  UNL     1     -13.419  26.952  50.856  1.00  0.00     0.014 A
HETATM   20  C10 UNL     1     -14.028  26.005  49.865  1.00  0.00    -0.006 A
HETATM   21  C11 UNL     1     -13.277  25.592  48.646  1.00  0.00     0.009 C
HETATM   22  C12 UNL     1     -12.851  24.166  48.608  1.00  0.00     0.035 C
HETATM   23  C13 UNL     1     -11.551  23.937  49.289  1.00  0.00    -0.071 C
BRANCH  23  24
HETATM   24  C14 UNL     1     -10.335  24.533  48.675  1.00  0.00     0.062 C
BRANCH  24  25
HETATM   25  C15 UNL     1      -9.980  23.766  47.408  1.00  0.00     0.240 C
BRANCH  25  26
HETATM   26  N5  UNL     1      -9.529  24.616  46.362  1.00  0.00    -0.078 N
HETATM   27  C16 UNL     1      -8.785  25.734  46.998  1.00  0.00     0.271 C
HETATM   28  C17 UNL     1     -10.630  25.260  45.662  1.00  0.00     0.271 C
HETATM   29  C18 UNL     1      -8.659  24.040  45.384  1.00  0.00     0.271 C
ENDBRANCH  25  26
ENDBRANCH  24  25
ENDBRANCH  23  24
ENDBRANCH   1  16
TORSDOF 8
ENDMDL