MODEL 3
REMARK VINA RESULT: -6.109063032      1.030      1.414
REMARK  9 active torsions:
REMARK  status: ('A' for Active; 'I' for Inactive)
REMARK    1  A    between atoms: N1_2  and  C4_5
REMARK    2  A    between atoms: C4_5  and  C5_6
REMARK    3  A    between atoms: C5_6  and  C6_7
REMARK    4  A    between atoms: C6_7  and  C7_8
REMARK    5  A    between atoms: C6_7  and  N3_13
REMARK    6  A    between atoms: C7_8  and  N2_9
REMARK       I    between atoms: N3_13  and  C11_15
REMARK       I    between atoms: C11_15  and  N4_17
REMARK    7  A    between atoms: N4_17  and  C12_19
REMARK    8  A    between atoms: C12_19  and  C13_20
REMARK    9  A    between atoms: C13_20  and  C14_21
ROOT
HETATM    1  N3  UNL     1     -11.741  23.120  48.603  1.00  0.00    -0.337 N
ATOM      2  H3  UNL     1     -12.535  22.686  48.133  1.00  0.00     0.164 HD
HETATM    3  C11 UNL     1     -10.588  22.325  48.833  1.00  0.00     0.316 C
HETATM    4  O1  UNL     1      -9.562  22.783  49.406  1.00  0.00    -0.247 OA
HETATM    5  N4  UNL     1     -10.567  20.979  48.414  1.00  0.00    -0.343 N
ATOM      6  H4  UNL     1     -11.386  20.587  47.948  1.00  0.00     0.164 HD
ENDROOT
BRANCH   1   7
HETATM    7  C6  UNL     1     -11.861  24.509  48.996  1.00  0.00     0.113 C
BRANCH   7   8
HETATM    8  C5  UNL     1     -12.689  25.139  47.863  1.00  0.00     0.055 C
BRANCH   8   9
HETATM    9  C4  UNL     1     -14.040  25.586  48.303  1.00  0.00     0.238 C
BRANCH   9  10
HETATM   10  N1  UNL     1     -14.268  26.886  47.650  1.00  0.00    -0.079 N
HETATM   11  C1  UNL     1     -13.636  26.841  46.366  1.00  0.00     0.271 C
HETATM   12  C2  UNL     1     -13.570  27.864  48.463  1.00  0.00     0.271 C
HETATM   13  C3  UNL     1     -15.680  27.193  47.594  1.00  0.00     0.271 C
ENDBRANCH   9  10
ENDBRANCH   8   9
ENDBRANCH   7   8
BRANCH   7  14
HETATM   14  C7  UNL     1     -12.662  24.586  50.249  1.00  0.00     0.261 C
BRANCH  14  15
HETATM   15  N2  UNL     1     -11.968  24.979  51.431  1.00  0.00    -0.077 N
HETATM   16  C8  UNL     1     -12.816  25.908  52.168  1.00  0.00     0.271 C
HETATM   17  C9  UNL     1     -10.752  25.752  51.107  1.00  0.00     0.271 C
HETATM   18  C10 UNL     1     -11.532  23.905  52.281  1.00  0.00     0.271 C
ENDBRANCH  14  15
ENDBRANCH   7  14
ENDBRANCH   1   7
BRANCH   5  19
HETATM   19  C12 UNL     1      -9.417  20.155  48.631  1.00  0.00     0.125 C
BRANCH  19  20
HETATM   20  C13 UNL     1      -9.713  19.042  49.622  1.00  0.00     0.035 C
BRANCH  20  21
HETATM   21  C14 UNL     1      -8.482  18.862  50.479  1.00  0.00     0.097 C
HETATM   22  C15 UNL     1      -8.508  17.694  51.412  1.00  0.00     0.136 C
HETATM   23  N5  UNL     1      -8.274  18.601  52.533  1.00  0.00    -0.360 N
HETATM   24  C16 UNL     1      -8.568  19.711  51.696  1.00  0.00     0.223 C
ATOM     25  H5  UNL     1      -8.010  18.484  53.512  1.00  0.00     0.162 HD
HETATM   26  O2  UNL     1      -8.804  20.924  51.925  1.00  0.00    -0.273 OA
ENDBRANCH  20  21
ENDBRANCH  19  20
ENDBRANCH   5  19
TORSDOF 9
ENDMDL