MODEL 5
REMARK VINA RESULT: -6.117681555      4.222      7.082
REMARK  10 active torsions:
REMARK  status: ('A' for Active; 'I' for Inactive)
REMARK    1  A    between atoms: N1_2  and  C3_5
REMARK    2  A    between atoms: C4_6  and  C5_7
REMARK       I    between atoms: C5_7  and  N2_9
REMARK    3  A    between atoms: N2_9  and  C6_11
REMARK    4  A    between atoms: C6_11  and  C7_12
REMARK    5  A    between atoms: C7_12  and  C8_13
REMARK    6  A    between atoms: C7_12  and  N5_23
REMARK    7  A    between atoms: C8_13  and  C9_14
REMARK    8  A    between atoms: C9_14  and  O3_15
REMARK    9  A    between atoms: C9_14  and  C10_17
REMARK   10  A    between atoms: C10_17  and  N3_18
ROOT
HETATM    1  C7  UNL     1     -13.457  25.021  52.280  1.00  0.00     0.210 C
ENDROOT
BRANCH   1   2
HETATM    2  C6  UNL     1     -12.108  24.702  52.833  1.00  0.00     0.156 C
BRANCH   2   3
HETATM    3  N2  UNL     1     -11.540  23.428  52.415  1.00  0.00    -0.356 N
HETATM    4  C5  UNL     1     -10.336  23.389  51.664  1.00  0.00     0.243 C
HETATM    5  O2  UNL     1      -9.749  24.487  51.354  1.00  0.00    -0.269 OA
ATOM      6  H2  UNL     1     -12.010  22.558  52.665  1.00  0.00     0.162 HD
BRANCH   4   7
HETATM    7  C4  UNL     1      -9.721  22.171  51.219  1.00  0.00     0.108 C
HETATM    8  C3  UNL     1     -10.021  21.575  50.097  1.00  0.00     0.278 C
BRANCH   8   9
HETATM    9  N1  UNL     1      -9.358  20.345  49.709  1.00  0.00     0.028 N
HETATM   10  C1  UNL     1      -8.143  20.171  50.486  1.00  0.00     0.362 C
HETATM   11  C2  UNL     1      -9.053  20.438  48.295  1.00  0.00     0.362 C
HETATM   12  O1  UNL     1     -10.219  19.320  49.887  1.00  0.00    -0.061 OA
ENDBRANCH   8   9
ENDBRANCH   4   7
ENDBRANCH   2   3
ENDBRANCH   1   2
BRANCH   1  13
HETATM   13  C8  UNL     1     -14.321  25.363  53.441  1.00  0.00     0.072 C
BRANCH  13  14
HETATM   14  C9  UNL     1     -15.144  24.249  54.020  1.00  0.00     0.160 C
BRANCH  14  15
HETATM   15  O3  UNL     1     -15.026  24.381  55.469  1.00  0.00    -0.390 OA
ATOM     16  H3  UNL     1     -15.339  23.559  55.829  1.00  0.00     0.210 HD
ENDBRANCH  14  15
BRANCH  14  17
HETATM   17  C10 UNL     1     -16.639  24.381  53.844  1.00  0.00     0.111 C
BRANCH  17  18
HETATM   18  N3  UNL     1     -17.459  24.189  54.954  1.00  0.00    -0.320 N
HETATM   19  N4  UNL     1     -17.787  23.065  55.400  1.00  0.00    -0.346 N
ATOM     20  H42 UNL     1     -17.422  22.250  54.908  1.00  0.00     0.176 HD
ATOM     21  H41 UNL     1     -18.388  22.925  56.213  1.00  0.00     0.176 HD
ATOM     22  H3  UNL     1     -17.815  25.016  55.433  1.00  0.00     0.185 HD
ENDBRANCH  17  18
ENDBRANCH  14  17
ENDBRANCH  13  14
ENDBRANCH   1  13
BRANCH   1  23
HETATM   23  N5  UNL     1     -13.465  26.044  51.247  1.00  0.00    -0.065 N
HETATM   24  C11 UNL     1     -12.284  26.860  51.482  1.00  0.00     0.273 C
HETATM   25  C12 UNL     1     -13.342  25.394  49.948  1.00  0.00     0.237 C
HETATM   26  C13 UNL     1     -13.268  26.333  48.791  1.00  0.00     0.028 C
HETATM   27  C14 UNL     1     -14.497  27.168  48.726  1.00  0.00     0.003 C
HETATM   28  C15 UNL     1     -15.372  26.878  49.891  1.00  0.00     0.028 C
HETATM   29  C16 UNL     1     -14.587  26.904  51.215  1.00  0.00     0.237 C
ENDBRANCH   1  23
TORSDOF 10
ENDMDL