MODEL 4
REMARK VINA RESULT: -6.911816739      1.373      1.624
REMARK  10 active torsions:
REMARK  status: ('A' for Active; 'I' for Inactive)
REMARK    1  A    between atoms: C2_2  and  C3_3
REMARK    2  A    between atoms: C3_3  and  C4_4
REMARK    3  A    between atoms: C4_4  and  C5_5
REMARK    4  A    between atoms: C5_5  and  N1_6
REMARK    5  A    between atoms: C5_5  and  C9_17
REMARK       I    between atoms: N1_6  and  C6_8
REMARK    6  A    between atoms: C6_8  and  C7_10
REMARK    7  A    between atoms: C7_10  and  C8_11
REMARK    8  A    between atoms: N2_12  and  N3_14
REMARK       I    between atoms: C9_17  and  N4_19
REMARK    9  A    between atoms: N4_19  and  C10_21
REMARK   10  A    between atoms: C10_21  and  C11_22
REMARK       I    between atoms: C11_22  and  N5_24
ROOT
HETATM    1  C5  UNL     1      -9.940  22.504  49.548  1.00  0.00     0.177 C
ENDROOT
BRANCH   1   2
HETATM    2  C4  UNL     1     -10.630  22.973  50.802  1.00  0.00     0.038 C
BRANCH   2   3
HETATM    3  C3  UNL     1     -10.365  24.411  51.075  1.00  0.00     0.029 C
BRANCH   3   4
HETATM    4  C2  UNL     1     -11.632  25.172  51.334  1.00  0.00    -0.037 C
HETATM    5  C1  UNL     1     -12.766  24.714  50.901  1.00  0.00     0.007 C
ENDBRANCH   3   4
ENDBRANCH   2   3
ENDBRANCH   1   2
BRANCH   1   6
HETATM    6  N1  UNL     1     -10.237  21.062  49.377  1.00  0.00    -0.348 N
HETATM    7  C6  UNL     1      -9.205  20.142  49.669  1.00  0.00     0.223 C
HETATM    8  O1  UNL     1      -8.073  20.511  50.060  1.00  0.00    -0.273 OA
ATOM      9  H1  UNL     1     -11.153  20.745  49.059  1.00  0.00     0.163 HD
BRANCH   7  10
HETATM   10  C7  UNL     1      -9.471  18.694  49.508  1.00  0.00     0.148 C
BRANCH  10  11
HETATM   11  C8  UNL     1      -8.972  17.938  50.682  1.00  0.00     0.088 C
HETATM   12  N2  UNL     1      -9.564  16.894  51.146  1.00  0.00    -0.322 N
ATOM     13  H2  UNL     1      -9.184  16.404  51.956  1.00  0.00     0.185 HD
BRANCH  12  14
HETATM   14  N3  UNL     1     -10.744  16.434  50.521  1.00  0.00    -0.346 N
ATOM     15  H32 UNL     1     -11.290  17.076  49.946  1.00  0.00     0.176 HD
ATOM     16  H31 UNL     1     -11.034  15.465  50.655  1.00  0.00     0.176 HD
ENDBRANCH  12  14
ENDBRANCH  10  11
ENDBRANCH   7  10
ENDBRANCH   1   6
BRANCH   1  17
HETATM   17  C9  UNL     1     -10.385  23.242  48.355  1.00  0.00     0.240 C
HETATM   18  O2  UNL     1     -11.513  23.006  47.802  1.00  0.00    -0.271 OA
HETATM   19  N4  UNL     1      -9.572  24.235  47.774  1.00  0.00    -0.351 N
ATOM     20  H4  UNL     1      -8.664  24.444  48.189  1.00  0.00     0.163 HD
BRANCH  19  21
HETATM   21  C10 UNL     1     -10.003  24.968  46.594  1.00  0.00     0.225 C
BRANCH  21  22
HETATM   22  C11 UNL     1      -9.477  24.357  45.356  1.00  0.00     0.237 C
HETATM   23  O3  UNL     1     -10.203  23.569  44.717  1.00  0.00    -0.272 OA
HETATM   24  N5  UNL     1      -8.180  24.649  44.891  1.00  0.00    -0.351 N
HETATM   25  C12 UNL     1      -7.381  25.564  45.672  1.00  0.00     0.126 C
HETATM   26  C16 UNL     1      -7.733  24.021  43.672  1.00  0.00     0.126 C
HETATM   27  C13 UNL     1      -6.118  26.024  45.066  1.00  0.00     0.020 C
HETATM   28  C14 UNL     1      -5.512  25.077  44.062  1.00  0.00     0.003 C
HETATM   29  C15 UNL     1      -6.526  24.608  43.044  1.00  0.00     0.020 C
ENDBRANCH  21  22
ENDBRANCH  19  21
ENDBRANCH   1  17
TORSDOF 10
ENDMDL