MODEL 1
REMARK VINA RESULT: -6.219776695      0.000      0.000
REMARK  10 active torsions:
REMARK  status: ('A' for Active; 'I' for Inactive)
REMARK    1  A    between atoms: C2_2  and  N1_3
REMARK    2  A    between atoms: N1_3  and  C5_6
REMARK    3  A    between atoms: C5_6  and  C6_7
REMARK    4  A    between atoms: C6_7  and  N2_8
REMARK       I    between atoms: N2_8  and  C7_10
REMARK    5  A    between atoms: C7_10  and  C8_12
REMARK    6  A    between atoms: C8_12  and  C9_13
REMARK    7  A    between atoms: C8_12  and  N3_20
REMARK    8  A    between atoms: C9_13  and  C10_14
REMARK       I    between atoms: N3_20  and  C16_22
REMARK    9  A    between atoms: C16_22  and  C17_24
REMARK   10  A    between atoms: C17_24  and  N4_25
ROOT
HETATM    1  C8  UNL     1     -10.835  22.578  48.826  1.00  0.00     0.177 C
ENDROOT
BRANCH   1   2
HETATM    2  C7  UNL     1      -9.950  23.534  48.141  1.00  0.00     0.240 C
HETATM    3  N2  UNL     1      -9.915  23.527  46.719  1.00  0.00    -0.358 N
ATOM      4  H2  UNL     1     -10.513  22.884  46.200  1.00  0.00     0.162 HD
HETATM    5  O1  UNL     1      -9.242  24.321  48.830  1.00  0.00    -0.271 OA
BRANCH   3   6
HETATM    6  C6  UNL     1      -9.042  24.420  46.012  1.00  0.00     0.150 C
BRANCH   6   7
HETATM    7  C5  UNL     1      -8.339  23.760  44.895  1.00  0.00     0.256 C
BRANCH   7   8
HETATM    8  N1  UNL     1      -7.891  24.692  43.869  1.00  0.00    -0.073 N
HETATM    9  C3  UNL     1      -7.563  25.956  44.485  1.00  0.00     0.272 C
HETATM   10  C4  UNL     1      -9.042  24.929  42.995  1.00  0.00     0.272 C
BRANCH   8  11
HETATM   11  C2  UNL     1      -6.754  24.223  43.138  1.00  0.00     0.232 C
HETATM   12  C1  UNL     1      -5.500  24.482  43.957  1.00  0.00     0.034 C
ENDBRANCH   8  11
ENDBRANCH   7   8
ENDBRANCH   6   7
ENDBRANCH   3   6
ENDBRANCH   1   2
BRANCH   1  13
HETATM   13  C9  UNL     1     -11.972  23.192  49.525  1.00  0.00     0.039 C
BRANCH  13  14
HETATM   14  C10 UNL     1     -12.421  24.558  49.160  1.00  0.00    -0.012 C
HETATM   15  C11 UNL     1     -13.753  24.747  48.558  1.00  0.00     0.005 C
HETATM   16  C12 UNL     1     -14.207  26.220  48.713  1.00  0.00     0.000 C
HETATM   17  C13 UNL     1     -14.528  26.493  50.169  1.00  0.00     0.000 C
HETATM   18  C14 UNL     1     -13.747  25.489  50.996  1.00  0.00     0.000 C
HETATM   19  C15 UNL     1     -12.350  25.421  50.435  1.00  0.00     0.005 C
ENDBRANCH  13  14
ENDBRANCH   1  13
BRANCH   1  20
HETATM   20  N3  UNL     1     -10.049  21.731  49.742  1.00  0.00    -0.346 N
HETATM   21  C16 UNL     1      -9.669  20.418  49.368  1.00  0.00     0.237 C
HETATM   22  O2  UNL     1     -10.001  19.940  48.229  1.00  0.00    -0.272 OA
ATOM     23  H3  UNL     1      -9.775  22.094  50.656  1.00  0.00     0.163 HD
BRANCH  21  24
HETATM   24  C17 UNL     1      -8.880  19.531  50.255  1.00  0.00     0.241 C
BRANCH  24  25
HETATM   25  N4  UNL     1      -9.005  18.154  49.881  1.00  0.00    -0.334 N
HETATM   26  N5  UNL     1      -9.999  17.501  50.199  1.00  0.00    -0.349 N
ATOM     27  H52 UNL     1     -10.734  17.962  50.736  1.00  0.00     0.176 HD
ATOM     28  H51 UNL     1     -10.088  16.521  49.933  1.00  0.00     0.176 HD
ATOM     29  H4  UNL     1      -8.260  17.709  49.345  1.00  0.00     0.180 HD
ENDBRANCH  24  25
ENDBRANCH  21  24
ENDBRANCH   1  20
TORSDOF 10
ENDMDL