MODEL 3
REMARK VINA RESULT: -4.916053387      2.949      4.174
REMARK  10 active torsions:
REMARK  status: ('A' for Active; 'I' for Inactive)
REMARK    1  A    between atoms: C2_2  and  C3_3
REMARK    2  A    between atoms: C3_3  and  N1_4
REMARK    3  A    between atoms: C4_6  and  C5_7
REMARK    4  A    between atoms: C5_7  and  C6_8
REMARK    5  A    between atoms: C6_8  and  C7_9
REMARK    6  A    between atoms: C7_9  and  C8_10
REMARK    7  A    between atoms: C7_9  and  N3_17
REMARK    8  A    between atoms: C8_10  and  N2_12
REMARK    9  A    between atoms: N2_12  and  C12_15
REMARK   10  A    between atoms: C16_23  and  C17_24
ROOT
HETATM    1  C7  UNL     1     -10.006  24.915  46.757  1.00  0.00     0.026 C
ENDROOT
BRANCH   1   2
HETATM    2  C6  UNL     1     -10.344  23.619  47.298  1.00  0.00     0.060 C
BRANCH   2   3
HETATM    3  C5  UNL     1     -10.104  23.346  48.771  1.00  0.00     0.050 C
BRANCH   3   4
HETATM    4  C4  UNL     1      -9.681  21.909  48.960  1.00  0.00     0.056 C
HETATM    5  N1  UNL     1     -10.399  20.993  48.511  1.00  0.00    -0.402 N
ATOM      6  H1  UNL     1     -11.267  21.209  48.020  1.00  0.00     0.158 HD
BRANCH   5   7
HETATM    7  C3  UNL     1      -9.986  19.630  48.696  1.00  0.00     0.118 C
BRANCH   7   8
HETATM    8  C2  UNL     1      -8.966  19.605  49.803  1.00  0.00     0.015 C
HETATM    9  C1  UNL     1      -8.974  18.210  50.403  1.00  0.00     0.006 C
ENDBRANCH   7   8
ENDBRANCH   5   7
ENDBRANCH   3   4
ENDBRANCH   2   3
ENDBRANCH   1   2
BRANCH   1  10
HETATM   10  C8  UNL     1     -10.390  26.224  47.259  1.00  0.00     0.231 C
HETATM   11  C9  UNL     1      -9.290  26.763  48.229  1.00  0.00     0.047 C
BRANCH  10  12
HETATM   12  N2  UNL     1     -11.586  26.616  47.862  1.00  0.00    -0.066 N
HETATM   13  C10 UNL     1     -11.649  28.093  47.564  1.00  0.00     0.272 C
HETATM   14  C11 UNL     1     -11.587  26.624  49.335  1.00  0.00     0.272 C
BRANCH  12  15
HETATM   15  C12 UNL     1     -12.847  26.185  47.367  1.00  0.00     0.233 C
HETATM   16  C13 UNL     1     -13.588  25.252  48.317  1.00  0.00     0.035 C
ENDBRANCH  12  15
ENDBRANCH  10  12
ENDBRANCH   1  10
BRANCH   1  17
HETATM   17  N3  UNL     1      -9.785  24.844  45.306  1.00  0.00    -0.289 N
HETATM   18  C14 UNL     1      -8.926  23.984  44.562  1.00  0.00     0.323 C
HETATM   19  O1  UNL     1      -7.819  23.565  44.973  1.00  0.00    -0.247 OA
HETATM   20  N4  UNL     1      -9.559  23.711  43.309  1.00  0.00    -0.340 N
HETATM   21  C15 UNL     1     -10.784  24.530  43.230  1.00  0.00     0.161 C
ATOM     22  H4  UNL     1      -9.223  23.064  42.596  1.00  0.00     0.164 HD
HETATM   23  C16 UNL     1     -10.421  25.630  44.228  1.00  0.00     0.212 C
BRANCH  23  24
HETATM   24  C17 UNL     1      -9.368  26.423  43.578  1.00  0.00     0.199 C
HETATM   25  O2  UNL     1      -8.594  27.155  44.248  1.00  0.00    -0.646 OA
HETATM   26  O3  UNL     1      -9.197  26.389  42.217  1.00  0.00    -0.646 OA
ENDBRANCH  23  24
ENDBRANCH   1  17
TORSDOF 10
ENDMDL