MODEL 4
REMARK VINA RESULT: -5.404428018      3.621      7.594
REMARK  11 active torsions:
REMARK  status: ('A' for Active; 'I' for Inactive)
REMARK    1  A    between atoms: C2_2  and  N1_3
REMARK       I    between atoms: N1_3  and  C3_5
REMARK       I    between atoms: C3_5  and  N2_7
REMARK    2  A    between atoms: N2_7  and  C4_9
REMARK    3  A    between atoms: C4_9  and  C5_10
REMARK    4  A    between atoms: C5_10  and  N3_11
REMARK    5  A    between atoms: N3_11  and  C8_14
REMARK    6  A    between atoms: C8_14  and  C9_15
REMARK       I    between atoms: C9_15  and  N4_17
REMARK    7  A    between atoms: N4_17  and  C10_19
REMARK    8  A    between atoms: C10_19  and  C11_20
REMARK    9  A    between atoms: C11_20  and  N5_21
REMARK   10  A    between atoms: N5_21  and  C14_24
REMARK   11  A    between atoms: C14_24  and  O3_27
ROOT
HETATM    1  C8  UNL     1     -10.733  25.116  49.574  1.00  0.00     0.338 C
ENDROOT
BRANCH   1   2
HETATM    2  N3  UNL     1     -11.584  24.553  48.558  1.00  0.00    -0.065 N
HETATM    3  C6  UNL     1     -11.182  25.026  47.247  1.00  0.00     0.272 C
HETATM    4  C7  UNL     1     -12.978  24.837  48.739  1.00  0.00     0.272 C
BRANCH   2   5
HETATM    5  C5  UNL     1     -11.379  23.107  48.629  1.00  0.00     0.256 C
BRANCH   5   6
HETATM    6  C4  UNL     1      -9.949  22.725  48.463  1.00  0.00     0.152 C
BRANCH   6   7
HETATM    7  N2  UNL     1      -9.591  21.832  49.575  1.00  0.00    -0.342 N
HETATM    8  C3  UNL     1      -9.366  20.452  49.365  1.00  0.00     0.316 C
HETATM    9  N1  UNL     1      -9.025  19.628  50.457  1.00  0.00    -0.344 N
HETATM   10  O1  UNL     1      -9.472  19.979  48.214  1.00  0.00    -0.247 OA
ATOM     11  H1  UNL     1      -8.941  20.027  51.392  1.00  0.00     0.164 HD
ATOM     12  H2  UNL     1      -9.504  22.215  50.516  1.00  0.00     0.164 HD
BRANCH   9  13
HETATM   13  C2  UNL     1      -8.794  18.220  50.248  1.00  0.00     0.120 C
HETATM   14  C1  UNL     1      -8.752  17.546  51.607  1.00  0.00     0.026 C
ENDBRANCH   9  13
ENDBRANCH   6   7
ENDBRANCH   5   6
ENDBRANCH   2   5
ENDBRANCH   1   2
BRANCH   1  15
HETATM   15  C9  UNL     1     -11.388  25.427  50.844  1.00  0.00     0.243 C
HETATM   16  O2  UNL     1     -11.800  26.578  51.077  1.00  0.00    -0.272 OA
HETATM   17  N4  UNL     1     -11.560  24.424  51.822  1.00  0.00    -0.358 N
ATOM     18  H4  UNL     1     -11.211  23.494  51.589  1.00  0.00     0.162 HD
BRANCH  17  19
HETATM   19  C10 UNL     1     -12.173  24.575  53.104  1.00  0.00     0.150 C
BRANCH  19  20
HETATM   20  C11 UNL     1     -13.630  24.257  53.057  1.00  0.00     0.259 C
BRANCH  20  21
HETATM   21  N5  UNL     1     -14.465  25.347  53.514  1.00  0.00    -0.042 N
HETATM   22  C12 UNL     1     -13.575  26.339  54.116  1.00  0.00     0.276 C
HETATM   23  C13 UNL     1     -15.097  25.968  52.389  1.00  0.00     0.276 C
BRANCH  21  24
HETATM   24  C14 UNL     1     -15.428  24.971  54.494  1.00  0.00     0.220 C
HETATM   25  C15 UNL     1     -16.332  23.904  53.884  1.00  0.00     0.078 C
HETATM   26  C16 UNL     1     -16.325  26.099  54.939  1.00  0.00     0.078 C
BRANCH  24  27
HETATM   27  O3  UNL     1     -14.862  24.383  55.634  1.00  0.00    -0.365 OA
ATOM     28  H3  UNL     1     -15.046  23.454  55.710  1.00  0.00     0.212 HD
ENDBRANCH  24  27
ENDBRANCH  21  24
ENDBRANCH  20  21
ENDBRANCH  19  20
ENDBRANCH  17  19
ENDBRANCH   1  15
TORSDOF 11
ENDMDL