MODEL 5
REMARK VINA RESULT: -5.359888056      3.597      6.094
REMARK  12 active torsions:
REMARK  status: ('A' for Active; 'I' for Inactive)
REMARK    1  A    between atoms: N1_2  and  C2_3
REMARK    2  A    between atoms: N1_2  and  C5_8
REMARK    3  A    between atoms: N1_2  and  C11_19
REMARK    4  A    between atoms: C2_3  and  C3_4
REMARK    5  A    between atoms: C4_5  and  O1_6
REMARK    6  A    between atoms: C5_8  and  C6_9
REMARK    7  A    between atoms: C6_9  and  C7_10
REMARK    8  A    between atoms: C7_10  and  N2_11
REMARK    9  A    between atoms: C10_14  and  O2_15
REMARK   10  A    between atoms: C10_14  and  O3_17
REMARK   11  A    between atoms: C11_19  and  C12_20
REMARK   12  A    between atoms: C12_20  and  N3_21
ROOT
HETATM    1  C1  UNL     1     -10.915  25.871  52.360  1.00  0.00     0.272 C
HETATM    2  N1  UNL     1     -11.081  24.556  51.780  1.00  0.00    -0.066 N
ENDROOT
BRANCH   2   3
HETATM    3  C2  UNL     1      -9.897  23.803  52.157  1.00  0.00     0.266 C
BRANCH   3   4
HETATM    4  C3  UNL     1      -9.808  22.506  51.442  1.00  0.00     0.025 C
HETATM    5  C4  UNL     1      -8.895  21.644  51.805  1.00  0.00     0.129 C
BRANCH   5   6
HETATM    6  O1  UNL     1      -8.023  21.922  52.834  1.00  0.00    -0.373 OA
ATOM      7  H1  UNL     1      -7.983  21.370  53.606  1.00  0.00     0.216 HD
ENDBRANCH   5   6
ENDBRANCH   3   4
ENDBRANCH   2   3
BRANCH   2   8
HETATM    8  C5  UNL     1     -12.216  23.892  52.344  1.00  0.00     0.239 C
BRANCH   8   9
HETATM    9  C6  UNL     1     -12.917  24.693  53.413  1.00  0.00     0.056 C
BRANCH   9  10
HETATM   10  C7  UNL     1     -14.354  24.168  53.473  1.00  0.00     0.245 C
BRANCH  10  11
HETATM   11  N2  UNL     1     -15.271  25.151  53.971  1.00  0.00    -0.005 N
HETATM   12  C8  UNL     1     -14.751  26.057  54.981  1.00  0.00     0.280 C
HETATM   13  C9  UNL     1     -16.212  25.679  53.025  1.00  0.00     0.344 A
HETATM   14  C10 UNL     1     -16.659  24.726  54.070  1.00  0.00     0.362 A
BRANCH  14  15
HETATM   15  O2  UNL     1     -17.451  25.210  55.093  1.00  0.00    -0.342 OA
ATOM     16  H2  UNL     1     -18.268  25.649  54.887  1.00  0.00     0.215 HD
ENDBRANCH  14  15
BRANCH  14  17
HETATM   17  O3  UNL     1     -16.973  23.408  53.696  1.00  0.00    -0.342 OA
ATOM     18  H3  UNL     1     -17.258  23.254  52.803  1.00  0.00     0.215 HD
ENDBRANCH  14  17
ENDBRANCH  10  11
ENDBRANCH   9  10
ENDBRANCH   8   9
ENDBRANCH   2   8
BRANCH   2  19
HETATM   19  C11 UNL     1     -11.178  24.608  50.331  1.00  0.00     0.265 C
BRANCH  19  20
HETATM   20  C12 UNL     1     -12.606  24.488  49.863  1.00  0.00     0.264 C
BRANCH  20  21
HETATM   21  N3  UNL     1     -13.170  25.680  49.361  1.00  0.00    -0.069 N
HETATM   22  C13 UNL     1     -12.101  26.514  48.787  1.00  0.00     0.272 C
HETATM   23  C14 UNL     1     -14.021  25.332  48.212  1.00  0.00     0.237 C
HETATM   24  C15 UNL     1     -14.272  26.548  47.362  1.00  0.00     0.028 C
HETATM   25  C16 UNL     1     -14.991  27.562  48.227  1.00  0.00     0.003 C
HETATM   26  C17 UNL     1     -15.209  27.037  49.599  1.00  0.00     0.028 C
HETATM   27  C18 UNL     1     -13.951  26.473  50.239  1.00  0.00     0.237 C
ENDBRANCH  20  21
ENDBRANCH  19  20
ENDBRANCH   2  19
TORSDOF 12
ENDMDL