MODEL 5
REMARK VINA RESULT: -4.359302534      1.406      2.517
REMARK  1 active torsions:
REMARK  status: ('A' for Active; 'I' for Inactive)
REMARK    1  A    between atoms: C3_3  and  N1_4
ROOT
HETATM    1  C1  UNL     1       0.259  18.052  20.375  1.00  0.00     0.013 C
HETATM    2  C2  UNL     1       0.080  17.562  19.285  1.00  0.00    -0.089 C
HETATM    3  C3  UNL     1      -0.152  16.967  17.968  1.00  0.00     0.341 C
ENDROOT
BRANCH   3   4
HETATM    4  N1  UNL     1      -1.305  16.116  18.059  1.00  0.00     0.015 N
HETATM    5  C4  UNL     1      -2.460  16.907  18.451  1.00  0.00     0.286 C
HETATM    6  C5  UNL     1      -1.151  15.028  18.986  1.00  0.00     0.382 C
HETATM    7  N2  UNL     1      -1.403  13.800  18.258  1.00  0.00    -0.110 NA
HETATM    8  N3  UNL     1      -1.364  14.107  16.909  1.00  0.00    -0.267 N
HETATM    9  C6  UNL     1      -1.619  15.512  16.813  1.00  0.00     0.291 C
ATOM     10  H3  UNL     1      -1.190  13.462  16.139  1.00  0.00     0.185 HD
HETATM   11  N4  UNL     1      -2.059  16.189  15.804  1.00  0.00    -0.364 N
ATOM     12  H42 UNL     1      -2.241  17.190  15.735  1.00  0.00     0.159 HD
ATOM     13  H41 UNL     1      -2.285  15.755  14.908  1.00  0.00     0.159 HD
ENDBRANCH   3   4
TORSDOF 1
ENDMDL