MODEL 3
REMARK VINA RESULT: -4.160339810      1.284      2.333
REMARK  1 active torsions:
REMARK  status: ('A' for Active; 'I' for Inactive)
REMARK    1  A    between atoms: C2_2  and  N1_3
ROOT
HETATM    1  N1  UNL     1      -1.426  15.545  17.869  1.00  0.00     0.057 N
HETATM    2  C3  UNL     1      -1.698  16.132  19.166  1.00  0.00     0.272 C
HETATM    3  C4  UNL     1      -1.928  17.620  18.880  1.00  0.00     0.082 C
HETATM    4  C5  UNL     1      -1.768  17.622  17.371  1.00  0.00     0.309 C
HETATM    5  N2  UNL     1      -2.901  16.953  16.811  1.00  0.00    -0.029 N
ATOM      6  H21 UNL     1      -3.101  17.203  15.843  1.00  0.00     0.281 HD
ATOM      7  H22 UNL     1      -3.798  17.257  17.190  1.00  0.00     0.281 HD
HETATM    8  C6  UNL     1      -2.604  15.526  17.022  1.00  0.00     0.498 C
HETATM    9  N3  UNL     1      -0.709  16.605  17.247  1.00  0.00    -0.007 NA
ENDROOT
BRANCH   1  10
HETATM   10  C2  UNL     1      -0.716  14.354  17.905  1.00  0.00     0.217 C
HETATM   11  C1  UNL     1      -0.963  13.342  17.117  1.00  0.00     0.039 C
ENDBRANCH   1  10
TORSDOF 1
ENDMDL