MODEL 1
REMARK VINA RESULT: -4.822782449      0.000      0.000
REMARK  1 active torsions:
REMARK  status: ('A' for Active; 'I' for Inactive)
REMARK    1  A    between atoms: C3_3  and  N1_4
ROOT
HETATM    1  C1  UNL     1      -3.192  18.720  16.507  1.00  0.00     0.013 C
HETATM    2  C2  UNL     1      -2.992  17.763  17.230  1.00  0.00    -0.089 C
HETATM    3  C3  UNL     1      -2.779  16.624  18.086  1.00  0.00     0.332 C
ENDROOT
BRANCH   3   4
HETATM    4  N1  UNL     1      -1.563  15.911  17.799  1.00  0.00    -0.039 N
HETATM    5  C4  UNL     1      -0.465  16.883  17.681  1.00  0.00     0.276 C
HETATM    6  C5  UNL     1      -1.199  14.941  18.778  1.00  0.00     0.361 C
HETATM    7  N2  UNL     1      -1.590  13.681  18.213  1.00  0.00    -0.355 N
HETATM    8  C6  UNL     1      -1.451  13.804  16.804  1.00  0.00     0.098 C
ATOM      9  H2  UNL     1      -1.905  12.857  18.724  1.00  0.00     0.162 HD
HETATM   10  N3  UNL     1      -1.199  12.884  15.927  1.00  0.00    -0.388 N
HETATM   11  C7  UNL     1      -1.658  15.256  16.516  1.00  0.00     0.315 C
ATOM     12  H32 UNL     1      -1.058  11.893  16.123  1.00  0.00     0.157 HD
ATOM     13  H31 UNL     1      -1.099  12.973  14.916  1.00  0.00     0.157 HD
ENDBRANCH   3   4
TORSDOF 1
ENDMDL