MODEL 5
REMARK VINA RESULT: -4.082459095      2.191      2.785
REMARK  0 active torsions:
REMARK  status: ('A' for Active; 'I' for Inactive)
ROOT
HETATM    1  O1  UNL     1      -1.697  15.438  19.760  1.00  0.00    -0.234 OA
HETATM    2  S1  UNL     1      -0.960  15.592  18.458  1.00  0.00     0.136 S
HETATM    3  C1  UNL     1      -1.954  16.522  17.244  1.00  0.00     0.363 C
HETATM    4  N1  UNL     1      -1.862  15.762  16.023  1.00  0.00    -0.061 N
ATOM      5  H11 UNL     1      -0.902  15.687  15.687  1.00  0.00     0.278 HD
ATOM      6  H12 UNL     1      -2.257  16.264  15.227  1.00  0.00     0.278 HD
HETATM    7  C2  UNL     1      -2.469  14.485  16.209  1.00  0.00     0.253 C
HETATM    8  C3  UNL     1      -1.626  13.499  16.959  1.00  0.00     0.157 C
HETATM    9  N2  UNL     1      -0.557  14.078  17.707  1.00  0.00    -0.338 N
ATOM     10  H2  UNL     1       0.362  13.642  17.792  1.00  0.00     0.169 HD
ENDROOT
TORSDOF 0
ENDMDL