MODEL 3
REMARK VINA RESULT: -5.226927655      1.704      2.200
REMARK  2 active torsions:
REMARK  status: ('A' for Active; 'I' for Inactive)
REMARK    1  A    between atoms: C2_2  and  N1_4
REMARK       I    between atoms: N1_4  and  C4_6
REMARK       I    between atoms: C4_6  and  N2_8
REMARK    2  A    between atoms: N2_8  and  N3_10
ROOT
HETATM    1  N1  UNL     1      -0.890  14.982  18.282  1.00  0.00    -0.338 N
ATOM      2  H1  UNL     1      -0.516  14.449  19.067  1.00  0.00     0.164 HD
HETATM    3  C4  UNL     1      -1.059  14.343  17.016  1.00  0.00     0.336 C
HETATM    4  O1  UNL     1      -1.520  15.024  16.071  1.00  0.00    -0.246 OA
HETATM    5  N2  UNL     1      -0.721  12.977  16.815  1.00  0.00    -0.237 N
ATOM      6  H2  UNL     1      -0.347  12.418  17.580  1.00  0.00     0.193 HD
ENDROOT
BRANCH   1   7
HETATM    7  C2  UNL     1      -1.237  16.365  18.467  1.00  0.00     0.078 C
HETATM    8  C1  UNL     1      -0.048  17.285  18.228  1.00  0.00     0.032 C
HETATM    9  C3  UNL     1      -1.785  16.658  19.832  1.00  0.00     0.032 C
ENDBRANCH   1   7
BRANCH   5  10
HETATM   10  N3  UNL     1      -0.911  12.415  15.554  1.00  0.00    -0.245 N
HETATM   11  N4  UNL     1      -2.070  12.452  15.001  1.00  0.00    -0.331 N
ATOM     12  H42 UNL     1      -2.841  12.896  15.500  1.00  0.00     0.178 HD
ATOM     13  H41 UNL     1      -2.209  12.040  14.078  1.00  0.00     0.178 HD
ATOM     14  H3  UNL     1      -0.129  11.975  15.069  1.00  0.00     0.208 HD
ENDBRANCH   5  10
TORSDOF 2
ENDMDL