MODEL 4
REMARK VINA RESULT: -4.488853388      1.111      1.247
REMARK  1 active torsions:
REMARK  status: ('A' for Active; 'I' for Inactive)
REMARK    1  A    between atoms: C3_3  and  N1_4
ROOT
HETATM    1  C1  UNL     1      -2.466  19.527  18.328  1.00  0.00     0.013 C
HETATM    2  C2  UNL     1      -2.335  18.335  18.517  1.00  0.00    -0.087 C
HETATM    3  C3  UNL     1      -2.176  16.915  18.763  1.00  0.00     0.358 C
ENDROOT
BRANCH   3   4
HETATM    4  N1  UNL     1      -1.151  16.312  17.923  1.00  0.00     0.031 N
HETATM    5  C4  UNL     1       0.065  17.111  18.163  1.00  0.00     0.305 C
HETATM    6  C5  UNL     1      -0.839  14.976  18.251  1.00  0.00     0.269 C
HETATM    7  C6  UNL     1      -1.530  13.915  17.488  1.00  0.00     0.051 C
HETATM    8  C7  UNL     1      -1.807  14.268  16.045  1.00  0.00     0.142 C
HETATM    9  N2  UNL     1      -2.240  15.620  15.983  1.00  0.00    -0.316 N
HETATM   10  N3  UNL     1      -1.506  16.548  16.609  1.00  0.00    -0.162 N
ATOM     11  H2  UNL     1      -3.086  15.877  15.476  1.00  0.00     0.181 HD
ATOM     12  H3  UNL     1      -1.219  17.402  16.132  1.00  0.00     0.215 HD
ENDBRANCH   3   4
TORSDOF 1
ENDMDL