MODEL 4
REMARK VINA RESULT: -4.488803459      1.408      1.515
REMARK  2 active torsions:
REMARK  status: ('A' for Active; 'I' for Inactive)
REMARK    1  A    between atoms: C1_2  and  N1_3
REMARK    2  A    between atoms: N1_3  and  C2_5
ROOT
HETATM    1  C2  UNL     1      -1.007  16.007  17.719  1.00  0.00     0.095 C
HETATM    2  C3  UNL     1      -1.307  16.547  19.120  1.00  0.00     0.035 C
HETATM    3  C4  UNL     1      -0.115  17.239  19.715  1.00  0.00     0.239 C
HETATM    4  N2  UNL     1       0.859  17.605  18.721  1.00  0.00    -0.074 N
ATOM      5  H21 UNL     1       1.480  16.831  18.486  1.00  0.00     0.277 HD
ATOM      6  H22 UNL     1       1.561  18.247  19.087  1.00  0.00     0.277 HD
HETATM    7  C5  UNL     1       0.185  18.132  17.570  1.00  0.00     0.239 C
HETATM    8  C6  UNL     1      -1.110  17.449  17.259  1.00  0.00     0.035 C
HETATM    9  C7  UNL     1      -2.114  17.634  18.393  1.00  0.00     0.016 C
ENDROOT
BRANCH   1  10
HETATM   10  N1  UNL     1      -2.076  15.146  17.304  1.00  0.00    -0.363 N
ATOM     11  H1  UNL     1      -3.045  15.455  17.374  1.00  0.00     0.162 HD
BRANCH  10  12
HETATM   12  C1  UNL     1      -1.769  13.864  16.798  1.00  0.00     0.348 C
HETATM   13  O1  UNL     1      -1.772  12.823  17.502  1.00  0.00    -0.284 OA
ENDBRANCH  10  12
ENDBRANCH   1  10
TORSDOF 2
ENDMDL