MODEL 1
REMARK VINA RESULT: -4.678334021      0.000      0.000
REMARK  1 active torsions:
REMARK  status: ('A' for Active; 'I' for Inactive)
REMARK    1  A    between atoms: O1_1  and  C1_3
ROOT
HETATM    1  C1  UNL     1      -1.000  13.512  17.256  1.00  0.00     0.145 C
HETATM    2  C2  UNL     1      -1.777  14.349  16.232  1.00  0.00     0.061 C
HETATM    3  C3  UNL     1      -2.409  15.367  17.192  1.00  0.00     0.242 C
HETATM    4  N1  UNL     1      -1.286  15.742  17.998  1.00  0.00    -0.039 N
HETATM    5  C4  UNL     1      -0.694  16.929  17.411  1.00  0.00     0.267 C
HETATM    6  C5  UNL     1      -1.692  17.997  17.843  1.00  0.00     0.262 C
HETATM    7  N2  UNL     1      -2.442  17.416  18.947  1.00  0.00    -0.049 N
ATOM      8  H21 UNL     1      -3.421  17.225  18.736  1.00  0.00     0.279 HD
ATOM      9  H22 UNL     1      -2.621  18.059  19.719  1.00  0.00     0.279 HD
HETATM   10  C6  UNL     1      -1.671  16.247  19.311  1.00  0.00     0.467 C
HETATM   11  C7  UNL     1      -0.392  14.639  18.098  1.00  0.00     0.271 C
ENDROOT
BRANCH   1  12
HETATM   12  O1  UNL     1      -1.951  12.848  18.012  1.00  0.00    -0.394 OA
ATOM     13  H1  UNL     1      -1.491  12.146  18.458  1.00  0.00     0.210 HD
ENDBRANCH   1  12
TORSDOF 1
ENDMDL