MODEL 1
REMARK VINA RESULT: -4.278058319      0.000      0.000
REMARK  2 active torsions:
REMARK  status: ('A' for Active; 'I' for Inactive)
REMARK    1  A    between atoms: C2_2  and  N1_3
REMARK    2  A    between atoms: C5_9  and  O1_10
ROOT
HETATM    1  N1  UNL     1      -1.423  16.419  17.809  1.00  0.00    -0.043 N
HETATM    2  C3  UNL     1      -0.555  17.405  17.244  1.00  0.00     0.274 C
HETATM    3  C4  UNL     1      -0.900  16.065  19.139  1.00  0.00     0.470 C
HETATM    4  N2  UNL     1      -1.445  14.721  19.282  1.00  0.00    -0.023 N
ATOM      5  H21 UNL     1      -2.447  14.672  19.468  1.00  0.00     0.282 HD
ATOM      6  H22 UNL     1      -1.173  14.225  20.131  1.00  0.00     0.282 HD
HETATM    7  C5  UNL     1      -1.009  14.109  18.031  1.00  0.00     0.346 C
HETATM    8  C6  UNL     1      -1.320  15.204  17.039  1.00  0.00     0.299 C
ENDROOT
BRANCH   1   9
HETATM    9  C2  UNL     1      -2.776  16.819  17.975  1.00  0.00     0.234 C
HETATM   10  C1  UNL     1      -3.206  17.983  17.148  1.00  0.00     0.035 C
ENDBRANCH   1   9
BRANCH   7  11
HETATM   11  O1  UNL     1      -1.769  12.982  17.733  1.00  0.00    -0.368 OA
ATOM     12  H1  UNL     1      -1.355  12.459  17.056  1.00  0.00     0.212 HD
ENDBRANCH   7  11
TORSDOF 2
ENDMDL