MODEL 5
REMARK VINA RESULT: -4.898545514      1.152      1.152
REMARK  1 active torsions:
REMARK  status: ('A' for Active; 'I' for Inactive)
REMARK    1  A    between atoms: C1_4  and  N2_5
ROOT
HETATM    1  N2  UNL     1      -1.683  15.355  17.361  1.00  0.00    -0.296 N
HETATM    2  C2  UNL     1      -2.387  16.351  18.144  1.00  0.00     0.136 C
HETATM    3  C3  UNL     1      -1.485  17.291  18.868  1.00  0.00     0.040 C
HETATM    4  C4  UNL     1      -0.139  16.748  19.198  1.00  0.00     0.126 C
HETATM    5  N3  UNL     1      -0.052  15.311  19.161  1.00  0.00    -0.343 N
ATOM      6  H3  UNL     1       0.399  14.785  19.909  1.00  0.00     0.164 HD
HETATM    7  C5  UNL     1      -0.625  14.656  18.029  1.00  0.00     0.323 C
HETATM    8  O1  UNL     1      -0.234  13.537  17.635  1.00  0.00    -0.247 OA
ENDROOT
BRANCH   1   9
HETATM    9  C1  UNL     1      -1.983  15.053  16.014  1.00  0.00     0.180 C
HETATM   10  N1  UNL     1      -2.741  14.080  15.673  1.00  0.00    -0.395 N
ATOM     11  H12 UNL     1      -3.137  13.508  16.419  1.00  0.00     0.156 HD
ATOM     12  H11 UNL     1      -2.958  13.862  14.700  1.00  0.00     0.156 HD
ENDBRANCH   1   9
TORSDOF 1
ENDMDL