MODEL 2
REMARK VINA RESULT: -3.784941322      1.752      2.693
REMARK  3 active torsions:
REMARK  status: ('A' for Active; 'I' for Inactive)
REMARK    1  A    between atoms: N1_3  and  C4_5
REMARK    2  A    between atoms: C4_5  and  C5_6
REMARK    3  A    between atoms: C6_7  and  C7_8
ROOT
HETATM    1  C1  UNL     1      -1.469  17.700  21.117  1.00  0.00     0.030 C
HETATM    2  C2  UNL     1      -1.556  17.097  20.075  1.00  0.00    -0.028 C
HETATM    3  N1  UNL     1      -1.646  16.404  18.840  1.00  0.00    -0.237 NA
HETATM    4  C3  UNL     1      -0.487  16.754  18.005  1.00  0.00     0.127 C
ENDROOT
BRANCH   3   5
HETATM    5  C4  UNL     1      -1.541  15.005  19.124  1.00  0.00     0.198 C
BRANCH   5   6
HETATM    6  C5  UNL     1      -1.533  14.277  17.855  1.00  0.00    -0.091 C
HETATM    7  C6  UNL     1      -1.506  13.669  16.793  1.00  0.00    -0.106 C
BRANCH   7   8
HETATM    8  C7  UNL     1      -1.451  12.934  15.527  1.00  0.00     0.089 C
HETATM    9  C8  UNL     1      -2.153  13.727  14.473  1.00  0.00     0.018 C
ENDBRANCH   7   8
ENDBRANCH   5   6
ENDBRANCH   3   5
TORSDOF 3
ENDMDL