MODEL 4
REMARK VINA RESULT: -4.288195446      2.795      3.486
REMARK  6 active torsions:
REMARK  status: ('A' for Active; 'I' for Inactive)
REMARK    1  A    between atoms: C2_2  and  C3_3
REMARK    2  A    between atoms: C3_3  and  C4_4
REMARK    3  A    between atoms: C5_5  and  C6_6
REMARK    4  A    between atoms: C7_7  and  C8_8
REMARK    5  A    between atoms: C8_8  and  N1_9
REMARK    6  A    between atoms: N1_9  and  N2_10
ROOT
HETATM    1  C6  UNL     1      -0.993  15.969  17.761  1.00  0.00    -0.014 C
HETATM    2  C7  UNL     1      -1.619  15.239  17.019  1.00  0.00    -0.075 C
ENDROOT
BRANCH   1   3
HETATM    3  C5  UNL     1      -0.253  16.833  18.606  1.00  0.00    -0.015 C
HETATM    4  C4  UNL     1       0.391  17.580  19.315  1.00  0.00    -0.089 C
BRANCH   4   5
HETATM    5  C3  UNL     1       1.171  18.493  20.153  1.00  0.00     0.121 C
BRANCH   5   6
HETATM    6  C2  UNL     1       2.390  18.869  19.416  1.00  0.00    -0.025 C
HETATM    7  C1  UNL     1       2.280  19.490  18.249  1.00  0.00     0.008 C
ENDBRANCH   5   6
ENDBRANCH   4   5
ENDBRANCH   1   3
BRANCH   2   8
HETATM    8  C8  UNL     1      -2.361  14.366  16.106  1.00  0.00     0.229 C
BRANCH   8   9
HETATM    9  N1  UNL     1      -1.632  13.109  16.049  1.00  0.00    -0.136 NA
BRANCH   9  10
HETATM   10  N2  UNL     1      -2.039  12.421  14.906  1.00  0.00    -0.348 N
ATOM     11  H22 UNL     1      -2.207  12.846  13.994  1.00  0.00     0.172 HD
ATOM     12  H21 UNL     1      -2.136  11.434  15.146  1.00  0.00     0.172 HD
ENDBRANCH   9  10
ENDBRANCH   8   9
ENDBRANCH   2   8
TORSDOF 6
ENDMDL