MODEL 4
REMARK VINA RESULT: -3.755043811      1.474      2.315
REMARK  0 active torsions:
REMARK  status: ('A' for Active; 'I' for Inactive)
ROOT
HETATM    1  C1  UNL     1      -0.803  14.359  18.948  1.00  0.00     0.056 A
HETATM    2  C2  UNL     1      -0.688  15.039  17.598  1.00  0.00     0.241 A
HETATM    3  N1  UNL     1      -1.586  14.095  16.992  1.00  0.00    -0.042 N
HETATM    4  C3  UNL     1      -1.743  13.399  18.259  1.00  0.00     0.241 A
HETATM    5  C4  UNL     1      -0.934  13.334  15.955  1.00  0.00     0.267 C
HETATM    6  C5  UNL     1      -1.965  13.122  14.886  1.00  0.00     0.262 C
HETATM    7  N2  UNL     1      -2.956  14.128  15.113  1.00  0.00    -0.049 N
ATOM      8  H21 UNL     1      -3.902  13.795  14.926  1.00  0.00     0.279 HD
ATOM      9  H22 UNL     1      -2.927  14.870  14.413  1.00  0.00     0.279 HD
HETATM   10  C6  UNL     1      -2.804  14.628  16.447  1.00  0.00     0.467 C
ENDROOT
TORSDOF 0
ENDMDL