MODEL 5
REMARK VINA RESULT: -4.105777924      1.200      3.437
REMARK  1 active torsions:
REMARK  status: ('A' for Active; 'I' for Inactive)
REMARK    1  A    between atoms: C3_3  and  N1_4
ROOT
HETATM    1  C1  UNL     1       0.379  17.354  19.107  1.00  0.00     0.013 C
HETATM    2  C2  UNL     1      -0.591  16.665  19.047  1.00  0.00    -0.088 C
HETATM    3  C3  UNL     1      -1.789  15.796  18.957  1.00  0.00     0.352 C
ENDROOT
BRANCH   3   4
HETATM    4  N1  UNL     1      -1.732  15.065  17.774  1.00  0.00     0.023 N
HETATM    5  C4  UNL     1      -1.167  13.734  17.776  1.00  0.00     0.263 C
HETATM    6  C5  UNL     1      -1.264  13.447  16.264  1.00  0.00     0.054 C
HETATM    7  C6  UNL     1      -1.982  14.718  15.882  1.00  0.00     0.136 C
HETATM    8  C7  UNL     1      -2.955  14.905  16.992  1.00  0.00     0.284 C
HETATM    9  N2  UNL     1      -1.207  15.704  16.618  1.00  0.00    -0.039 NA
ENDBRANCH   3   4
TORSDOF 1
ENDMDL