MODEL 5
REMARK VINA RESULT: -3.603684404      2.797      5.035
REMARK  3 active torsions:
REMARK  status: ('A' for Active; 'I' for Inactive)
REMARK    1  A    between atoms: N1_2  and  C2_4
REMARK    2  A    between atoms: C2_4  and  C3_5
REMARK    3  A    between atoms: C4_6  and  C5_7
ROOT
HETATM    1  C3  UNL     1      -1.606  16.068  19.202  1.00  0.00    -0.087 C
HETATM    2  C4  UNL     1      -1.728  15.137  18.418  1.00  0.00    -0.101 C
ENDROOT
BRANCH   1   3
HETATM    3  C2  UNL     1      -1.427  17.185  20.138  1.00  0.00     0.208 C
BRANCH   3   4
HETATM    4  N1  UNL     1      -1.621  16.698  21.462  1.00  0.00    -0.416 N
HETATM    5  C1  UNL     1      -2.001  17.690  22.437  1.00  0.00     0.140 C
ATOM      6  H1  UNL     1      -1.500  15.714  21.704  1.00  0.00     0.153 HD
ENDBRANCH   3   4
ENDBRANCH   1   3
BRANCH   2   7
HETATM    7  C5  UNL     1      -1.848  14.011  17.490  1.00  0.00     0.057 C
HETATM    8  C6  UNL     1      -2.401  14.493  16.165  1.00  0.00     0.023 C
HETATM    9  C7  UNL     1      -0.515  13.346  17.370  1.00  0.00     0.023 C
ENDBRANCH   2   7
TORSDOF 3
ENDMDL