MODEL 2
REMARK VINA RESULT: -3.856427629      0.734      1.963
REMARK  1 active torsions:
REMARK  status: ('A' for Active; 'I' for Inactive)
REMARK    1  A    between atoms: C5_6  and  C6_7
ROOT
HETATM    1  C1  UNL     1      -0.218  14.154  18.637  1.00  0.00     0.272 C
HETATM    2  N1  UNL     1      -0.964  15.395  18.390  1.00  0.00    -0.066 N
HETATM    3  C2  UNL     1      -1.900  15.677  19.411  1.00  0.00     0.272 C
HETATM    4  C3  UNL     1      -0.075  16.550  18.186  1.00  0.00     0.239 C
HETATM    5  C4  UNL     1      -1.041  16.996  17.091  1.00  0.00     0.067 C
HETATM    6  C5  UNL     1      -1.349  15.510  17.033  1.00  0.00     0.228 C
ENDROOT
BRANCH   6   7
HETATM    7  C6  UNL     1      -2.710  15.158  16.649  1.00  0.00     0.086 C
HETATM    8  N2  UNL     1      -2.886  14.287  15.719  1.00  0.00    -0.409 N
ATOM      9  H22 UNL     1      -2.077  13.859  15.269  1.00  0.00     0.155 HD
ATOM     10  H21 UNL     1      -3.839  14.040  15.451  1.00  0.00     0.155 HD
ENDBRANCH   6   7
TORSDOF 1
ENDMDL