MODEL 5
REMARK VINA RESULT: -4.178768296      3.276      5.199
REMARK  4 active torsions:
REMARK  status: ('A' for Active; 'I' for Inactive)
REMARK    1  A    between atoms: N1_2  and  O1_3
REMARK    2  A    between atoms: N1_2  and  C2_5
REMARK    3  A    between atoms: C2_5  and  C3_6
REMARK    4  A    between atoms: C4_7  and  C5_8
ROOT
HETATM    1  C2  UNL     1      -1.489  13.656  17.088  1.00  0.00     0.213 C
ENDROOT
BRANCH   1   2
HETATM    2  N1  UNL     1      -1.884  14.121  15.792  1.00  0.00    -0.193 NA
HETATM    3  C1  UNL     1      -1.690  13.048  14.810  1.00  0.00     0.144 C
BRANCH   2   4
HETATM    4  O1  UNL     1      -3.211  14.402  15.774  1.00  0.00    -0.313 OA
ATOM      5  H1  UNL     1      -3.350  14.938  15.001  1.00  0.00     0.237 HD
ENDBRANCH   2   4
ENDBRANCH   1   2
BRANCH   1   6
HETATM    6  C3  UNL     1      -1.002  14.800  17.864  1.00  0.00    -0.089 C
HETATM    7  C4  UNL     1      -0.606  15.767  18.498  1.00  0.00    -0.100 C
BRANCH   7   8
HETATM    8  C5  UNL     1      -0.141  16.941  19.243  1.00  0.00     0.065 A
HETATM    9  C6  UNL     1      -0.720  18.230  18.850  1.00  0.00     0.018 A
HETATM   10  C7  UNL     1      -1.211  17.553  20.115  1.00  0.00     0.018 A
ENDBRANCH   7   8
ENDBRANCH   1   6
TORSDOF 4
ENDMDL