MODEL 2
REMARK VINA RESULT: -3.734862882      2.552      3.710
REMARK  2 active torsions:
REMARK  status: ('A' for Active; 'I' for Inactive)
REMARK    1  A    between atoms: C5_6  and  N2_7
REMARK    2  A    between atoms: N2_7  and  C6_9
ROOT
HETATM    1  C1  UNL     1      -2.911  15.078  16.827  1.00  0.00     0.274 C
HETATM    2  N1  UNL     1      -1.731  14.244  16.986  1.00  0.00    -0.054 N
HETATM    3  C2  UNL     1      -1.423  13.584  15.753  1.00  0.00     0.274 C
HETATM    4  C3  UNL     1      -1.729  13.387  18.130  1.00  0.00     0.242 C
HETATM    5  C4  UNL     1      -0.283  13.773  18.368  1.00  0.00     0.083 C
HETATM    6  C5  UNL     1      -0.658  14.999  17.578  1.00  0.00     0.291 C
ENDROOT
BRANCH   6   7
HETATM    7  N2  UNL     1      -1.112  16.041  18.488  1.00  0.00    -0.340 N
ATOM      8  H2  UNL     1      -2.083  16.034  18.801  1.00  0.00     0.163 HD
BRANCH   7   9
HETATM    9  C6  UNL     1      -0.250  17.066  18.952  1.00  0.00     0.350 C
HETATM   10  O1  UNL     1       0.398  16.863  20.020  1.00  0.00    -0.284 OA
ENDBRANCH   7   9
ENDBRANCH   6   7
TORSDOF 2
ENDMDL