MODEL 3
REMARK VINA RESULT: -3.636576777      1.148      2.035
REMARK  1 active torsions:
REMARK  status: ('A' for Active; 'I' for Inactive)
REMARK    1  A    between atoms: N1_2  and  C2_3
ROOT
HETATM    1  C1  UNL     1      -0.752  16.803  17.400  1.00  0.00     0.275 C
HETATM    2  N1  UNL     1      -1.343  15.467  17.377  1.00  0.00    -0.040 N
HETATM    3  C4  UNL     1      -0.426  14.437  17.849  1.00  0.00     0.241 A
HETATM    4  C5  UNL     1      -1.324  14.211  19.047  1.00  0.00     0.056 A
HETATM    5  C6  UNL     1      -2.219  15.267  18.472  1.00  0.00     0.241 A
ENDROOT
BRANCH   2   6
HETATM    6  C2  UNL     1      -1.815  15.122  16.064  1.00  0.00     0.412 A
HETATM    7  C3  UNL     1      -1.890  13.784  15.536  1.00  0.00     0.297 A
HETATM    8  N2  UNL     1      -3.100  14.445  15.958  1.00  0.00    -0.040 N
ATOM      9  H22 UNL     1      -3.857  14.225  16.604  1.00  0.00     0.279 HD
ATOM     10  H21 UNL     1      -3.998  14.659  15.524  1.00  0.00     0.279 HD
ENDBRANCH   2   6
TORSDOF 1
ENDMDL