MODEL 4
REMARK VINA RESULT: -9.428392787      3.912      8.641
REMARK  15 active torsions:
REMARK  status: ('A' for Active; 'I' for Inactive)
REMARK    1  A    between atoms: C2_2  and  N1_3
REMARK    2  A    between atoms: C2_2  and  C3_7
REMARK    3  A    between atoms: C3_7  and  N2_8
REMARK    4  A    between atoms: N2_8  and  C4_9
REMARK    5  A    between atoms: N2_8  and  C12_35
REMARK    6  A    between atoms: C5_12  and  N4_13
REMARK    7  A    between atoms: N7_19  and  C6_20
REMARK    8  A    between atoms: N8_22  and  C8_23
REMARK    9  A    between atoms: C8_23  and  O1_24
REMARK   10  A    between atoms: C12_35  and  O4_36
REMARK   11  A    between atoms: C12_35  and  C13_38
REMARK   12  A    between atoms: C13_38  and  N11_39
REMARK   13  A    between atoms: C14_44  and  C15_45
REMARK   14  A    between atoms: C18_48  and  O5_49
REMARK   15  A    between atoms: C21_53  and  O6_54
ROOT
HETATM    1  N2  UNL     1      10.028 -22.509  -5.197  1.00  0.00    -0.165 N
ENDROOT
BRANCH   1   2
HETATM    2  C3  UNL     1      11.203 -23.240  -4.964  1.00  0.00     0.117 C
BRANCH   2   3
HETATM    3  C2  UNL     1      12.503 -22.704  -5.466  1.00  0.00     0.218 C
HETATM    4  C1  UNL     1      13.183 -21.738  -4.522  1.00  0.00     0.045 C
BRANCH   3   5
HETATM    5  N1  UNL     1      12.220 -22.007  -6.711  1.00  0.00    -0.071 N
ATOM      6  H13 UNL     1      11.677 -21.155  -6.568  1.00  0.00     0.275 HD
ATOM      7  H12 UNL     1      13.051 -21.576  -7.117  1.00  0.00     0.275 HD
ATOM      8  H11 UNL     1      11.764 -22.660  -7.349  1.00  0.00     0.275 HD
ENDBRANCH   3   5
ENDBRANCH   2   3
ENDBRANCH   1   2
BRANCH   1   9
HETATM    9  C4  UNL     1       9.650 -21.376  -4.426  1.00  0.00     0.715 A
HETATM   10  N3  UNL     1      10.030 -20.119  -4.595  1.00  0.00    -0.019 N
HETATM   11  C5  UNL     1       9.602 -19.087  -3.871  1.00  0.00     0.728 A
ATOM     12  H3  UNL     1      10.703 -19.928  -5.337  1.00  0.00     0.203 HD
HETATM   13  N5  UNL     1       8.704 -19.296  -2.874  1.00  0.00     0.108 N
HETATM   14  N6  UNL     1       7.908 -18.939  -1.879  1.00  0.00    -0.184 N
HETATM   15  C11 UNL     1       8.288 -20.559  -2.664  1.00  0.00     0.757 A
HETATM   16  N7  UNL     1       7.477 -20.152  -1.642  1.00  0.00    -0.061 N
ATOM     17  H6  UNL     1       7.703 -18.037  -1.449  1.00  0.00     0.211 HD
HETATM   18  N10 UNL     1       8.739 -21.569  -3.408  1.00  0.00    -0.017 N
ATOM     19  H10 UNL     1       8.400 -22.513  -3.218  1.00  0.00     0.203 HD
BRANCH  11  20
HETATM   20  N4  UNL     1      10.027 -17.898  -4.103  1.00  0.00    -0.232 N
ATOM     21  H42 UNL     1      11.028 -17.705  -4.074  1.00  0.00     0.174 HD
ATOM     22  H41 UNL     1       9.376 -17.142  -4.317  1.00  0.00     0.174 HD
ENDBRANCH  11  20
BRANCH  16  23
HETATM   23  C6  UNL     1       6.578 -20.844  -0.768  1.00  0.00     0.160 A
HETATM   24  C7  UNL     1       6.782 -22.181  -0.537  1.00  0.00     0.136 A
HETATM   25  N8  UNL     1       5.946 -22.811   0.306  1.00  0.00    -0.286 N
HETATM   26  C9  UNL     1       4.935 -22.163   0.911  1.00  0.00     0.331 A
HETATM   27  O2  UNL     1       4.150 -22.762   1.706  1.00  0.00    -0.246 OA
HETATM   28  N9  UNL     1       4.735 -20.851   0.684  1.00  0.00    -0.273 N
HETATM   29  C10 UNL     1       5.543 -20.200  -0.143  1.00  0.00     0.280 A
ATOM     30  H9  UNL     1       3.968 -20.361   1.144  1.00  0.00     0.173 HD
HETATM   31  O3  UNL     1       5.370 -18.955  -0.373  1.00  0.00    -0.265 OA
BRANCH  25  32
HETATM   32  C8  UNL     1       6.146 -24.245   0.578  1.00  0.00     0.299 C
BRANCH  32  33
HETATM   33  O1  UNL     1       5.205 -24.984  -0.132  1.00  0.00    -0.382 OA
ATOM     34  H1  UNL     1       5.494 -25.888  -0.191  1.00  0.00     0.211 HD
ENDBRANCH  32  33
ENDBRANCH  25  32
ENDBRANCH  16  23
ENDBRANCH   1   9
BRANCH   1  35
HETATM   35  C12 UNL     1       9.025 -22.881  -6.203  1.00  0.00     0.262 C
BRANCH  35  36
HETATM   36  O4  UNL     1       9.499 -22.775  -7.494  1.00  0.00    -0.374 OA
ATOM     37  H4  UNL     1       8.840 -22.982  -8.146  1.00  0.00     0.212 HD
ENDBRANCH  35  36
BRANCH  35  38
HETATM   38  C13 UNL     1       8.618 -24.322  -5.949  1.00  0.00     0.207 C
BRANCH  38  39
HETATM   39  N11 UNL     1       7.563 -24.321  -4.926  1.00  0.00    -0.251 N
HETATM   40  N12 UNL     1       7.665 -24.803  -3.704  1.00  0.00    -0.238 N
HETATM   41  N13 UNL     1       6.552 -24.674  -3.040  1.00  0.00    -0.281 N
ATOM     42  H12 UNL     1       8.512 -25.225  -3.324  1.00  0.00     0.208 HD
HETATM   43  C14 UNL     1       5.657 -24.072  -3.865  1.00  0.00     0.112 A
ATOM     44  H13 UNL     1       6.383 -24.970  -2.079  1.00  0.00     0.188 HD
HETATM   45  C21 UNL     1       6.314 -23.859  -5.042  1.00  0.00     0.188 A
BRANCH  43  46
HETATM   46  C15 UNL     1       4.259 -23.753  -3.553  1.00  0.00    -0.004 A
HETATM   47  C16 UNL     1       3.209 -24.426  -4.135  1.00  0.00     0.016 A
HETATM   48  C17 UNL     1       1.899 -24.063  -3.816  1.00  0.00     0.037 A
HETATM   49  C18 UNL     1       1.632 -23.056  -2.939  1.00  0.00     0.065 A
HETATM   50  C19 UNL     1       2.678 -22.382  -2.353  1.00  0.00     0.037 A
HETATM   51  C20 UNL     1       3.969 -22.741  -2.670  1.00  0.00     0.016 A
BRANCH  49  52
HETATM   52  O5  UNL     1       0.315 -22.722  -2.645  1.00  0.00    -0.361 OA
ATOM     53  H5  UNL     1      -0.230 -22.311  -3.307  1.00  0.00     0.217 HD
ENDBRANCH  49  52
ENDBRANCH  43  46
BRANCH  45  54
HETATM   54  O6  UNL     1       5.769 -23.260  -6.169  1.00  0.00    -0.343 OA
ATOM     55  H6  UNL     1       5.576 -23.694  -6.991  1.00  0.00     0.219 HD
ENDBRANCH  45  54
ENDBRANCH  38  39
ENDBRANCH  35  38
ENDBRANCH   1  35
TORSDOF 15
ENDMDL