MODEL 3
REMARK VINA RESULT: -7.957429564      4.088      9.100
REMARK  16 active torsions:
REMARK  status: ('A' for Active; 'I' for Inactive)
REMARK    1  A    between atoms: S1_2  and  C2_3
REMARK    2  A    between atoms: C4_7  and  N1_8
REMARK    3  A    between atoms: N1_8  and  C5_10
REMARK    4  A    between atoms: C5_10  and  O3_11
REMARK    5  A    between atoms: C5_10  and  C6_13
REMARK    6  A    between atoms: N2_15  and  C8_16
REMARK    7  A    between atoms: C8_16  and  C9_17
REMARK    8  A    between atoms: C9_17  and  O4_18
REMARK    9  A    between atoms: C9_17  and  C10_20
REMARK   10  A    between atoms: C10_20  and  O5_21
REMARK   11  A    between atoms: C10_20  and  C11_23
REMARK       I    between atoms: N5_31  and  C14_33
REMARK   12  A    between atoms: C14_33  and  C15_35
REMARK   13  A    between atoms: C15_35  and  N6_36
REMARK   14  A    between atoms: C15_35  and  C16_40
REMARK   15  A    between atoms: C19_44  and  O9_45
REMARK   16  A    between atoms: N7_48  and  O10_49
ROOT
HETATM    1  C2  UNL     1       7.259 -25.892  -5.850  1.00  0.00     0.241 C
HETATM    2  O1  UNL     1       5.948 -25.380  -5.756  1.00  0.00    -0.297 OA
HETATM    3  C3  UNL     1       6.019 -23.988  -5.996  1.00  0.00     0.289 C
HETATM    4  O2  UNL     1       5.113 -23.378  -6.605  1.00  0.00    -0.262 OA
HETATM    5  C4  UNL     1       7.299 -23.554  -5.394  1.00  0.00     0.233 C
HETATM    6  C13 UNL     1       8.086 -24.807  -5.259  1.00  0.00     0.061 C
HETATM    7  N5  UNL     1       9.235 -25.045  -4.772  1.00  0.00    -0.327 N
ATOM      8  H5  UNL     1       9.516 -26.024  -4.829  1.00  0.00     0.168 HD
HETATM    9  C14 UNL     1      10.177 -24.225  -4.178  1.00  0.00     0.258 C
HETATM   10  O7  UNL     1      10.318 -24.339  -2.906  1.00  0.00    -0.270 OA
ENDROOT
BRANCH   5  11
HETATM   11  N1  UNL     1       7.179 -22.842  -4.160  1.00  0.00    -0.350 N
ATOM     12  H1  UNL     1       7.476 -21.872  -4.060  1.00  0.00     0.163 HD
BRANCH  11  13
HETATM   13  C5  UNL     1       6.618 -23.577  -3.082  1.00  0.00     0.167 C
BRANCH  13  14
HETATM   14  O3  UNL     1       7.494 -24.041  -2.128  1.00  0.00    -0.345 OA
ATOM     15  H3  UNL     1       7.358 -23.734  -1.239  1.00  0.00     0.219 HD
ENDBRANCH  13  14
BRANCH  13  16
HETATM   16  C6  UNL     1       5.379 -22.983  -2.531  1.00  0.00     0.117 A
HETATM   17  C7  UNL     1       4.057 -23.145  -2.869  1.00  0.00     0.147 A
HETATM   18  N2  UNL     1       3.272 -22.377  -2.090  1.00  0.00    -0.284 N
HETATM   19  N3  UNL     1       4.081 -21.738  -1.273  1.00  0.00    -0.240 N
HETATM   20  N4  UNL     1       5.332 -22.068  -1.500  1.00  0.00    -0.281 N
ATOM     21  H3  UNL     1       3.777 -21.077  -0.558  1.00  0.00     0.208 HD
ATOM     22  H4  UNL     1       6.140 -21.705  -0.994  1.00  0.00     0.188 HD
BRANCH  18  23
HETATM   23  C8  UNL     1       1.809 -22.271  -2.142  1.00  0.00     0.184 C
BRANCH  23  24
HETATM   24  C9  UNL     1       1.381 -22.185  -3.595  1.00  0.00     0.174 C
BRANCH  24  25
HETATM   25  O4  UNL     1       0.236 -22.937  -3.807  1.00  0.00    -0.391 OA
ATOM     26  H4  UNL     1       0.461 -23.790  -4.160  1.00  0.00     0.210 HD
ENDBRANCH  24  25
BRANCH  24  27
HETATM   27  C10 UNL     1       1.082 -20.721  -3.867  1.00  0.00     0.217 C
BRANCH  27  28
HETATM   28  O5  UNL     1       0.296 -20.251  -2.845  1.00  0.00    -0.385 OA
ATOM     29  H5  UNL     1      -0.403 -19.732  -3.227  1.00  0.00     0.210 HD
ENDBRANCH  27  28
BRANCH  27  30
HETATM   30  C11 UNL     1       0.400 -20.530  -5.167  1.00  0.00     0.154 C
HETATM   31  C12 UNL     1      -0.449 -19.331  -5.386  1.00  0.00     0.093 C
HETATM   32  O6  UNL     1       0.556 -21.370  -6.031  1.00  0.00    -0.295 OA
ENDBRANCH  27  30
ENDBRANCH  24  27
ENDBRANCH  23  24
ENDBRANCH  18  23
ENDBRANCH  13  16
ENDBRANCH  11  13
ENDBRANCH   5  11
BRANCH   1  33
HETATM   33  S1  UNL     1       7.401 -27.443  -4.931  1.00  0.00    -0.135 SA
HETATM   34  C1  UNL     1       6.367 -27.304  -3.440  1.00  0.00     0.093 C
ENDBRANCH   1  33
BRANCH   9  35
HETATM   35  C15 UNL     1      11.038 -23.240  -4.823  1.00  0.00     0.327 C
BRANCH  35  36
HETATM   36  N6  UNL     1      12.431 -23.334  -4.532  1.00  0.00    -0.061 N
ATOM     37  H63 UNL     1      12.617 -24.191  -4.011  1.00  0.00     0.275 HD
ATOM     38  H62 UNL     1      12.951 -23.521  -5.389  1.00  0.00     0.275 HD
ATOM     39  H61 UNL     1      12.844 -22.538  -4.045  1.00  0.00     0.275 HD
ENDBRANCH  35  36
BRANCH  35  40
HETATM   40  C16 UNL     1      10.624 -21.827  -4.639  1.00  0.00     0.083 A
HETATM   41  C17 UNL     1       9.738 -21.371  -3.720  1.00  0.00     0.088 A
HETATM   42  C18 UNL     1       9.437 -20.030  -3.668  1.00  0.00     0.208 A
HETATM   43  O8  UNL     1       8.615 -19.565  -2.824  1.00  0.00    -0.285 OA
HETATM   44  C19 UNL     1      10.008 -19.113  -4.525  1.00  0.00     0.134 A
HETATM   45  C20 UNL     1      10.905 -19.614  -5.445  1.00  0.00     0.163 A
HETATM   46  N7  UNL     1      11.188 -20.932  -5.483  1.00  0.00    -0.235 N
BRANCH  44  47
HETATM   47  O9  UNL     1       9.718 -17.752  -4.490  1.00  0.00    -0.356 OA
ATOM     48  H9  UNL     1      10.297 -17.106  -4.103  1.00  0.00     0.218 HD
ENDBRANCH  44  47
BRANCH  46  49
HETATM   49  O10 UNL     1      12.103 -21.300  -6.460  1.00  0.00    -0.283 OA
ATOM     50  H10 UNL     1      11.968 -22.044  -7.035  1.00  0.00     0.245 HD
ENDBRANCH  46  49
ENDBRANCH  35  40
ENDBRANCH   9  35
TORSDOF 16
ENDMDL