MODEL 4
REMARK VINA RESULT: -7.635901737      3.778      8.564
REMARK  14 active torsions:
REMARK  status: ('A' for Active; 'I' for Inactive)
REMARK    1  A    between atoms: C4_8  and  N4_9
REMARK    2  A    between atoms: C7_24  and  N10_25
REMARK    3  A    between atoms: N10_25  and  C8_26
REMARK    4  A    between atoms: C10_28  and  N11_29
REMARK    5  A    between atoms: C11_33  and  O1_34
REMARK    6  A    between atoms: O1_34  and  S1_35
REMARK    7  A    between atoms: S1_35  and  O3_37
REMARK    8  A    between atoms: S1_35  and  C15_45
REMARK    9  A    between atoms: O3_37  and  C12_38
REMARK   10  A    between atoms: C12_38  and  C13_39
REMARK   11  A    between atoms: C13_39  and  O4_40
REMARK   12  A    between atoms: C13_39  and  C14_42
REMARK   13  A    between atoms: C14_42  and  O5_43
REMARK   14  A    between atoms: C18_50  and  O6_51
ROOT
HETATM    1  N1  UNL     1       6.142 -23.555   0.308  1.00  0.00    -0.191 NA
HETATM    2  C1  UNL     1       5.514 -23.277  -0.596  1.00  0.00     0.106 C
HETATM    3  C2  UNL     1       4.710 -22.947  -1.709  1.00  0.00     0.128 C
HETATM    4  C3  UNL     1       3.665 -22.041  -1.462  1.00  0.00     0.156 C
HETATM    5  N2  UNL     1       3.668 -21.346  -0.233  1.00  0.00    -0.080 NA
HETATM    6  N3  UNL     1       2.630 -21.739  -2.268  1.00  0.00    -0.177 N
ATOM      7  H3  UNL     1       1.923 -21.127  -1.862  1.00  0.00     0.185 HD
HETATM    8  C4  UNL     1       2.400 -22.125  -3.510  1.00  0.00     0.677 C
HETATM    9  N5  UNL     1       3.021 -23.063  -4.242  1.00  0.00    -0.185 N
ATOM     10  H5  UNL     1       2.665 -23.209  -5.186  1.00  0.00     0.184 HD
HETATM   11  C5  UNL     1       4.073 -23.842  -3.865  1.00  0.00     0.137 C
HETATM   12  C6  UNL     1       4.173 -25.092  -4.533  1.00  0.00     0.168 A
HETATM   13  N6  UNL     1       5.089 -26.047  -4.361  1.00  0.00    -0.267 N
ATOM     14  H6  UNL     1       5.870 -26.024  -3.705  1.00  0.00     0.190 HD
HETATM   15  N7  UNL     1       4.798 -27.026  -5.196  1.00  0.00    -0.227 N
ATOM     16  H7  UNL     1       5.328 -27.893  -5.287  1.00  0.00     0.210 HD
HETATM   17  N8  UNL     1       3.726 -26.722  -5.892  1.00  0.00    -0.227 N
ATOM     18  H8  UNL     1       3.280 -27.296  -6.607  1.00  0.00     0.210 HD
HETATM   19  N9  UNL     1       3.341 -25.533  -5.485  1.00  0.00    -0.267 N
ATOM     20  H9  UNL     1       2.531 -25.023  -5.840  1.00  0.00     0.190 HD
HETATM   21  C7  UNL     1       5.057 -23.569  -2.927  1.00  0.00     0.155 C
ENDROOT
BRANCH  21  22
HETATM   22  N10 UNL     1       6.188 -23.822  -3.140  1.00  0.00    -0.438 NA
BRANCH  22  23
HETATM   23  C8  UNL     1       7.480 -24.111  -3.381  1.00  0.00     0.168 C
HETATM   24  C9  UNL     1       7.952 -25.267  -2.476  1.00  0.00     0.075 C
HETATM   25  C10 UNL     1       9.440 -25.255  -2.485  1.00  0.00     0.216 C
HETATM   26  C11 UNL     1       9.750 -23.799  -2.492  1.00  0.00     0.175 C
HETATM   27  C19 UNL     1       8.535 -23.086  -2.996  1.00  0.00     0.074 C
BRANCH  25  28
HETATM   28  N11 UNL     1       9.889 -25.958  -3.674  1.00  0.00    -0.072 N
ATOM     29 3H11 UNL     1      10.122 -26.934  -3.491  1.00  0.00     0.274 HD
ATOM     30 2H11 UNL     1       9.136 -26.122  -4.344  1.00  0.00     0.274 HD
ATOM     31 1H11 UNL     1      10.667 -25.435  -4.077  1.00  0.00     0.274 HD
ENDBRANCH  25  28
BRANCH  26  32
HETATM   32  O1  UNL     1      10.850 -23.441  -3.187  1.00  0.00    -0.274 OA
BRANCH  32  33
HETATM   33  S1  UNL     1      10.454 -22.851  -4.843  1.00  0.00     0.231 S
HETATM   34  O2  UNL     1      12.109 -24.314  -5.033  1.00  0.00    -0.207 OA
BRANCH  33  35
HETATM   35  O3  UNL     1       9.871 -24.211  -6.036  1.00  0.00    -0.279 OA
BRANCH  35  36
HETATM   36  C12 UNL     1       9.149 -23.649  -7.050  1.00  0.00     0.223 C
BRANCH  36  37
HETATM   37  C13 UNL     1       7.954 -24.547  -7.297  1.00  0.00     0.166 C
BRANCH  37  38
HETATM   38  O4  UNL     1       7.478 -24.437  -8.610  1.00  0.00    -0.391 OA
ATOM     39  H4  UNL     1       7.367 -25.286  -9.021  1.00  0.00     0.210 HD
ENDBRANCH  37  38
BRANCH  37  40
HETATM   40  C14 UNL     1       8.288 -25.997  -7.061  1.00  0.00     0.198 C
BRANCH  40  41
HETATM   41  O5  UNL     1       7.734 -26.451  -5.866  1.00  0.00    -0.398 OA
ATOM     42  H5  UNL     1       7.329 -27.303  -5.978  1.00  0.00     0.209 HD
ENDBRANCH  40  41
ENDBRANCH  37  40
ENDBRANCH  36  37
ENDBRANCH  35  36
ENDBRANCH  33  35
BRANCH  33  43
HETATM   43  C15 UNL     1      11.878 -21.783  -5.775  1.00  0.00     0.158 A
HETATM   44  C16 UNL     1      11.961 -20.432  -5.675  1.00  0.00     0.131 A
HETATM   45  N12 UNL     1      12.923 -19.790  -6.373  1.00  0.00    -0.369 N
HETATM   46  C17 UNL     1      13.772 -20.490  -7.143  1.00  0.00     0.143 A
ATOM     47  H12 UNL     1      13.005 -18.775  -6.314  1.00  0.00     0.164 HD
HETATM   48  C18 UNL     1      13.689 -21.858  -7.243  1.00  0.00     0.156 A
HETATM   49  N13 UNL     1      12.728 -22.458  -6.541  1.00  0.00    -0.325 N
ATOM     50  H13 UNL     1      12.642 -23.473  -6.593  1.00  0.00     0.169 HD
BRANCH  48  51
HETATM   51  O6  UNL     1      14.554 -22.565  -8.027  1.00  0.00    -0.345 OA
ATOM     52  H6  UNL     1      15.452 -22.720  -7.757  1.00  0.00     0.219 HD
ENDBRANCH  48  51
ENDBRANCH  33  43
ENDBRANCH  32  33
ENDBRANCH  26  32
ENDBRANCH  22  23
ENDBRANCH  21  22
BRANCH   8  53
HETATM   53  N4  UNL     1       1.417 -21.492  -4.105  1.00  0.00    -0.234 N
ATOM     54  H42 UNL     1       1.691 -20.789  -4.791  1.00  0.00     0.174 HD
ATOM     55  H41 UNL     1       0.485 -21.781  -3.809  1.00  0.00     0.174 HD
ENDBRANCH   8  53
TORSDOF 14
ENDMDL