MODEL 4
REMARK VINA RESULT: -8.167322007      0.963      1.196
REMARK  13 active torsions:
REMARK  status: ('A' for Active; 'I' for Inactive)
REMARK    1  A    between atoms: O1_2  and  C2_3
REMARK    2  A    between atoms: C2_3  and  C3_5
REMARK    3  A    between atoms: C3_5  and  O3_6
REMARK    4  A    between atoms: C3_5  and  C4_8
REMARK    5  A    between atoms: C4_8  and  C5_9
REMARK    6  A    between atoms: C4_8  and  N9_32
REMARK    7  A    between atoms: C5_9  and  C6_10
REMARK    8  A    between atoms: C5_9  and  N4_19
REMARK    9  A    between atoms: C6_10  and  C7_11
REMARK   10  A    between atoms: C9_22  and  N6_23
REMARK   11  A    between atoms: N7_26  and  N8_27
REMARK   12  A    between atoms: C12_34  and  N10_35
REMARK       I    between atoms: N10_35  and  C13_37
REMARK   13  A    between atoms: C13_37  and  C14_39
ROOT
HETATM    1  C14 UNL     1       0.246 -20.495  -5.549  1.00  0.00     0.073 A
HETATM    2  C15 UNL     1      -0.942 -20.717  -6.204  1.00  0.00     0.108 A
HETATM    3  N11 UNL     1      -1.677 -19.672  -6.639  1.00  0.00    -0.352 N
ATOM      4  H11 UNL     1      -2.558 -19.835  -7.126  1.00  0.00     0.166 HD
HETATM    5  C16 UNL     1      -1.249 -18.429  -6.433  1.00  0.00     0.139 A
HETATM    6  N12 UNL     1      -2.043 -17.325  -6.902  1.00  0.00    -0.081 NA
HETATM    7  C17 UNL     1      -0.065 -18.155  -5.782  1.00  0.00     0.111 A
HETATM    8  C18 UNL     1       0.382 -16.791  -5.568  1.00  0.00     0.105 C
HETATM    9  N13 UNL     1       0.737 -15.705  -5.383  1.00  0.00    -0.191 NA
HETATM   10  C19 UNL     1       0.680 -19.197  -5.341  1.00  0.00     0.087 A
HETATM   11  N14 UNL     1       1.900 -18.968  -4.669  1.00  0.00    -0.100 NA
ENDROOT
BRANCH   1  12
HETATM   12  C13 UNL     1       1.075 -21.593  -5.061  1.00  0.00     0.259 C
HETATM   13  N10 UNL     1       2.348 -21.810  -5.569  1.00  0.00    -0.320 N
ATOM     14  H10 UNL     1       2.695 -21.183  -6.294  1.00  0.00     0.169 HD
HETATM   15  O5  UNL     1       0.586 -22.327  -4.166  1.00  0.00    -0.267 OA
BRANCH  13  16
HETATM   16  C12 UNL     1       3.195 -22.870  -5.123  1.00  0.00     0.069 A
HETATM   17  C11 UNL     1       4.125 -22.766  -4.087  1.00  0.00     0.141 A
HETATM   18  N9  UNL     1       4.772 -23.918  -3.895  1.00  0.00    -0.292 N
HETATM   19  N15 UNL     1       4.266 -24.765  -4.802  1.00  0.00    -0.307 N
HETATM   20  C20 UNL     1       3.321 -24.160  -5.547  1.00  0.00     0.138 A
ATOM     21  H15 UNL     1       4.557 -25.737  -4.913  1.00  0.00     0.186 HD
BRANCH  18  22
HETATM   22  C4  UNL     1       5.812 -24.280  -2.925  1.00  0.00     0.171 C
BRANCH  22  23
HETATM   23  C3  UNL     1       5.575 -25.678  -2.412  1.00  0.00     0.244 C
BRANCH  23  24
HETATM   24  C2  UNL     1       6.367 -26.737  -2.998  1.00  0.00     0.289 C
HETATM   25  O2  UNL     1       7.382 -27.203  -2.456  1.00  0.00    -0.262 OA
BRANCH  24  26
HETATM   26  O1  UNL     1       5.987 -27.272  -4.222  1.00  0.00    -0.324 OA
HETATM   27  C1  UNL     1       6.781 -27.225  -5.381  1.00  0.00     0.213 C
ENDBRANCH  24  26
ENDBRANCH  23  24
BRANCH  23  28
HETATM   28  O3  UNL     1       4.229 -26.020  -2.302  1.00  0.00    -0.383 OA
ATOM     29  H3  UNL     1       4.107 -26.915  -2.007  1.00  0.00     0.210 HD
ENDBRANCH  23  28
ENDBRANCH  22  23
BRANCH  22  30
HETATM   30  C5  UNL     1       6.016 -23.231  -1.924  1.00  0.00     0.148 C
BRANCH  30  31
HETATM   31  C6  UNL     1       7.450 -22.910  -1.686  1.00  0.00     0.107 C
BRANCH  31  32
HETATM   32  C7  UNL     1       7.921 -21.609  -2.172  1.00  0.00     0.098 A
HETATM   33  N1  UNL     1       8.807 -21.427  -3.195  1.00  0.00    -0.340 N
HETATM   34  C8  UNL     1       9.051 -20.142  -3.401  1.00  0.00     0.198 A
ATOM     35  H1  UNL     1       9.228 -22.185  -3.733  1.00  0.00     0.168 HD
HETATM   36  N2  UNL     1       8.314 -19.472  -2.499  1.00  0.00    -0.295 N
HETATM   37  N3  UNL     1       7.636 -20.367  -1.763  1.00  0.00    -0.288 N
ATOM     38  H2  UNL     1       8.276 -18.458  -2.392  1.00  0.00     0.187 HD
ATOM     39  H3  UNL     1       6.997 -20.135  -1.002  1.00  0.00     0.188 HD
ENDBRANCH  31  32
ENDBRANCH  30  31
BRANCH  30  40
HETATM   40  N4  UNL     1       5.274 -23.385  -0.686  1.00  0.00    -0.219 N
HETATM   41  N5  UNL     1       5.412 -24.310   0.261  1.00  0.00    -0.124 N
HETATM   42  C9  UNL     1       4.554 -24.119   1.263  1.00  0.00     0.716 A
ATOM     43  H5  UNL     1       6.091 -25.070   0.224  1.00  0.00     0.206 HD
HETATM   44  N7  UNL     1       3.827 -23.024   0.951  1.00  0.00    -0.036 N
HETATM   45  C10 UNL     1       4.282 -22.596  -0.236  1.00  0.00     0.377 A
HETATM   46  O4  UNL     1       3.828 -21.571  -0.850  1.00  0.00    -0.242 OA
BRANCH  42  47
HETATM   47  N6  UNL     1       4.384 -24.801   2.352  1.00  0.00    -0.231 N
ATOM     48  H62 UNL     1       4.485 -25.815   2.400  1.00  0.00     0.174 HD
ATOM     49  H61 UNL     1       4.140 -24.483   3.291  1.00  0.00     0.174 HD
ENDBRANCH  42  47
BRANCH  44  50
HETATM   50  N8  UNL     1       2.804 -22.469   1.740  1.00  0.00    -0.320 N
ATOM     51  H82 UNL     1       2.800 -22.311   2.748  1.00  0.00     0.178 HD
ATOM     52  H81 UNL     1       1.901 -22.141   1.396  1.00  0.00     0.178 HD
ENDBRANCH  44  50
ENDBRANCH  30  40
ENDBRANCH  22  30
ENDBRANCH  18  22
ENDBRANCH  13  16
ENDBRANCH   1  12
TORSDOF 13
ENDMDL