MODEL 5
REMARK VINA RESULT: -9.112120694      0.958      3.863
REMARK  14 active torsions:
REMARK  status: ('A' for Active; 'I' for Inactive)
REMARK       I    between atoms: C2_2  and  N1_4
REMARK    1  A    between atoms: N1_4  and  C3_6
REMARK    2  A    between atoms: C3_6  and  O2_7
REMARK    3  A    between atoms: C3_6  and  C4_9
REMARK    4  A    between atoms: N2_11  and  C6_12
REMARK    5  A    between atoms: C9_15  and  N3_16
REMARK    6  A    between atoms: N3_16  and  C10_17
REMARK    7  A    between atoms: N3_16  and  N5_24
REMARK    8  A    between atoms: C10_17  and  C11_18
REMARK    9  A    between atoms: C13_27  and  C14_28
REMARK       I    between atoms: C14_28  and  N7_30
REMARK   10  A    between atoms: N7_30  and  N8_32
REMARK   11  A    between atoms: C15_37  and  C16_38
REMARK   12  A    between atoms: C16_38  and  N11_43
REMARK   13  A    between atoms: N10_39  and  O4_41
REMARK   14  A    between atoms: C18_47  and  N13_48
ROOT
HETATM    1  N11 UNL     1       6.323 -27.798  -3.724  1.00  0.00    -0.276 N
ATOM      2  H11 UNL     1       7.286 -28.117  -3.622  1.00  0.00     0.179 HD
HETATM    3  C17 UNL     1       5.320 -28.625  -3.259  1.00  0.00     0.183 C
HETATM    4  N12 UNL     1       4.477 -29.316  -2.853  1.00  0.00    -0.172 NA
ENDROOT
BRANCH   1   5
HETATM    5  C16 UNL     1       6.110 -26.541  -4.331  1.00  0.00     0.165 C
HETATM    6  N10 UNL     1       6.346 -26.402  -5.572  1.00  0.00    -0.250 N
ATOM      7  H10 UNL     1       6.152 -25.468  -5.934  1.00  0.00     0.196 HD
BRANCH   5   8
HETATM    8  C15 UNL     1       5.604 -25.345  -3.652  1.00  0.00     0.128 A
HETATM    9  N9  UNL     1       4.297 -24.994  -3.871  1.00  0.00    -0.331 N
HETATM   10  C13 UNL     1       3.785 -23.902  -3.299  1.00  0.00     0.193 A
ATOM     11  H9  UNL     1       3.711 -25.572  -4.474  1.00  0.00     0.168 HD
HETATM   12  N6  UNL     1       4.592 -23.183  -2.523  1.00  0.00    -0.258 N
HETATM   13  N5  UNL     1       5.882 -23.493  -2.284  1.00  0.00    -0.173 N
ATOM     14  H6  UNL     1       4.211 -22.345  -2.082  1.00  0.00     0.191 HD
HETATM   15  C18 UNL     1       6.417 -24.587  -2.848  1.00  0.00     0.170 A
BRANCH  10  16
HETATM   16  C14 UNL     1       2.409 -23.455  -3.476  1.00  0.00     0.304 C
HETATM   17  O3  UNL     1       1.440 -24.251  -3.490  1.00  0.00    -0.263 OA
HETATM   18  N7  UNL     1       2.143 -22.074  -3.638  1.00  0.00    -0.270 N
ATOM     19  H7  UNL     1       2.920 -21.413  -3.629  1.00  0.00     0.189 HD
BRANCH  18  20
HETATM   20  N8  UNL     1       0.850 -21.599  -3.810  1.00  0.00    -0.342 N
ATOM     21  H82 UNL     1       0.244 -22.080  -4.476  1.00  0.00     0.176 HD
ATOM     22  H81 UNL     1       0.505 -20.792  -3.290  1.00  0.00     0.176 HD
ENDBRANCH  18  20
ENDBRANCH  10  16
BRANCH  13  23
HETATM   23  N3  UNL     1       6.603 -22.639  -1.450  1.00  0.00    -0.267 N
BRANCH  23  24
HETATM   24  C9  UNL     1       7.247 -21.451  -1.796  1.00  0.00     0.053 A
HETATM   25  C8  UNL     1       7.002 -20.228  -1.194  1.00  0.00     0.033 A
HETATM   26  C7  UNL     1       7.621 -19.055  -1.554  1.00  0.00     0.034 A
HETATM   27  C6  UNL     1       8.536 -19.099  -2.571  1.00  0.00     0.057 A
HETATM   28  C20 UNL     1       8.822 -20.272  -3.202  1.00  0.00     0.034 A
HETATM   29  C19 UNL     1       8.177 -21.452  -2.814  1.00  0.00     0.033 A
BRANCH  27  30
HETATM   30  N2  UNL     1       9.185 -17.905  -2.994  1.00  0.00    -0.251 N
HETATM   31  C5  UNL     1       9.230 -16.690  -2.416  1.00  0.00     0.149 A
HETATM   32  C4  UNL     1       9.972 -15.824  -3.177  1.00  0.00     0.092 A
HETATM   33  N15 UNL     1      10.378 -16.547  -4.237  1.00  0.00    -0.284 N
HETATM   34  N14 UNL     1       9.910 -17.773  -4.123  1.00  0.00    -0.236 N
ATOM     35  H15 UNL     1      10.955 -16.202  -5.004  1.00  0.00     0.188 HD
ATOM     36  H14 UNL     1      10.075 -18.520  -4.796  1.00  0.00     0.209 HD
BRANCH  32  37
HETATM   37  C3  UNL     1      10.283 -14.370  -2.920  1.00  0.00     0.274 C
BRANCH  37  38
HETATM   38  N1  UNL     1      11.616 -14.310  -2.309  1.00  0.00    -0.330 N
HETATM   39  C2  UNL     1      12.127 -13.083  -1.893  1.00  0.00     0.215 C
HETATM   40  C1  UNL     1      13.458 -12.966  -1.272  1.00  0.00     0.117 C
HETATM   41  O1  UNL     1      11.449 -12.028  -2.042  1.00  0.00    -0.274 OA
ATOM     42  H1  UNL     1      12.165 -15.161  -2.191  1.00  0.00     0.165 HD
ENDBRANCH  37  38
BRANCH  37  43
HETATM   43  O2  UNL     1      10.339 -13.648  -4.097  1.00  0.00    -0.371 OA
ATOM     44  H2  UNL     1       9.687 -12.960  -4.036  1.00  0.00     0.212 HD
ENDBRANCH  37  43
ENDBRANCH  32  37
ENDBRANCH  27  30
ENDBRANCH  23  24
BRANCH  23  45
HETATM   45  C10 UNL     1       6.680 -23.030  -0.030  1.00  0.00     0.195 C
BRANCH  45  46
HETATM   46  C11 UNL     1       5.363 -23.162   0.633  1.00  0.00     0.269 C
HETATM   47  N4  UNL     1       4.829 -21.914   1.144  1.00  0.00    -0.052 N
HETATM   48  C12 UNL     1       5.624 -22.078   2.336  1.00  0.00     0.309 C
ATOM     49  H42 UNL     1       4.902 -21.059   0.592  1.00  0.00     0.279 HD
ATOM     50  H41 UNL     1       3.822 -21.776   1.215  1.00  0.00     0.279 HD
HETATM   51  S1  UNL     1       5.465 -23.857   2.303  1.00  0.00    -0.107 SA
ENDBRANCH  45  46
ENDBRANCH  23  45
ENDBRANCH  13  23
BRANCH  15  52
HETATM   52  N13 UNL     1       7.659 -24.848  -2.654  1.00  0.00    -0.381 N
ATOM     53 2H13 UNL     1       8.253 -24.310  -2.023  1.00  0.00     0.157 HD
ATOM     54 1H13 UNL     1       8.076 -25.655  -3.118  1.00  0.00     0.157 HD
ENDBRANCH  15  52
ENDBRANCH   5   8
BRANCH   6  55
HETATM   55  O4  UNL     1       6.802 -27.257  -6.484  1.00  0.00    -0.288 OA
ATOM     56  H4  UNL     1       6.974 -27.155  -7.413  1.00  0.00     0.244 HD
ENDBRANCH   6  55
ENDBRANCH   1   5
TORSDOF 14
ENDMDL