MODEL 4
REMARK VINA RESULT: -7.693828691      2.963      7.003
REMARK  16 active torsions:
REMARK  status: ('A' for Active; 'I' for Inactive)
REMARK    1  A    between atoms: N1_1  and  C1_5
REMARK    2  A    between atoms: C1_5  and  C2_6
REMARK    3  A    between atoms: C2_6  and  C3_7
REMARK    4  A    between atoms: C2_6  and  C14_39
REMARK    5  A    between atoms: C3_7  and  N2_8
REMARK    6  A    between atoms: C6_13  and  O1_14
REMARK    7  A    between atoms: C7_16  and  S1_17
REMARK    8  A    between atoms: S1_17  and  S2_18
REMARK    9  A    between atoms: S2_18  and  C8_19
REMARK   10  A    between atoms: C8_19  and  C9_20
REMARK   11  A    between atoms: C11_29  and  C12_30
REMARK   12  A    between atoms: C12_30  and  O6_32
REMARK   13  A    between atoms: O6_32  and  C13_33
REMARK   14  A    between atoms: C13_33  and  O7_34
REMARK   15  A    between atoms: C13_33  and  N6_36
REMARK   16  A    between atoms: N6_36  and  O8_37
ROOT
HETATM    1  N2  UNL     1       8.644 -21.858  -3.956  1.00  0.00    -0.270 N
HETATM    2  N3  UNL     1       8.263 -22.503  -5.035  1.00  0.00    -0.298 N
ATOM      3  H3  UNL     1       8.631 -22.310  -5.966  1.00  0.00     0.187 HD
HETATM    4  C4  UNL     1       7.340 -23.441  -4.785  1.00  0.00     0.066 A
HETATM    5  C5  UNL     1       7.116 -23.388  -3.426  1.00  0.00     0.077 A
HETATM    6  C6  UNL     1       7.938 -22.392  -2.911  1.00  0.00     0.172 A
HETATM    7  C7  UNL     1       6.230 -24.186  -2.552  1.00  0.00     0.112 C
HETATM    8  N4  UNL     1       5.551 -25.207  -2.880  1.00  0.00    -0.290 N
ATOM      9  H4  UNL     1       4.999 -25.619  -2.128  1.00  0.00     0.187 HD
HETATM   10  N5  UNL     1       5.447 -25.853  -4.118  1.00  0.00    -0.268 N
ATOM     11  H5  UNL     1       4.762 -26.606  -4.183  1.00  0.00     0.190 HD
HETATM   12  C10 UNL     1       6.189 -25.575  -5.288  1.00  0.00     0.255 C
HETATM   13  O4  UNL     1       6.429 -26.593  -5.994  1.00  0.00    -0.270 OA
HETATM   14  C11 UNL     1       6.714 -24.316  -5.801  1.00  0.00     0.231 C
ENDROOT
BRANCH   1  15
HETATM   15  C3  UNL     1       9.581 -20.811  -3.742  1.00  0.00     0.162 C
BRANCH  15  16
HETATM   16  C2  UNL     1      10.136 -20.063  -4.892  1.00  0.00     0.071 C
BRANCH  16  17
HETATM   17  C1  UNL     1      11.633 -20.479  -4.913  1.00  0.00     0.240 C
BRANCH  17  18
HETATM   18  N1  UNL     1      11.970 -21.133  -6.161  1.00  0.00    -0.079 N
ATOM     19  H13 UNL     1      11.559 -20.653  -6.961  1.00  0.00     0.274 HD
ATOM     20  H12 UNL     1      12.955 -21.011  -6.398  1.00  0.00     0.274 HD
ATOM     21  H11 UNL     1      11.707 -22.118  -6.137  1.00  0.00     0.274 HD
ENDBRANCH  17  18
ENDBRANCH  16  17
BRANCH  16  22
HETATM   22  C14 UNL     1      10.111 -18.621  -4.885  1.00  0.00     0.040 A
HETATM   23  C15 UNL     1       9.823 -17.883  -3.759  1.00  0.00     0.160 A
HETATM   24  O9  UNL     1       9.762 -16.552  -3.751  1.00  0.00    -0.273 OA
HETATM   25  C16 UNL     1       9.985 -15.867  -4.862  1.00  0.00     0.372 A
HETATM   26  O10 UNL     1       9.926 -14.598  -4.857  1.00  0.00    -0.238 OA
HETATM   27  N7  UNL     1      10.266 -16.539  -5.967  1.00  0.00    -0.269 N
HETATM   28  C17 UNL     1      10.342 -17.895  -6.035  1.00  0.00     0.258 A
ATOM     29  H7  UNL     1      10.436 -16.006  -6.821  1.00  0.00     0.174 HD
HETATM   30  O11 UNL     1      10.623 -18.440  -7.126  1.00  0.00    -0.267 OA
ENDBRANCH  16  22
ENDBRANCH  15  16
ENDBRANCH   1  15
BRANCH   6  31
HETATM   31  O1  UNL     1       8.023 -22.011  -1.576  1.00  0.00    -0.344 OA
ATOM     32  H1  UNL     1       7.295 -21.871  -0.981  1.00  0.00     0.219 HD
ENDBRANCH   6  31
BRANCH  14  33
HETATM   33  C12 UNL     1       7.620 -24.618  -6.944  1.00  0.00     0.281 C
HETATM   34  O5  UNL     1       7.247 -24.582  -8.130  1.00  0.00    -0.264 OA
BRANCH  33  35
HETATM   35  O6  UNL     1       8.944 -24.954  -6.660  1.00  0.00    -0.272 OA
BRANCH  35  36
HETATM   36  C13 UNL     1      10.040 -24.167  -7.024  1.00  0.00     0.393 C
BRANCH  36  37
HETATM   37  O7  UNL     1       9.655 -22.915  -7.434  1.00  0.00    -0.356 OA
ATOM     38  H7  UNL     1      10.126 -22.636  -8.211  1.00  0.00     0.214 HD
ENDBRANCH  36  37
BRANCH  36  39
HETATM   39  N6  UNL     1      10.928 -23.960  -5.865  1.00  0.00    -0.042 NA
BRANCH  39  40
HETATM   40  O8  UNL     1      12.204 -24.166  -6.322  1.00  0.00    -0.292 OA
ATOM     41  H8  UNL     1      12.764 -23.600  -5.804  1.00  0.00     0.239 HD
ENDBRANCH  39  40
ENDBRANCH  36  39
ENDBRANCH  35  36
ENDBRANCH  33  35
ENDBRANCH  14  33
BRANCH   7  42
HETATM   42  S1  UNL     1       6.140 -23.592  -0.872  1.00  0.00    -0.037 SA
BRANCH  42  43
HETATM   43  S2  UNL     1       4.723 -21.974  -0.853  1.00  0.00    -0.080 SA
BRANCH  43  44
HETATM   44  C8  UNL     1       5.380 -20.815   0.429  1.00  0.00     0.199 C
BRANCH  44  45
HETATM   45  C9  UNL     1       5.831 -19.637  -0.349  1.00  0.00     0.183 C
HETATM   46  O2  UNL     1       5.015 -18.663  -0.377  1.00  0.00    -0.647 OA
HETATM   47  O3  UNL     1       7.030 -19.561  -1.001  1.00  0.00    -0.647 OA
ENDBRANCH  44  45
ENDBRANCH  43  44
ENDBRANCH  42  43
ENDBRANCH   7  42
TORSDOF 16
ENDMDL