MODEL 1
REMARK VINA RESULT: -10.119186300      0.000      0.000
REMARK  14 active torsions:
REMARK  status: ('A' for Active; 'I' for Inactive)
REMARK    1  A    between atoms: O1_3  and  C2_4
REMARK    2  A    between atoms: C2_4  and  C3_6
REMARK    3  A    between atoms: C3_6  and  N2_7
REMARK    4  A    between atoms: C3_6  and  C8_21
REMARK    5  A    between atoms: N2_7  and  C4_9
REMARK    6  A    between atoms: C5_15  and  O4_16
REMARK    7  A    between atoms: O4_16  and  C6_17
REMARK    8  A    between atoms: C6_17  and  C7_18
REMARK    9  A    between atoms: C8_21  and  N6_25
REMARK   10  A    between atoms: N6_25  and  N7_27
REMARK   11  A    between atoms: N7_27  and  C9_29
REMARK   12  A    between atoms: C11_31  and  O7_32
REMARK   13  A    between atoms: N8_35  and  C12_36
REMARK   14  A    between atoms: C12_36  and  C13_37
ROOT
HETATM    1  N1  UNL     1      -1.138 -24.825  -3.556  1.00  0.00    -0.163 NA
HETATM    2  C1  UNL     1      -0.456 -24.053  -3.028  1.00  0.00     0.236 C
HETATM    3  O1  UNL     1       0.367 -23.126  -2.409  1.00  0.00    -0.202 OA
ENDROOT
BRANCH   3   4
HETATM    4  C2  UNL     1       1.057 -22.170  -3.125  1.00  0.00     0.303 C
HETATM    5  O2  UNL     1       1.403 -21.118  -2.543  1.00  0.00    -0.261 OA
BRANCH   4   6
HETATM    6  C3  UNL     1       1.397 -22.352  -4.558  1.00  0.00     0.253 C
BRANCH   6   7
HETATM    7  N2  UNL     1       1.169 -21.101  -5.223  1.00  0.00    -0.351 N
ATOM      8  H2  UNL     1       1.901 -20.398  -5.125  1.00  0.00     0.162 HD
BRANCH   7   9
HETATM    9  C4  UNL     1       0.163 -20.767  -5.918  1.00  0.00     0.178 A
HETATM   10  N3  UNL     1      -0.824 -21.575  -6.322  1.00  0.00    -0.222 N
HETATM   11  O3  UNL     1      -1.693 -20.868  -7.025  1.00  0.00    -0.153 OA
ATOM     12  H3  UNL     1      -0.895 -22.572  -6.120  1.00  0.00     0.198 HD
HETATM   13  N4  UNL     1      -1.309 -19.628  -7.094  1.00  0.00    -0.216 N
HETATM   14  C5  UNL     1      -0.133 -19.521  -6.404  1.00  0.00     0.211 A
ATOM     15  H4  UNL     1      -1.795 -18.872  -7.577  1.00  0.00     0.199 HD
BRANCH  14  16
HETATM   16  O4  UNL     1       0.565 -18.335  -6.265  1.00  0.00    -0.321 OA
BRANCH  16  17
HETATM   17  C6  UNL     1       0.060 -17.229  -5.563  1.00  0.00     0.290 C
BRANCH  17  18
HETATM   18  C7  UNL     1      -0.749 -16.307  -6.382  1.00  0.00     0.198 C
HETATM   19  O5  UNL     1      -0.184 -15.318  -6.899  1.00  0.00    -0.646 OA
HETATM   20  O6  UNL     1      -2.094 -16.509  -6.588  1.00  0.00    -0.646 OA
ENDBRANCH  17  18
ENDBRANCH  16  17
ENDBRANCH  14  16
ENDBRANCH   7   9
ENDBRANCH   6   7
BRANCH   6  21
HETATM   21  C8  UNL     1       2.795 -22.806  -4.660  1.00  0.00     0.122 C
HETATM   22  N5  UNL     1       3.489 -22.716  -5.720  1.00  0.00    -0.386 N
ATOM     23  H52 UNL     1       3.047 -22.306  -6.543  1.00  0.00     0.157 HD
ATOM     24  H51 UNL     1       4.457 -23.030  -5.790  1.00  0.00     0.157 HD
BRANCH  21  25
HETATM   25  N6  UNL     1       3.424 -23.389  -3.488  1.00  0.00    -0.286 N
ATOM     26  H6  UNL     1       3.140 -24.331  -3.219  1.00  0.00     0.188 HD
BRANCH  25  27
HETATM   27  N7  UNL     1       4.329 -22.795  -2.750  1.00  0.00    -0.283 N
ATOM     28  H7  UNL     1       4.827 -22.100  -3.306  1.00  0.00     0.188 HD
BRANCH  27  29
HETATM   29  C9  UNL     1       4.792 -22.806  -1.547  1.00  0.00     0.132 A
HETATM   30  C10 UNL     1       3.918 -22.594  -0.491  1.00  0.00     0.096 A
HETATM   31  C11 UNL     1       4.446 -22.583   0.751  1.00  0.00     0.127 A
HETATM   32  S1  UNL     1       6.089 -22.856   0.472  1.00  0.00     0.015 SA
HETATM   33  N8  UNL     1       6.060 -22.980  -1.237  1.00  0.00    -0.294 N
BRANCH  31  34
HETATM   34  O7  UNL     1       3.750 -22.385   1.974  1.00  0.00    -0.353 OA
ATOM     35  H7  UNL     1       3.378 -21.572   2.294  1.00  0.00     0.218 HD
ENDBRANCH  31  34
BRANCH  33  36
HETATM   36  C12 UNL     1       7.262 -23.273  -2.047  1.00  0.00     0.196 C
BRANCH  36  37
HETATM   37  C13 UNL     1       7.870 -21.986  -2.460  1.00  0.00     0.029 A
HETATM   38  C14 UNL     1       7.613 -20.774  -1.905  1.00  0.00     0.028 A
HETATM   39  C15 UNL     1       8.222 -19.604  -2.361  1.00  0.00     0.023 A
HETATM   40  C16 UNL     1       9.103 -19.696  -3.402  1.00  0.00     0.075 A
HETATM   41  C17 UNL     1       9.375 -20.938  -3.980  1.00  0.00     0.118 A
HETATM   42  C19 UNL     1       9.799 -18.547  -3.965  1.00  0.00     0.256 C
HETATM   43  N9  UNL     1       8.757 -22.009  -3.491  1.00  0.00    -0.344 N
HETATM   44  N10 UNL     1      10.284 -21.048  -5.055  1.00  0.00    -0.359 N
ATOM     45  H9  UNL     1       8.962 -22.913  -3.920  1.00  0.00     0.167 HD
HETATM   46  C18 UNL     1      11.232 -20.006  -5.362  1.00  0.00     0.248 C
ATOM     47  H10 UNL     1      10.269 -21.889  -5.631  1.00  0.00     0.162 HD
HETATM   48  N11 UNL     1      10.692 -18.716  -5.035  1.00  0.00    -0.341 N
ATOM     49  H11 UNL     1      10.964 -17.905  -5.593  1.00  0.00     0.164 HD
HETATM   50  O8  UNL     1       9.567 -17.426  -3.458  1.00  0.00    -0.267 OA
ENDBRANCH  36  37
ENDBRANCH  33  36
ENDBRANCH  27  29
ENDBRANCH  25  27
ENDBRANCH  21  25
ENDBRANCH   6  21
ENDBRANCH   4   6
ENDBRANCH   3   4
TORSDOF 14
ENDMDL