MODEL 3
REMARK VINA RESULT: -9.266683740      1.686      3.120
REMARK  15 active torsions:
REMARK  status: ('A' for Active; 'I' for Inactive)
REMARK       I    between atoms: N1_1  and  C1_4
REMARK       I    between atoms: C1_4  and  N3_6
REMARK    1  A    between atoms: N3_6  and  C2_8
REMARK    2  A    between atoms: C4_17  and  C5_18
REMARK    3  A    between atoms: N8_20  and  C7_21
REMARK    4  A    between atoms: C7_21  and  C8_22
REMARK    5  A    between atoms: C8_22  and  C9_23
REMARK    6  A    between atoms: C13_31  and  C14_32
REMARK       I    between atoms: C14_32  and  N12_34
REMARK    7  A    between atoms: N12_34  and  C15_36
REMARK    8  A    between atoms: C15_36  and  N13_37
REMARK    9  A    between atoms: N13_37  and  C16_39
REMARK   10  A    between atoms: C16_39  and  C17_40
REMARK   11  A    between atoms: C17_40  and  O2_41
REMARK   12  A    between atoms: N14_43  and  O3_44
REMARK   13  A    between atoms: C18_46  and  C19_47
REMARK   14  A    between atoms: C19_47  and  N15_48
REMARK   15  A    between atoms: C19_47  and  O4_52
ROOT
HETATM    1  C5  UNL     1       7.487 -20.649  -1.549  1.00  0.00     0.081 A
HETATM    2  C6  UNL     1       7.376 -21.971  -1.889  1.00  0.00     0.124 A
HETATM    3  N8  UNL     1       6.653 -22.614  -0.955  1.00  0.00    -0.340 N
HETATM    4  C18 UNL     1       6.298 -21.727  -0.021  1.00  0.00     0.141 A
HETATM    5  N16 UNL     1       6.824 -20.526  -0.411  1.00  0.00    -0.339 N
ATOM      6  H16 UNL     1       6.718 -19.652   0.106  1.00  0.00     0.167 HD
ENDROOT
BRANCH   3   7
HETATM    7  C7  UNL     1       6.381 -24.004  -1.044  1.00  0.00     0.136 C
BRANCH   7   8
HETATM    8  C8  UNL     1       4.950 -24.338  -0.817  1.00  0.00     0.079 C
BRANCH   8   9
HETATM    9  C9  UNL     1       4.069 -23.495  -1.692  1.00  0.00     0.030 A
HETATM   10  C10 UNL     1       4.133 -23.531  -3.072  1.00  0.00     0.145 A
HETATM   11  N9  UNL     1       3.202 -22.716  -3.560  1.00  0.00    -0.221 N
HETATM   12  C11 UNL     1       2.572 -22.181  -2.529  1.00  0.00     0.156 A
HETATM   13  N14 UNL     1       2.675 -22.269  -4.720  1.00  0.00    -0.148 N
HETATM   14  N10 UNL     1       3.092 -22.647  -1.376  1.00  0.00    -0.341 N
HETATM   15  C12 UNL     1       1.597 -21.353  -3.072  1.00  0.00     0.128 A
ATOM     16  H10 UNL     1       2.791 -22.396  -0.433  1.00  0.00     0.167 HD
HETATM   17  N11 UNL     1       0.691 -20.583  -2.323  1.00  0.00    -0.096 NA
HETATM   18  C13 UNL     1       1.660 -21.410  -4.472  1.00  0.00     0.178 A
BRANCH  18  19
HETATM   19  C14 UNL     1       0.804 -20.716  -5.394  1.00  0.00     0.286 C
HETATM   20  O1  UNL     1       0.267 -21.334  -6.338  1.00  0.00    -0.265 OA
HETATM   21  N12 UNL     1       0.483 -19.299  -5.340  1.00  0.00    -0.273 N
ATOM     22  H12 UNL     1       0.888 -18.737  -4.591  1.00  0.00     0.180 HD
BRANCH  21  23
HETATM   23  C15 UNL     1      -0.296 -18.714  -6.204  1.00  0.00     0.050 C
BRANCH  23  24
HETATM   24  N13 UNL     1      -1.046 -18.150  -7.036  1.00  0.00    -0.341 N
ATOM     25  H13 UNL     1      -1.280 -18.646  -7.895  1.00  0.00     0.170 HD
BRANCH  24  26
HETATM   26  C16 UNL     1      -1.583 -16.846  -6.832  1.00  0.00     0.156 C
BRANCH  26  27
HETATM   27  C17 UNL     1      -0.820 -16.186  -5.690  1.00  0.00     0.184 C
BRANCH  27  28
HETATM   28  O2  UNL     1       0.153 -15.316  -6.233  1.00  0.00    -0.399 OA
ATOM     29  H2  UNL     1       0.669 -15.792  -6.873  1.00  0.00     0.209 HD
ENDBRANCH  27  28
ENDBRANCH  26  27
ENDBRANCH  24  26
ENDBRANCH  23  24
ENDBRANCH  21  23
ENDBRANCH  18  19
BRANCH  13  30
HETATM   30  O3  UNL     1       3.150 -22.663  -5.956  1.00  0.00    -0.267 OA
ATOM     31  H3  UNL     1       2.595 -23.059  -6.617  1.00  0.00     0.247 HD
ENDBRANCH  13  30
ENDBRANCH   8   9
ENDBRANCH   7   8
ENDBRANCH   3   7
BRANCH   4  32
HETATM   32  C19 UNL     1       5.531 -21.889   1.207  1.00  0.00     0.385 C
BRANCH  32  33
HETATM   33  N15 UNL     1       5.992 -21.233   2.379  1.00  0.00    -0.046 N
ATOM     34 3H15 UNL     1       5.683 -21.759   3.197  1.00  0.00     0.277 HD
ATOM     35 2H15 UNL     1       7.004 -21.344   2.446  1.00  0.00     0.277 HD
ATOM     36 1H15 UNL     1       5.755 -20.250   2.506  1.00  0.00     0.277 HD
ENDBRANCH  32  33
BRANCH  32  37
HETATM   37  O4  UNL     1       4.179 -21.556   1.044  1.00  0.00    -0.364 OA
ATOM     38  H4  UNL     1       3.861 -20.978   1.728  1.00  0.00     0.212 HD
ENDBRANCH  32  37
ENDBRANCH   4  32
BRANCH   1  39
HETATM   39  C4  UNL     1       8.225 -19.622  -2.288  1.00  0.00     0.125 A
HETATM   40  N7  UNL     1       8.199 -18.295  -2.093  1.00  0.00    -0.279 N
HETATM   41  N6  UNL     1       8.966 -17.684  -2.973  1.00  0.00    -0.219 N
ATOM     42  H7  UNL     1       7.660 -17.825  -1.366  1.00  0.00     0.189 HD
HETATM   43  N5  UNL     1       9.515 -18.597  -3.766  1.00  0.00    -0.163 N
ATOM     44  H6  UNL     1       9.114 -16.676  -3.034  1.00  0.00     0.210 HD
HETATM   45  N4  UNL     1      10.326 -18.411  -4.778  1.00  0.00    -0.284 N
HETATM   46  C20 UNL     1       9.071 -19.810  -3.362  1.00  0.00     0.179 A
HETATM   47  C3  UNL     1      10.757 -19.501  -5.485  1.00  0.00     0.158 A
ATOM     48  H4  UNL     1      10.630 -17.472  -5.034  1.00  0.00     0.188 HD
HETATM   49  C2  UNL     1      10.316 -20.739  -5.092  1.00  0.00     0.126 A
HETATM   50  N17 UNL     1       9.477 -20.881  -4.031  1.00  0.00    -0.323 N
ATOM     51  H17 UNL     1       9.161 -21.809  -3.750  1.00  0.00     0.169 HD
BRANCH  49  52
HETATM   52  N3  UNL     1      10.665 -21.797  -5.739  1.00  0.00    -0.316 N
HETATM   53  C1  UNL     1       9.681 -22.774  -6.015  1.00  0.00     0.187 C
HETATM   54  N1  UNL     1       9.254 -22.861  -7.253  1.00  0.00    -0.373 N
HETATM   55  N2  UNL     1       9.206 -23.605  -4.972  1.00  0.00    -0.064 NA
ATOM     56  H12 UNL     1       8.544 -23.565  -7.451  1.00  0.00     0.158 HD
ATOM     57  H11 UNL     1       9.596 -22.262  -8.005  1.00  0.00     0.158 HD
ATOM     58  H3  UNL     1      11.630 -21.928  -6.046  1.00  0.00     0.170 HD
ENDBRANCH  49  52
ENDBRANCH   1  39
TORSDOF 15
ENDMDL