MODEL 4
REMARK VINA RESULT: -7.811008090      1.966      2.882
REMARK  15 active torsions:
REMARK  status: ('A' for Active; 'I' for Inactive)
REMARK    1  A    between atoms: C2_2  and  O1_3
REMARK    2  A    between atoms: O1_3  and  C3_4
REMARK    3  A    between atoms: C3_4  and  C4_6
REMARK    4  A    between atoms: C8_12  and  O4_13
REMARK    5  A    between atoms: C8_12  and  C9_15
REMARK    6  A    between atoms: C10_18  and  N3_19
REMARK    7  A    between atoms: C11_24  and  N5_25
REMARK    8  A    between atoms: N7_30  and  C12_31
REMARK    9  A    between atoms: N8_33  and  N9_34
REMARK   10  A    between atoms: C14_37  and  N10_38
REMARK   11  A    between atoms: C16_40  and  C17_41
REMARK   12  A    between atoms: C17_41  and  O5_42
REMARK   13  A    between atoms: O5_42  and  C18_43
REMARK   14  A    between atoms: C18_43  and  C19_44
REMARK   15  A    between atoms: C19_44  and  O6_47
ROOT
HETATM    1  C4  UNL     1       5.744 -24.861  -4.357  1.00  0.00     0.220 C
HETATM    2  C5  UNL     1       6.810 -25.559  -3.581  1.00  0.00     0.190 C
HETATM    3  O3  UNL     1       6.383 -26.824  -3.133  1.00  0.00    -0.278 OA
HETATM    4  N1  UNL     1       6.689 -26.903  -1.827  1.00  0.00    -0.100 NA
HETATM    5  C6  UNL     1       6.229 -25.587  -1.344  1.00  0.00     0.155 C
HETATM    6  C7  UNL     1       6.966 -24.708  -2.316  1.00  0.00     0.100 C
HETATM    7  C8  UNL     1       6.253 -23.418  -2.639  1.00  0.00     0.204 C
HETATM    8  N7  UNL     1       5.190 -23.822  -3.478  1.00  0.00    -0.310 N
ENDROOT
BRANCH   8   9
HETATM    9  C12 UNL     1       3.808 -23.432  -3.576  1.00  0.00     0.141 A
HETATM   10  C13 UNL     1       2.744 -24.235  -3.219  1.00  0.00     0.183 A
HETATM   11  N8  UNL     1       1.594 -23.565  -3.465  1.00  0.00    -0.099 N
HETATM   12  C14 UNL     1       1.920 -22.361  -3.970  1.00  0.00     0.724 A
HETATM   13  N13 UNL     1       3.256 -22.298  -4.028  1.00  0.00    -0.172 N
ATOM     14  H13 UNL     1       3.783 -21.494  -4.370  1.00  0.00     0.186 HD
BRANCH  11  15
HETATM   15  N9  UNL     1       0.317 -24.078  -3.225  1.00  0.00    -0.324 N
ATOM     16  H92 UNL     1      -0.463 -24.150  -3.879  1.00  0.00     0.178 HD
ATOM     17  H91 UNL     1       0.010 -24.461  -2.331  1.00  0.00     0.178 HD
ENDBRANCH  11  15
BRANCH  12  18
HETATM   18  N10 UNL     1       0.924 -21.398  -4.348  1.00  0.00    -0.078 N
HETATM   19  C15 UNL     1       0.332 -21.313  -5.580  1.00  0.00     0.161 A
HETATM   20  C16 UNL     1      -0.577 -20.253  -5.573  1.00  0.00     0.065 A
HETATM   21  N11 UNL     1      -0.498 -19.733  -4.337  1.00  0.00    -0.284 N
HETATM   22  N12 UNL     1       0.393 -20.422  -3.629  1.00  0.00    -0.000 NA
ATOM     23  H11 UNL     1      -1.036 -18.936  -3.995  1.00  0.00     0.184 HD
BRANCH  20  24
HETATM   24  C17 UNL     1      -1.438 -19.797  -6.687  1.00  0.00     0.227 C
BRANCH  24  25
HETATM   25  O5  UNL     1      -1.668 -18.435  -6.707  1.00  0.00    -0.382 OA
BRANCH  25  26
HETATM   26  C18 UNL     1      -0.552 -17.731  -7.091  1.00  0.00     0.205 C
BRANCH  26  27
HETATM   27  C19 UNL     1      -0.618 -16.311  -6.564  1.00  0.00     0.072 C
HETATM   28  C20 UNL     1       0.530 -16.045  -5.601  1.00  0.00     0.047 C
HETATM   29  C21 UNL     1      -1.886 -16.004  -5.839  1.00  0.00     0.047 C
BRANCH  27  30
HETATM   30  O6  UNL     1      -0.442 -15.441  -7.632  1.00  0.00    -0.388 OA
ATOM     31  H6  UNL     1      -0.824 -14.603  -7.401  1.00  0.00     0.210 HD
ENDBRANCH  27  30
ENDBRANCH  26  27
ENDBRANCH  25  26
ENDBRANCH  24  25
ENDBRANCH  20  24
ENDBRANCH  12  18
ENDBRANCH   8   9
BRANCH   1  32
HETATM   32  C3  UNL     1       6.297 -24.312  -5.613  1.00  0.00     0.284 C
HETATM   33  O2  UNL     1       5.553 -23.762  -6.497  1.00  0.00    -0.263 OA
BRANCH  32  34
HETATM   34  O1  UNL     1       7.665 -24.340  -5.937  1.00  0.00    -0.320 OA
BRANCH  34  35
HETATM   35  C2  UNL     1       8.071 -24.593  -7.283  1.00  0.00     0.174 C
HETATM   36  C1  UNL     1       8.547 -26.000  -7.452  1.00  0.00     0.034 C
ENDBRANCH  34  35
ENDBRANCH  32  34
ENDBRANCH   1  32
BRANCH   7  37
HETATM   37  O4  UNL     1       7.175 -22.664  -3.408  1.00  0.00    -0.364 OA
ATOM     38  H4  UNL     1       6.648 -22.031  -3.882  1.00  0.00     0.213 HD
ENDBRANCH   7  37
BRANCH   7  39
HETATM   39  C9  UNL     1       5.932 -22.584  -1.485  1.00  0.00     0.169 A
HETATM   40  N2  UNL     1       5.184 -22.905  -0.431  1.00  0.00    -0.175 N
HETATM   41  C10 UNL     1       4.951 -22.029   0.590  1.00  0.00     0.691 A
ATOM     42  H2  UNL     1       4.772 -23.837  -0.385  1.00  0.00     0.185 HD
HETATM   43  N4  UNL     1       5.481 -20.794   0.559  1.00  0.00    -0.023 N
HETATM   44  C11 UNL     1       6.233 -20.447  -0.486  1.00  0.00     0.691 A
ATOM     45  H4  UNL     1       5.311 -20.136   1.319  1.00  0.00     0.203 HD
HETATM   46  N6  UNL     1       6.452 -21.321  -1.482  1.00  0.00    -0.175 N
ATOM     47  H6  UNL     1       7.033 -21.030  -2.269  1.00  0.00     0.185 HD
BRANCH  41  48
HETATM   48  N3  UNL     1       4.226 -22.370   1.602  1.00  0.00    -0.234 N
ATOM     49  H32 UNL     1       4.660 -22.892   2.364  1.00  0.00     0.174 HD
ATOM     50  H31 UNL     1       3.236 -22.129   1.642  1.00  0.00     0.174 HD
ENDBRANCH  41  48
BRANCH  44  51
HETATM   51  N5  UNL     1       6.724 -19.243  -0.494  1.00  0.00    -0.234 N
ATOM     52  H52 UNL     1       6.993 -18.767  -1.355  1.00  0.00     0.174 HD
ATOM     53  H51 UNL     1       6.830 -18.774   0.406  1.00  0.00     0.174 HD
ENDBRANCH  44  51
ENDBRANCH   7  39
TORSDOF 15
ENDMDL