MODEL 2
REMARK VINA RESULT: -8.231191255      4.366      6.390
REMARK  16 active torsions:
REMARK  status: ('A' for Active; 'I' for Inactive)
REMARK    1  A    between atoms: O1_2  and  C2_3
REMARK    2  A    between atoms: C2_3  and  O2_4
REMARK    3  A    between atoms: C2_3  and  C3_6
REMARK    4  A    between atoms: C3_6  and  N1_7
REMARK    5  A    between atoms: C3_6  and  C13_37
REMARK    6  A    between atoms: N1_7  and  C4_9
REMARK    7  A    between atoms: N4_16  and  N5_17
REMARK    8  A    between atoms: C6_20  and  C7_21
REMARK    9  A    between atoms: C7_21  and  S1_22
REMARK   10  A    between atoms: S1_22  and  C8_23
REMARK   11  A    between atoms: C9_28  and  C10_29
REMARK   12  A    between atoms: C10_29  and  C11_31
REMARK   13  A    between atoms: C11_31  and  C12_33
REMARK   14  A    between atoms: C14_38  and  O7_39
REMARK   15  A    between atoms: C15_43  and  N9_44
REMARK   16  A    between atoms: N9_44  and  O8_46
ROOT
HETATM    1  C4  UNL     1       8.654 -20.653  -3.417  1.00  0.00     0.148 A
HETATM    2  N2  UNL     1       8.071 -19.768  -2.578  1.00  0.00    -0.173 N
ATOM      3  H2  UNL     1       8.043 -18.757  -2.713  1.00  0.00     0.186 HD
HETATM    4  C5  UNL     1       7.539 -20.423  -1.549  1.00  0.00     0.698 A
HETATM    5  N3  UNL     1       6.895 -19.901  -0.539  1.00  0.00    -0.233 N
ATOM      6  H31 UNL     1       6.487 -20.403   0.249  1.00  0.00     0.174 HD
ATOM      7  H32 UNL     1       6.732 -18.899  -0.437  1.00  0.00     0.174 HD
HETATM    8  N4  UNL     1       7.754 -21.752  -1.685  1.00  0.00    -0.093 N
HETATM    9  C6  UNL     1       8.438 -21.931  -2.817  1.00  0.00     0.106 A
ENDROOT
BRANCH   1  10
HETATM   10  N1  UNL     1       9.340 -20.362  -4.570  1.00  0.00    -0.336 N
ATOM     11  H1  UNL     1       8.919 -20.697  -5.437  1.00  0.00     0.168 HD
BRANCH  10  12
HETATM   12  C3  UNL     1      10.470 -19.705  -4.696  1.00  0.00     0.112 C
BRANCH  12  13
HETATM   13  C2  UNL     1      11.700 -20.384  -4.459  1.00  0.00     0.206 C
BRANCH  13  14
HETATM   14  O1  UNL     1      11.899 -21.594  -3.867  1.00  0.00    -0.334 OA
HETATM   15  C1  UNL     1      12.380 -22.733  -4.589  1.00  0.00     0.212 C
ENDBRANCH  13  14
BRANCH  13  16
HETATM   16  O2  UNL     1      12.820 -19.831  -4.833  1.00  0.00    -0.339 OA
ATOM     17  H2  UNL     1      12.721 -19.332  -5.634  1.00  0.00     0.220 HD
ENDBRANCH  13  16
ENDBRANCH  12  13
BRANCH  12  18
HETATM   18  C13 UNL     1      10.251 -18.306  -5.081  1.00  0.00     0.115 A
HETATM   19  C14 UNL     1      10.253 -17.796  -6.340  1.00  0.00     0.173 A
HETATM   20  N8  UNL     1      10.036 -16.474  -6.540  1.00  0.00    -0.168 N
HETATM   21  C15 UNL     1       9.812 -15.609  -5.561  1.00  0.00     0.706 A
ATOM     22  H8  UNL     1      10.045 -16.124  -7.497  1.00  0.00     0.186 HD
HETATM   23  N10 UNL     1       9.803 -16.077  -4.312  1.00  0.00    -0.153 N
HETATM   24  C16 UNL     1      10.012 -17.374  -4.053  1.00  0.00     0.276 A
ATOM     25  H10 UNL     1       9.633 -15.434  -3.539  1.00  0.00     0.187 HD
HETATM   26  O9  UNL     1       9.988 -17.749  -2.831  1.00  0.00    -0.267 OA
BRANCH  19  27
HETATM   27  O7  UNL     1      10.466 -18.548  -7.446  1.00  0.00    -0.345 OA
ATOM     28  H7  UNL     1       9.795 -18.718  -8.097  1.00  0.00     0.219 HD
ENDBRANCH  19  27
BRANCH  21  29
HETATM   29  N9  UNL     1       9.613 -14.357  -5.840  1.00  0.00    -0.098 N
ATOM     30  H9  UNL     1       8.792 -13.890  -5.454  1.00  0.00     0.213 HD
BRANCH  29  31
HETATM   31  O8  UNL     1      10.464 -13.646  -6.633  1.00  0.00    -0.276 OA
ATOM     32  H8  UNL     1      10.430 -12.698  -6.690  1.00  0.00     0.245 HD
ENDBRANCH  29  31
ENDBRANCH  21  29
ENDBRANCH  12  18
ENDBRANCH  10  12
ENDBRANCH   1  10
BRANCH   9  33
HETATM   33  C7  UNL     1       8.891 -23.142  -3.513  1.00  0.00     0.145 C
BRANCH  33  34
HETATM   34  S1  UNL     1       7.994 -23.494  -4.994  1.00  0.00    -0.097 SA
BRANCH  34  35
HETATM   35  C8  UNL     1       6.213 -23.433  -4.826  1.00  0.00     0.129 A
HETATM   36  N6  UNL     1       5.330 -23.329  -5.844  1.00  0.00    -0.287 N
HETATM   37  N7  UNL     1       4.101 -23.283  -5.602  1.00  0.00    -0.289 N
ATOM     38  H6  UNL     1       5.663 -23.289  -6.807  1.00  0.00     0.188 HD
HETATM   39  C9  UNL     1       3.661 -23.333  -4.348  1.00  0.00     0.146 A
ATOM     40  H7  UNL     1       3.435 -23.206  -6.370  1.00  0.00     0.188 HD
HETATM   41  S2  UNL     1       5.148 -23.456  -3.516  1.00  0.00    -0.041 SA
BRANCH  39  42
HETATM   42  C10 UNL     1       2.282 -23.295  -3.842  1.00  0.00     0.263 C
HETATM   43  O3  UNL     1       1.897 -24.271  -3.160  1.00  0.00    -0.281 OA
BRANCH  42  44
HETATM   44  C11 UNL     1       1.469 -22.152  -4.163  1.00  0.00     0.300 C
HETATM   45  O4  UNL     1       1.162 -21.900  -5.345  1.00  0.00    -0.277 OA
BRANCH  44  46
HETATM   46  C12 UNL     1       1.002 -21.281  -3.103  1.00  0.00     0.255 C
HETATM   47  O5  UNL     1       1.336 -21.467  -1.915  1.00  0.00    -0.641 OA
HETATM   48  O6  UNL     1       0.158 -20.191  -3.351  1.00  0.00    -0.641 OA
ENDBRANCH  44  46
ENDBRANCH  42  44
ENDBRANCH  39  42
ENDBRANCH  34  35
ENDBRANCH  33  34
ENDBRANCH   9  33
BRANCH   8  49
HETATM   49  N5  UNL     1       7.285 -22.750  -0.817  1.00  0.00    -0.324 N
ATOM     50  H52 UNL     1       7.031 -22.639   0.165  1.00  0.00     0.178 HD
ATOM     51  H51 UNL     1       7.179 -23.738  -1.048  1.00  0.00     0.178 HD
ENDBRANCH   8  49
TORSDOF 16
ENDMDL