MODEL 4
REMARK VINA RESULT: -5.925757853      4.972      7.120
REMARK  6 active torsions:
REMARK  status: ('A' for Active; 'I' for Inactive)
REMARK    1  A    between atoms: C2_2  and  C3_3
REMARK    2  A    between atoms: C3_3  and  S1_4
REMARK    3  A    between atoms: S1_4  and  C4_5
REMARK    4  A    between atoms: C4_5  and  C5_6
REMARK    5  A    between atoms: C6_7  and  C7_8
REMARK    6  A    between atoms: C7_8  and  O1_9
ROOT
HETATM    1  C7  UNL     1      67.221  12.689  37.362  1.00  0.00     0.125 C
HETATM    2  C8  UNL     1      67.769  13.950  36.676  1.00  0.00     0.052 C
HETATM    3  C9  UNL     1      66.476  14.420  35.991  1.00  0.00     0.009 C
HETATM    4  C10 UNL     1      66.038  13.157  35.335  1.00  0.00    -0.002 C
HETATM    5  C11 UNL     1      66.523  12.031  36.215  1.00  0.00     0.037 C
HETATM    6  C12 UNL     1      65.400  11.160  36.700  1.00  0.00     0.010 C
HETATM    7  C13 UNL     1      64.468  10.706  35.621  1.00  0.00     0.011 C
HETATM    8  C14 UNL     1      64.110  11.738  34.610  1.00  0.00    -0.032 C
HETATM    9  C15 UNL     1      64.482  11.303  33.233  1.00  0.00     0.014 C
HETATM   10  C16 UNL     1      63.348  10.964  32.327  1.00  0.00     0.034 C
HETATM   11  C17 UNL     1      62.195  10.319  32.993  1.00  0.00    -0.089 C
HETATM   12  C18 UNL     1      61.533   9.339  32.415  1.00  0.00     0.014 C
HETATM   13  C19 UNL     1      61.796  10.808  34.335  1.00  0.00     0.038 C
HETATM   14  C20 UNL     1      62.602  12.024  34.609  1.00  0.00    -0.002 C
HETATM   15  C21 UNL     1      62.445  12.647  35.951  1.00  0.00     0.006 C
HETATM   16  C22 UNL     1      63.622  13.641  35.932  1.00  0.00     0.006 C
HETATM   17  C23 UNL     1      64.614  13.119  34.964  1.00  0.00    -0.001 C
ENDROOT
BRANCH   1  18
HETATM   18  C6  UNL     1      68.346  11.940  37.881  1.00  0.00    -0.067 C
HETATM   19  C5  UNL     1      69.293  11.330  38.298  1.00  0.00    -0.093 C
BRANCH  19  20
HETATM   20  C4  UNL     1      70.407  10.595  38.833  1.00  0.00     0.168 C
BRANCH  20  21
HETATM   21  S1  UNL     1      70.556   8.885  38.436  1.00  0.00    -0.153 SA
BRANCH  21  22
HETATM   22  C3  UNL     1      70.708   7.731  39.775  1.00  0.00     0.101 C
BRANCH  22  23
HETATM   23  C2  UNL     1      69.745   6.625  39.716  1.00  0.00    -0.027 C
HETATM   24  C1  UNL     1      69.883   5.561  38.958  1.00  0.00     0.007 C
ENDBRANCH  22  23
ENDBRANCH  21  22
ENDBRANCH  20  21
ENDBRANCH  19  20
ENDBRANCH   1  18
BRANCH   1  25
HETATM   25  O1  UNL     1      66.367  13.132  38.368  1.00  0.00    -0.377 OA
ATOM     26  H1  UNL     1      66.530  12.701  39.199  1.00  0.00     0.211 HD
ENDBRANCH   1  25
TORSDOF 6
ENDMDL