MODEL 2
REMARK VINA RESULT: -8.329051031      1.619      1.989
REMARK  4 active torsions:
REMARK  status: ('A' for Active; 'I' for Inactive)
REMARK    1  A    between atoms: C2_2  and  C3_3
REMARK    2  A    between atoms: C3_3  and  N1_4
REMARK       I    between atoms: N1_4  and  C4_6
REMARK    3  A    between atoms: C4_6  and  O2_8
REMARK    4  A    between atoms: O2_8  and  C5_9
ROOT
HETATM    1  C5  UNL     1      64.255  10.042  35.731  1.00  0.00     0.134 C
HETATM    2  C6  UNL     1      64.356   8.678  36.388  1.00  0.00     0.033 C
HETATM    3  C7  UNL     1      63.104   8.489  37.223  1.00  0.00     0.012 C
HETATM    4  C8  UNL     1      61.948   8.356  36.254  1.00  0.00    -0.036 C
HETATM    5  C9  UNL     1      62.280   7.299  35.248  1.00  0.00     0.016 C
HETATM    6  C10 UNL     1      61.775   9.674  35.566  1.00  0.00    -0.004 C
HETATM    7  C11 UNL     1      61.331  10.774  36.487  1.00  0.00     0.006 C
HETATM    8  C12 UNL     1      60.331  10.383  37.497  1.00  0.00     0.006 C
HETATM    9  C13 UNL     1      60.442   9.009  38.045  1.00  0.00    -0.005 C
HETATM   10  C14 UNL     1      59.167   8.648  38.733  1.00  0.00    -0.006 C
HETATM   11  C15 UNL     1      58.861   9.442  39.956  1.00  0.00     0.005 C
HETATM   12  C16 UNL     1      58.037   8.512  40.829  1.00  0.00     0.001 C
HETATM   13  C17 UNL     1      58.072   7.151  40.147  1.00  0.00     0.005 C
HETATM   14  C18 UNL     1      59.314   7.238  39.327  1.00  0.00    -0.010 C
HETATM   15  C19 UNL     1      59.387   6.292  38.180  1.00  0.00     0.005 C
HETATM   16  C20 UNL     1      60.670   6.587  37.418  1.00  0.00     0.006 C
HETATM   17  C21 UNL     1      60.655   8.009  36.923  1.00  0.00    -0.002 C
HETATM   18  C22 UNL     1      63.037  10.131  34.868  1.00  0.00     0.038 C
ENDROOT
BRANCH   1  19
HETATM   19  O2  UNL     1      65.381  10.320  34.930  1.00  0.00    -0.299 OA
BRANCH  19  20
HETATM   20  C4  UNL     1      65.395  11.391  34.034  1.00  0.00     0.361 C
HETATM   21  N1  UNL     1      64.700  12.590  34.257  1.00  0.00    -0.333 N
ATOM     22  H1  UNL     1      64.149  12.715  35.106  1.00  0.00     0.165 HD
HETATM   23  O1  UNL     1      66.074  11.228  32.992  1.00  0.00    -0.238 OA
BRANCH  21  24
HETATM   24  C3  UNL     1      64.773  13.646  33.272  1.00  0.00     0.151 C
BRANCH  24  25
HETATM   25  C2  UNL     1      63.458  14.157  32.877  1.00  0.00    -0.018 C
HETATM   26  C1  UNL     1      62.477  13.328  32.578  1.00  0.00     0.008 C
ENDBRANCH  24  25
ENDBRANCH  21  24
ENDBRANCH  19  20
ENDBRANCH   1  19
TORSDOF 4
ENDMDL