MODEL 3
REMARK VINA RESULT: -9.042746966      1.722      6.083
REMARK  3 active torsions:
REMARK  status: ('A' for Active; 'I' for Inactive)
REMARK    1  A    between atoms: C2_2  and  C3_3
REMARK    2  A    between atoms: C3_3  and  N1_4
REMARK    3  A    between atoms: C7_11  and  C9_13
ROOT
HETATM    1  C9  UNL     1      62.218  11.293  34.607  1.00  0.00    -0.025 C
HETATM    2  C10 UNL     1      61.645  11.665  33.260  1.00  0.00     0.011 C
HETATM    3  C11 UNL     1      60.804  10.640  32.581  1.00  0.00     0.001 C
HETATM    4  C12 UNL     1      61.472   9.250  32.632  1.00  0.00     0.005 C
HETATM    5  C13 UNL     1      61.572   9.010  34.085  1.00  0.00    -0.005 C
HETATM    6  C14 UNL     1      61.909   7.624  34.521  1.00  0.00    -0.005 C
HETATM    7  C15 UNL     1      60.641   6.874  34.781  1.00  0.00     0.006 C
HETATM    8  C16 UNL     1      60.563   6.577  36.246  1.00  0.00     0.005 C
HETATM    9  C17 UNL     1      61.777   7.158  36.899  1.00  0.00    -0.014 C
HETATM   10  C18 UNL     1      62.628   5.993  37.392  1.00  0.00     0.010 C
HETATM   11  C19 UNL     1      62.560   7.893  35.864  1.00  0.00    -0.002 C
HETATM   12  C20 UNL     1      62.615   9.375  36.070  1.00  0.00    -0.004 C
HETATM   13  C21 UNL     1      61.368  10.014  36.519  1.00  0.00     0.006 C
HETATM   14  C22 UNL     1      61.156  11.268  35.684  1.00  0.00     0.011 C
HETATM   15  C23 UNL     1      62.705   9.886  34.629  1.00  0.00     0.004 C
ENDROOT
BRANCH   1  16
HETATM   16  C7  UNL     1      63.257  12.357  34.870  1.00  0.00    -0.016 C
HETATM   17  C6  UNL     1      63.809  12.857  33.587  1.00  0.00    -0.020 C
HETATM   18  C5  UNL     1      65.063  12.557  33.175  1.00  0.00    -0.027 C
HETATM   19  C4  UNL     1      65.935  11.702  34.020  1.00  0.00     0.065 C
HETATM   20  C3  UNL     1      65.717  12.114  35.435  1.00  0.00     0.127 C
HETATM   21  C24 UNL     1      64.273  12.065  35.897  1.00  0.00     0.053 C
HETATM   22  C8  UNL     1      62.413  13.532  35.441  1.00  0.00     0.020 C
BRANCH  20  23
HETATM   23  C2  UNL     1      66.315  13.494  35.608  1.00  0.00     0.034 C
HETATM   24  C1  UNL     1      65.928  14.096  36.951  1.00  0.00     0.007 C
ENDBRANCH  20  23
BRANCH  20  25
HETATM   25  N1  UNL     1      66.476  11.242  36.341  1.00  0.00    -0.070 N
ATOM     26  H13 UNL     1      67.439  11.544  36.489  1.00  0.00     0.275 HD
ATOM     27  H12 UNL     1      66.179  11.305  37.315  1.00  0.00     0.275 HD
ATOM     28  H11 UNL     1      66.395  10.305  35.948  1.00  0.00     0.275 HD
ENDBRANCH  20  25
ENDBRANCH   1  16
TORSDOF 3
ENDMDL