MODEL 2
REMARK VINA RESULT: -9.576249707      1.127      1.764
REMARK  3 active torsions:
REMARK  status: ('A' for Active; 'I' for Inactive)
REMARK    1  A    between atoms: C2_2  and  C4_4
REMARK    2  A    between atoms: N2_19  and  C16_20
REMARK    3  A    between atoms: C16_20  and  C17_21
ROOT
HETATM    1  C4  UNL     1      65.539  11.943  35.261  1.00  0.00     0.213 C
HETATM    2  N1  UNL     1      65.972  12.975  36.245  1.00  0.00    -0.064 N
ATOM      3  H11 UNL     1      66.985  13.040  36.338  1.00  0.00     0.278 HD
ATOM      4  H12 UNL     1      65.767  12.718  37.210  1.00  0.00     0.278 HD
HETATM    5  C5  UNL     1      65.350  14.235  35.842  1.00  0.00     0.191 C
HETATM    6  C6  UNL     1      65.849  15.370  36.718  1.00  0.00     0.033 C
HETATM    7  C7  UNL     1      64.777  15.972  37.564  1.00  0.00     0.002 C
HETATM    8  C8  UNL     1      63.540  16.343  36.802  1.00  0.00     0.001 C
HETATM    9  C9  UNL     1      63.090  15.333  35.815  1.00  0.00     0.007 C
HETATM   10  C10 UNL     1      63.877  14.063  35.938  1.00  0.00     0.026 C
HETATM   11  C11 UNL     1      63.427  12.995  34.975  1.00  0.00    -0.016 C
HETATM   12  C12 UNL     1      63.746  13.424  33.615  1.00  0.00     0.018 C
HETATM   13  C13 UNL     1      61.950  12.738  35.062  1.00  0.00     0.013 C
HETATM   14  C14 UNL     1      61.587  11.695  34.014  1.00  0.00     0.021 C
HETATM   15  C15 UNL     1      62.609  10.605  33.934  1.00  0.00     0.122 C
HETATM   16  N2  UNL     1      63.433  10.553  35.108  1.00  0.00    -0.386 N
HETATM   17  C23 UNL     1      64.132  11.698  35.477  1.00  0.00     0.123 C
ENDROOT
BRANCH  16  18
HETATM   18  C16 UNL     1      63.386   9.392  35.857  1.00  0.00     0.063 C
BRANCH  18  19
HETATM   19  C17 UNL     1      62.239   8.462  35.882  1.00  0.00     0.024 C
HETATM   20  C18 UNL     1      61.268   8.703  37.009  1.00  0.00     0.010 C
HETATM   21  C19 UNL     1      60.684   7.416  37.546  1.00  0.00     0.001 C
HETATM   22  C20 UNL     1      60.462   6.383  36.494  1.00  0.00     0.000 C
HETATM   23  C21 UNL     1      61.695   6.097  35.670  1.00  0.00     0.001 C
HETATM   24  C22 UNL     1      62.766   7.045  36.095  1.00  0.00     0.010 C
ENDBRANCH  18  19
ENDBRANCH  16  18
BRANCH   1  25
HETATM   25  C2  UNL     1      66.630  10.973  35.265  1.00  0.00     0.010 C
HETATM   26  C1  UNL     1      67.113  10.423  33.963  1.00  0.00     0.011 C
HETATM   27  C3  UNL     1      67.761  11.286  36.225  1.00  0.00     0.011 C
ENDBRANCH   1  25
TORSDOF 3
ENDMDL