MODEL 1
REMARK VINA RESULT: -8.371733138      0.000      0.000
REMARK  5 active torsions:
REMARK  status: ('A' for Active; 'I' for Inactive)
REMARK    1  A    between atoms: C8_8  and  C9_9
REMARK    2  A    between atoms: C9_9  and  C10_10
REMARK    3  A    between atoms: C10_10  and  C11_11
REMARK    4  A    between atoms: C11_11  and  C12_12
REMARK    5  A    between atoms: C15_15  and  O1_16
ROOT
HETATM    1  C12 UNL     1      60.424   6.490  37.200  1.00  0.00    -0.107 C
HETATM    2  C13 UNL     1      59.776   6.836  38.158  1.00  0.00    -0.111 C
HETATM    3  C14 UNL     1      58.999   7.261  39.334  1.00  0.00     0.112 C
ENDROOT
BRANCH   1   4
HETATM    4  C11 UNL     1      61.190   6.073  36.021  1.00  0.00     0.094 C
BRANCH   4   5
HETATM    5  C10 UNL     1      62.658   6.304  36.369  1.00  0.00     0.013 C
BRANCH   5   6
HETATM    6  C9  UNL     1      62.804   7.715  36.801  1.00  0.00     0.012 C
BRANCH   6   7
HETATM    7  C8  UNL     1      63.184   8.698  35.702  1.00  0.00     0.042 C
HETATM    8  C7  UNL     1      61.873   9.369  35.384  1.00  0.00     0.016 C
HETATM    9  C6  UNL     1      62.064  10.757  35.125  1.00  0.00    -0.005 C
HETATM   10  C5  UNL     1      61.215  11.903  34.991  1.00  0.00    -0.005 C
HETATM   11  C19 UNL     1      63.006  10.783  33.935  1.00  0.00    -0.005 C
HETATM   12  C4  UNL     1      61.065  12.792  36.241  1.00  0.00     0.009 C
HETATM   13  C22 UNL     1      61.801  12.944  34.006  1.00  0.00     0.003 C
HETATM   14  C3  UNL     1      61.968  13.936  36.333  1.00  0.00     0.034 C
HETATM   15  C2  UNL     1      63.174  13.980  35.514  1.00  0.00    -0.080 C
HETATM   16  C1  UNL     1      64.162  14.777  35.842  1.00  0.00     0.015 C
HETATM   17  C23 UNL     1      63.325  13.111  34.267  1.00  0.00    -0.013 C
HETATM   18  C18 UNL     1      63.957  11.846  34.477  1.00  0.00     0.006 C
HETATM   19  C24 UNL     1      63.936  13.895  33.173  1.00  0.00     0.021 C
HETATM   20  C17 UNL     1      65.244  11.278  34.276  1.00  0.00     0.035 C
HETATM   21  C16 UNL     1      65.307   9.910  34.881  1.00  0.00     0.006 C
HETATM   22  C15 UNL     1      64.447   9.412  35.977  1.00  0.00     0.043 C
HETATM   23  C21 UNL     1      61.556  12.396  32.641  1.00  0.00     0.006 C
HETATM   24  C20 UNL     1      62.352  11.161  32.639  1.00  0.00     0.006 C
BRANCH  22  25
HETATM   25  O1  UNL     1      64.569  10.042  37.209  1.00  0.00    -0.365 OA
ATOM     26  H1  UNL     1      65.448  10.224  37.520  1.00  0.00     0.217 HD
ENDBRANCH  22  25
ENDBRANCH   6   7
ENDBRANCH   5   6
ENDBRANCH   4   5
ENDBRANCH   1   4
TORSDOF 5
ENDMDL