MODEL 1
REMARK VINA RESULT: -8.283899849      0.000      0.000
REMARK  4 active torsions:
REMARK  status: ('A' for Active; 'I' for Inactive)
REMARK    1  A    between atoms: C2_2  and  C4_4
REMARK    2  A    between atoms: C4_4  and  C5_5
REMARK    3  A    between atoms: C5_5  and  C7_7
REMARK    4  A    between atoms: C16_16  and  O1_17
ROOT
HETATM    1  C7  UNL     1      64.756  10.757  34.515  1.00  0.00    -0.002 C
HETATM    2  C8  UNL     1      65.309  10.153  35.811  1.00  0.00     0.006 C
HETATM    3  C9  UNL     1      64.286   9.221  36.347  1.00  0.00     0.006 C
HETATM    4  C10 UNL     1      63.270   9.150  35.235  1.00  0.00    -0.002 C
HETATM    5  C11 UNL     1      61.940   8.648  35.634  1.00  0.00    -0.005 C
HETATM    6  C12 UNL     1      62.225   7.420  36.522  1.00  0.00     0.006 C
HETATM    7  C13 UNL     1      60.886   6.744  36.705  1.00  0.00     0.005 C
HETATM    8  C14 UNL     1      60.054   7.661  37.562  1.00  0.00    -0.008 C
HETATM    9  C15 UNL     1      59.963   7.125  38.998  1.00  0.00     0.036 C
HETATM   10  C16 UNL     1      59.037   7.976  39.802  1.00  0.00     0.118 C
HETATM   11  C17 UNL     1      59.349   9.449  39.704  1.00  0.00     0.032 C
HETATM   12  C18 UNL     1      59.469   9.881  38.246  1.00  0.00     0.008 C
HETATM   13  C19 UNL     1      60.620   9.045  37.671  1.00  0.00    -0.006 C
HETATM   14  C20 UNL     1      61.030   9.609  36.300  1.00  0.00    -0.006 C
HETATM   15  C21 UNL     1      61.486  10.989  36.477  1.00  0.00     0.006 C
HETATM   16  C22 UNL     1      62.762  11.416  35.864  1.00  0.00     0.010 C
HETATM   17  C23 UNL     1      63.277  10.587  34.741  1.00  0.00    -0.036 C
HETATM   18  C24 UNL     1      62.461  10.630  33.495  1.00  0.00     0.016 C
ENDROOT
BRANCH   1  19
HETATM   19  C5  UNL     1      65.231  12.160  34.425  1.00  0.00    -0.013 C
HETATM   20  C6  UNL     1      65.283  12.693  33.011  1.00  0.00     0.010 C
BRANCH  19  21
HETATM   21  C4  UNL     1      66.570  12.293  35.115  1.00  0.00     0.008 C
BRANCH  21  22
HETATM   22  C2  UNL     1      66.670  13.466  36.033  1.00  0.00    -0.022 C
HETATM   23  C1  UNL     1      65.322  14.015  36.441  1.00  0.00     0.009 C
HETATM   24  C3  UNL     1      67.333  12.958  37.309  1.00  0.00     0.009 C
ENDBRANCH  21  22
ENDBRANCH  19  21
ENDBRANCH   1  19
BRANCH  10  25
HETATM   25  O1  UNL     1      59.182   7.618  41.152  1.00  0.00    -0.396 OA
ATOM     26  H1  UNL     1      58.942   8.368  41.682  1.00  0.00     0.210 HD
ENDBRANCH  10  25
TORSDOF 4
ENDMDL