MODEL 2
REMARK VINA RESULT: -9.751511946      2.539      4.678
REMARK  4 active torsions:
REMARK  status: ('A' for Active; 'I' for Inactive)
REMARK    1  A    between atoms: C4_4  and  C5_5
REMARK    2  A    between atoms: C5_5  and  C6_6
REMARK    3  A    between atoms: C6_6  and  C7_7
REMARK    4  A    between atoms: C7_7  and  O1_8
ROOT
HETATM    1  C7  UNL     1      61.382  11.840  35.849  1.00  0.00     0.046 C
HETATM    2  C8  UNL     1      62.342  11.949  34.773  1.00  0.00    -0.042 C
HETATM    3  C9  UNL     1      62.008  11.507  33.402  1.00  0.00     0.038 C
HETATM    4  C10 UNL     1      63.328  11.137  32.693  1.00  0.00     0.010 C
HETATM    5  C11 UNL     1      64.335  11.718  33.594  1.00  0.00     0.003 C
HETATM    6  C12 UNL     1      65.690  11.105  33.560  1.00  0.00    -0.008 C
HETATM    7  C13 UNL     1      66.056  11.099  32.052  1.00  0.00     0.011 C
HETATM    8  C14 UNL     1      66.611  12.009  34.349  1.00  0.00     0.004 A
HETATM    9  C15 UNL     1      67.205  11.782  35.604  1.00  0.00     0.000 A
HETATM   10  C16 UNL     1      66.867  11.437  36.976  1.00  0.00     0.006 C
HETATM   11  C17 UNL     1      66.636  12.839  37.571  1.00  0.00     0.006 C
HETATM   12  C18 UNL     1      66.414  13.740  36.348  1.00  0.00    -0.005 C
HETATM   13  C19 UNL     1      65.223  14.588  36.623  1.00  0.00     0.006 C
HETATM   14  C20 UNL     1      64.120  13.866  35.816  1.00  0.00     0.007 C
HETATM   15  C21 UNL     1      64.612  12.407  35.851  1.00  0.00     0.008 C
HETATM   16  C22 UNL     1      63.765  11.521  34.983  1.00  0.00    -0.010 C
HETATM   17  C23 UNL     1      63.699  10.097  35.417  1.00  0.00     0.021 C
HETATM   18  C24 UNL     1      65.980  12.705  35.370  1.00  0.00    -0.024 A
ENDROOT
BRANCH   1  19
HETATM   19  C6  UNL     1      60.724  10.644  36.350  1.00  0.00     0.068 C
BRANCH  19  20
HETATM   20  C5  UNL     1      60.399  10.570  37.825  1.00  0.00     0.034 C
BRANCH  20  21
HETATM   21  C4  UNL     1      60.347   9.118  38.258  1.00  0.00    -0.024 C
HETATM   22  C2  UNL     1      59.391   8.723  39.047  1.00  0.00    -0.091 C
HETATM   23  C1  UNL     1      59.346   7.284  39.471  1.00  0.00     0.042 C
HETATM   24  C3  UNL     1      58.341   9.641  39.544  1.00  0.00     0.042 C
ENDBRANCH  20  21
ENDBRANCH  19  20
ENDBRANCH   1  19
BRANCH   1  25
HETATM   25  O1  UNL     1      60.361  12.840  35.751  1.00  0.00    -0.365 OA
ATOM     26  H1  UNL     1      59.949  12.876  36.607  1.00  0.00     0.217 HD
ENDBRANCH   1  25
TORSDOF 4
ENDMDL