MODEL 2
REMARK VINA RESULT: -8.794192734      2.124      7.322
REMARK  4 active torsions:
REMARK  status: ('A' for Active; 'I' for Inactive)
REMARK    1  A    between atoms: C2_2  and  C5_5
REMARK    2  A    between atoms: C8_8  and  C10_10
REMARK    3  A    between atoms: C12_12  and  N1_13
REMARK    4  A    between atoms: N1_13  and  C13_16
ROOT
HETATM    1  C10 UNL     1      62.587   8.107  35.925  1.00  0.00     0.026 A
HETATM    2  C11 UNL     1      64.082   8.081  36.191  1.00  0.00     0.041 A
HETATM    3  C12 UNL     1      63.387   9.134  35.328  1.00  0.00     0.191 A
ENDROOT
BRANCH   3   4
HETATM    4  N1  UNL     1      63.548  10.476  35.821  1.00  0.00    -0.066 N
ATOM      5  H12 UNL     1      62.783  10.737  36.443  1.00  0.00     0.278 HD
ATOM      6  H11 UNL     1      64.320  10.539  36.484  1.00  0.00     0.278 HD
BRANCH   4   7
HETATM    7  C13 UNL     1      63.698  11.427  34.743  1.00  0.00     0.194 C
HETATM    8  C14 UNL     1      62.469  12.253  34.570  1.00  0.00     0.017 C
HETATM    9  C15 UNL     1      62.357  13.369  35.584  1.00  0.00     0.011 C
HETATM   10  C19 UNL     1      62.569  12.930  33.200  1.00  0.00     0.011 C
HETATM   11  C16 UNL     1      63.559  14.267  35.476  1.00  0.00    -0.013 C
HETATM   12  C17 UNL     1      63.728  14.866  34.111  1.00  0.00     0.009 C
HETATM   13  C22 UNL     1      64.777  13.432  35.805  1.00  0.00     0.011 C
HETATM   14  C18 UNL     1      63.836  13.720  33.110  1.00  0.00    -0.013 C
HETATM   15  C20 UNL     1      65.068  12.941  33.453  1.00  0.00     0.011 C
HETATM   16  C21 UNL     1      64.900  12.294  34.840  1.00  0.00     0.017 C
ENDBRANCH   4   7
ENDBRANCH   3   4
BRANCH   1  17
HETATM   17  C8  UNL     1      61.670   8.196  37.082  1.00  0.00    -0.038 C
HETATM   18  C7  UNL     1      60.801   6.958  37.108  1.00  0.00     0.010 C
HETATM   19  C6  UNL     1      59.916   6.869  38.302  1.00  0.00     0.006 C
HETATM   20  C5  UNL     1      59.220   8.176  38.559  1.00  0.00    -0.007 C
HETATM   21  C24 UNL     1      60.175   9.355  38.591  1.00  0.00     0.006 C
HETATM   22  C23 UNL     1      60.807   9.389  37.184  1.00  0.00     0.010 C
HETATM   23  C9  UNL     1      62.552   8.161  38.342  1.00  0.00     0.015 C
BRANCH  20  24
HETATM   24  C2  UNL     1      58.308   8.140  39.742  1.00  0.00    -0.048 C
HETATM   25  C1  UNL     1      57.298   7.053  39.726  1.00  0.00     0.015 C
HETATM   26  C3  UNL     1      57.557   9.472  39.769  1.00  0.00     0.015 C
HETATM   27  C4  UNL     1      59.135   8.074  40.994  1.00  0.00     0.015 C
ENDBRANCH  20  24
ENDBRANCH   1  17
TORSDOF 4
ENDMDL