MODEL 5
REMARK VINA RESULT: -9.953334225      1.031      6.383
REMARK  4 active torsions:
REMARK  status: ('A' for Active; 'I' for Inactive)
REMARK    1  A    between atoms: C2_2  and  O1_3
REMARK    2  A    between atoms: C2_2  and  C14_18
REMARK    3  A    between atoms: O1_3  and  C3_4
REMARK    4  A    between atoms: C3_4  and  C4_8
ROOT
HETATM    1  O1  UNL     1      61.106  10.700  34.348  1.00  0.00    -0.333 OA
ENDROOT
BRANCH   1   2
HETATM    2  C2  UNL     1      61.817   9.548  34.221  1.00  0.00     0.134 C
HETATM    3  C1  UNL     1      61.164   8.815  33.015  1.00  0.00     0.041 C
BRANCH   2   4
HETATM    4  C14 UNL     1      61.914   8.558  35.330  1.00  0.00    -0.013 C
HETATM    5  C15 UNL     1      63.286   8.514  35.907  1.00  0.00     0.017 C
HETATM    6  C16 UNL     1      63.375   7.482  37.016  1.00  0.00    -0.013 C
HETATM    7  C17 UNL     1      62.932   6.143  36.558  1.00  0.00     0.009 C
HETATM    8  C22 UNL     1      62.484   7.946  38.148  1.00  0.00     0.014 C
HETATM    9  C18 UNL     1      61.482   6.251  36.143  1.00  0.00    -0.013 C
HETATM   10  C19 UNL     1      60.567   6.749  37.207  1.00  0.00     0.014 C
HETATM   11  C24 UNL     1      61.416   7.176  34.934  1.00  0.00     0.017 C
HETATM   12  C20 UNL     1      61.084   8.102  37.647  1.00  0.00    -0.043 C
HETATM   13  C21 UNL     1      60.165   8.644  38.708  1.00  0.00     0.015 C
HETATM   14  C23 UNL     1      60.976   9.024  36.447  1.00  0.00     0.021 C
ENDBRANCH   2   4
ENDBRANCH   1   2
BRANCH   1  15
HETATM   15  C3  UNL     1      61.464  11.841  34.992  1.00  0.00     0.120 C
HETATM   16  N1  UNL     1      60.631  12.248  35.927  1.00  0.00    -0.383 N
ATOM     17  H12 UNL     1      59.790  11.696  36.097  1.00  0.00     0.158 HD
ATOM     18  H11 UNL     1      60.900  13.105  36.411  1.00  0.00     0.158 HD
BRANCH  15  19
HETATM   19  C4  UNL     1      62.698  12.651  34.743  1.00  0.00     0.025 C
HETATM   20  C5  UNL     1      62.793  13.152  33.356  1.00  0.00     0.022 C
HETATM   21  C6  UNL     1      64.054  13.991  33.240  1.00  0.00    -0.013 C
HETATM   22  C7  UNL     1      63.988  15.193  34.127  1.00  0.00     0.009 C
HETATM   23  C11 UNL     1      65.252  13.162  33.570  1.00  0.00     0.009 C
HETATM   24  C8  UNL     1      63.873  14.717  35.569  1.00  0.00    -0.013 C
HETATM   25  C9  UNL     1      65.093  13.891  35.914  1.00  0.00     0.009 C
HETATM   26  C13 UNL     1      62.651  13.868  35.668  1.00  0.00     0.022 C
HETATM   27  C10 UNL     1      65.143  12.698  35.012  1.00  0.00    -0.013 C
HETATM   28  C12 UNL     1      63.918  11.862  35.178  1.00  0.00     0.022 C
ENDBRANCH  15  19
ENDBRANCH   1  15
TORSDOF 4
ENDMDL