MODEL 3
REMARK VINA RESULT: -7.601951237      2.593      7.369
REMARK  5 active torsions:
REMARK  status: ('A' for Active; 'I' for Inactive)
REMARK    1  A    between atoms: C6_6  and  C7_7
REMARK    2  A    between atoms: C7_7  and  C8_8
REMARK    3  A    between atoms: C8_8  and  C9_9
REMARK    4  A    between atoms: C19_22  and  C20_23
REMARK    5  A    between atoms: C21_24  and  C22_25
ROOT
HETATM    1  C1  UNL     1      61.612   8.116  34.756  1.00  0.00     0.020 C
HETATM    2  C2  UNL     1      62.187   7.673  36.082  1.00  0.00    -0.016 C
HETATM    3  C3  UNL     1      63.064   6.524  35.957  1.00  0.00     0.014 C
HETATM    4  C4  UNL     1      64.243   6.504  36.921  1.00  0.00     0.002 C
HETATM    5  C5  UNL     1      65.111   7.679  36.868  1.00  0.00     0.017 C
HETATM    6  C6  UNL     1      64.285   8.965  36.404  1.00  0.00     0.061 C
HETATM    7  C15 UNL     1      62.923   8.808  36.828  1.00  0.00     0.013 C
HETATM    8  C16 UNL     1      61.896   9.852  36.690  1.00  0.00     0.011 C
HETATM    9  C17 UNL     1      60.639   9.075  37.137  1.00  0.00     0.035 C
HETATM   10  C18 UNL     1      61.065   7.606  37.053  1.00  0.00    -0.071 C
HETATM   11  C19 UNL     1      60.514   6.661  37.759  1.00  0.00     0.003 C
ENDROOT
BRANCH   6  12
HETATM   12  C7  UNL     1      65.010   9.796  35.870  1.00  0.00    -0.150 C
BRANCH  12  13
HETATM   13  C8  UNL     1      65.864  10.787  35.236  1.00  0.00     0.058 C
BRANCH  13  14
HETATM   14  C9  UNL     1      65.217  11.269  34.097  1.00  0.00    -0.053 C
HETATM   15  C10 UNL     1      64.632  11.733  33.059  1.00  0.00     0.000 C
HETATM   16  C11 UNL     1      63.053  11.621  33.026  1.00  0.00     0.150 C
HETATM   17  N1  UNL     1      62.571  12.227  34.253  1.00  0.00    -0.358 N
HETATM   18  C12 UNL     1      63.276  13.207  34.957  1.00  0.00     0.218 C
ATOM     19  H1  UNL     1      61.669  11.922  34.621  1.00  0.00     0.162 HD
HETATM   20  O1  UNL     1      62.776  13.657  36.004  1.00  0.00    -0.274 OA
HETATM   21  C13 UNL     1      64.591  13.773  34.575  1.00  0.00     0.107 C
HETATM   22  C14 UNL     1      65.695  12.897  34.916  1.00  0.00     0.048 C
ENDBRANCH  13  14
ENDBRANCH  12  13
ENDBRANCH   6  12
BRANCH  11  23
HETATM   23  C20 UNL     1      59.410   6.990  38.620  1.00  0.00    -0.003 C
HETATM   24  C21 UNL     1      59.552   7.591  39.792  1.00  0.00    -0.022 C
BRANCH  24  25
HETATM   25  C22 UNL     1      58.361   7.923  40.637  1.00  0.00     0.008 A
HETATM   26  C23 UNL     1      57.057   7.405  40.068  1.00  0.00     0.009 A
HETATM   27  C24 UNL     1      57.311   8.866  40.111  1.00  0.00     0.009 A
ENDBRANCH  24  25
ENDBRANCH  11  23
TORSDOF 5
ENDMDL