MODEL 1
REMARK VINA RESULT: -8.203819162      0.000      0.000
REMARK  4 active torsions:
REMARK  status: ('A' for Active; 'I' for Inactive)
REMARK    1  A    between atoms: N1_2  and  C2_5
REMARK    2  A    between atoms: C2_5  and  C3_6
REMARK    3  A    between atoms: C3_6  and  O1_8
REMARK    4  A    between atoms: O1_8  and  C5_9
ROOT
HETATM    1  C5  UNL     1      -4.572 -21.407   5.916  1.00  0.00     0.168 C
HETATM    2  C6  UNL     1      -5.474 -22.273   4.786  1.00  0.00     0.069 C
HETATM    3  C7  UNL     1      -4.782 -21.723   3.594  1.00  0.00    -0.081 C
HETATM    4  C8  UNL     1      -3.822 -22.048   2.840  1.00  0.00    -0.023 C
HETATM    5  C9  UNL     1      -3.240 -21.209   1.654  1.00  0.00     0.032 C
HETATM    6  C10 UNL     1      -2.059 -20.433   2.413  1.00  0.00    -0.005 C
HETATM    7  C11 UNL     1      -1.631 -19.109   2.197  1.00  0.00     0.045 C
HETATM    8  C12 UNL     1      -0.986 -18.713   3.568  1.00  0.00     0.093 C
HETATM    9  C13 UNL     1       0.408 -18.240   3.219  1.00  0.00     0.049 C
HETATM   10  C14 UNL     1      -1.699 -17.603   4.246  1.00  0.00     0.044 C
HETATM   11  C15 UNL     1      -3.073 -18.039   4.709  1.00  0.00     0.048 C
HETATM   12  C16 UNL     1      -2.939 -19.584   4.919  1.00  0.00     0.135 C
HETATM   13  C17 UNL     1      -2.837 -20.262   3.664  1.00  0.00     0.050 C
HETATM   14  O2  UNL     1      -1.759 -19.717   5.500  1.00  0.00    -0.225 OA
HETATM   15  O3  UNL     1      -0.865 -19.745   4.468  1.00  0.00    -0.229 OA
HETATM   16  C18 UNL     1      -4.256 -20.083   5.481  1.00  0.00     0.164 C
HETATM   17  F1  UNL     1      -4.398 -19.189   6.608  1.00  0.00    -0.237 F
HETATM   18  C19 UNL     1      -5.438 -19.604   4.618  1.00  0.00     0.054 C
HETATM   19  C20 UNL     1      -5.690 -20.459   3.405  1.00  0.00     0.037 C
ENDROOT
BRANCH   1  20
HETATM   20  O1  UNL     1      -5.427 -21.488   6.968  1.00  0.00    -0.376 OA
BRANCH  20  21
HETATM   21  C3  UNL     1      -5.019 -22.209   8.054  1.00  0.00     0.143 C
HETATM   22  C4  UNL     1      -6.143 -22.328   9.099  1.00  0.00     0.041 C
BRANCH  21  23
HETATM   23  C2  UNL     1      -3.883 -21.555   8.761  1.00  0.00     0.263 C
BRANCH  23  24
HETATM   24  N1  UNL     1      -2.703 -22.331   8.907  1.00  0.00    -0.077 N
HETATM   25  C1  UNL     1      -2.026 -22.057  10.148  1.00  0.00     0.267 C
ATOM     26  H12 UNL     1      -2.078 -22.208   8.110  1.00  0.00     0.276 HD
ATOM     27  H11 UNL     1      -2.900 -23.327   8.804  1.00  0.00     0.276 HD
ENDBRANCH  23  24
ENDBRANCH  21  23
ENDBRANCH  20  21
ENDBRANCH   1  20
TORSDOF 4
ENDMDL