MODEL 5
REMARK VINA RESULT: -6.432380871      6.244      9.161
REMARK  5 active torsions:
REMARK  status: ('A' for Active; 'I' for Inactive)
REMARK    1  A    between atoms: C2_2  and  C4_4
REMARK    2  A    between atoms: C4_4  and  C5_5
REMARK    3  A    between atoms: C5_5  and  C6_6
REMARK    4  A    between atoms: C11_14  and  O1_15
REMARK    5  A    between atoms: N3_19  and  C13_20
ROOT
HETATM    1  C6  UNL     1       4.756 -13.458   8.120  1.00  0.00     0.034 A
HETATM    2  N1  UNL     1       4.409 -12.247   7.660  1.00  0.00    -0.302 N
ATOM      3  H1  UNL     1       5.058 -11.581   7.242  1.00  0.00     0.186 HD
HETATM    4  N2  UNL     1       3.110 -12.030   7.821  1.00  0.00    -0.289 N
HETATM    5  C7  UNL     1       2.634 -13.108   8.385  1.00  0.00     0.099 A
HETATM    6  C8  UNL     1       3.607 -14.042   8.598  1.00  0.00    -0.004 A
HETATM    7  C9  UNL     1       3.183 -15.340   9.196  1.00  0.00     0.045 C
HETATM    8  C10 UNL     1       1.972 -15.749   8.393  1.00  0.00     0.042 C
HETATM    9  C11 UNL     1       0.884 -14.701   8.257  1.00  0.00     0.185 C
HETATM   10  C12 UNL     1       1.242 -13.389   8.837  1.00  0.00     0.245 C
HETATM   11  F1  UNL     1       1.387 -13.587  10.259  1.00  0.00    -0.209 F
HETATM   12  N3  UNL     1       0.422 -12.264   8.647  1.00  0.00    -0.365 N
HETATM   13  C19 UNL     1       1.061 -10.997   8.498  1.00  0.00     0.142 C
HETATM   14  C20 UNL     1       2.176 -10.939   7.492  1.00  0.00     0.168 C
ENDROOT
BRANCH  12  15
HETATM   15  C13 UNL     1      -0.800 -12.128   9.327  1.00  0.00     0.083 C
HETATM   16  C14 UNL     1      -2.020 -12.071   8.477  1.00  0.00     0.025 C
HETATM   17  C15 UNL     1      -3.312 -11.837   9.268  1.00  0.00     0.002 C
HETATM   18  C16 UNL     1      -3.202 -10.777  10.305  1.00  0.00     0.000 C
HETATM   19  C17 UNL     1      -2.067 -11.229  11.234  1.00  0.00     0.002 C
HETATM   20  C18 UNL     1      -0.810 -11.038  10.381  1.00  0.00     0.025 C
ENDBRANCH  12  15
BRANCH   9  21
HETATM   21  O1  UNL     1      -0.260 -15.307   8.792  1.00  0.00    -0.390 OA
ATOM     22  H1  UNL     1      -0.054 -15.438   9.710  1.00  0.00     0.210 HD
ENDBRANCH   9  21
BRANCH   1  23
HETATM   23  C5  UNL     1       6.079 -14.148   8.181  1.00  0.00     0.059 C
BRANCH  23  24
HETATM   24  C4  UNL     1       7.057 -13.144   7.571  1.00  0.00     0.010 C
BRANCH  24  25
HETATM   25  C2  UNL     1       7.977 -13.751   6.561  1.00  0.00    -0.023 C
HETATM   26  C1  UNL     1       9.401 -13.282   6.790  1.00  0.00     0.009 C
HETATM   27  C3  UNL     1       7.519 -13.266   5.183  1.00  0.00     0.009 C
ENDBRANCH  24  25
ENDBRANCH  23  24
ENDBRANCH   1  23
TORSDOF 5
ENDMDL