MODEL 1
REMARK VINA RESULT: -6.716136060      0.000      0.000
REMARK  4 active torsions:
REMARK  status: ('A' for Active; 'I' for Inactive)
REMARK    1  A    between atoms: C9_9  and  C10_10
REMARK    2  A    between atoms: C10_10  and  N1_11
REMARK    3  A    between atoms: N1_11  and  C11_14
REMARK    4  A    between atoms: C11_14  and  C12_15
ROOT
HETATM    1  C1  UNL     1       0.892 -16.342   9.445  1.00  0.00     0.021 C
HETATM    2  C2  UNL     1       0.692 -14.843   9.718  1.00  0.00     0.001 A
HETATM    3  C3  UNL     1       0.453 -14.631  11.176  1.00  0.00     0.015 C
HETATM    4  C4  UNL     1      -0.873 -14.145  11.596  1.00  0.00     0.002 C
HETATM    5  C5  UNL     1      -1.899 -14.081  10.502  1.00  0.00     0.011 C
HETATM    6  C6  UNL     1      -1.260 -13.304   9.385  1.00  0.00    -0.024 A
HETATM    7  C7  UNL     1      -1.199 -11.843   9.372  1.00  0.00     0.011 A
HETATM    8  C8  UNL     1      -2.177 -12.580   8.476  1.00  0.00     0.011 A
HETATM    9  C9  UNL     1      -0.184 -14.171   8.773  1.00  0.00     0.046 A
HETATM   10  C16 UNL     1       0.994 -13.467   8.271  1.00  0.00     0.028 A
HETATM   11  N3  UNL     1       1.491 -12.554   7.391  1.00  0.00    -0.366 N
ATOM     12  H3  UNL     1       0.869 -12.082   6.734  1.00  0.00     0.165 HD
HETATM   13  C17 UNL     1       2.779 -12.284   7.393  1.00  0.00     0.112 A
HETATM   14  C18 UNL     1       3.658 -12.897   8.259  1.00  0.00     0.050 A
HETATM   15 CL1  UNL     1       5.377 -12.541   8.266  1.00  0.00    -0.083 Cl
HETATM   16  C19 UNL     1       3.191 -13.822   9.159  1.00  0.00     0.035 A
HETATM   17  C20 UNL     1       1.818 -14.098   9.145  1.00  0.00    -0.024 A
ENDROOT
BRANCH   9  18
HETATM   18  C10 UNL     1      -0.856 -15.096   7.775  1.00  0.00     0.250 C
BRANCH  18  19
HETATM   19  N1  UNL     1      -0.369 -15.026   6.453  1.00  0.00    -0.071 N
ATOM     20  H12 UNL     1      -0.498 -14.094   6.060  1.00  0.00     0.277 HD
ATOM     21  H11 UNL     1       0.650 -15.071   6.431  1.00  0.00     0.277 HD
BRANCH  19  22
HETATM   22  C11 UNL     1      -0.948 -16.026   5.613  1.00  0.00     0.266 C
BRANCH  22  23
HETATM   23  C12 UNL     1      -0.619 -17.444   5.864  1.00  0.00     0.178 C
HETATM   24  C13 UNL     1      -1.716 -18.353   5.269  1.00  0.00     0.041 C
HETATM   25  C14 UNL     1      -1.648 -18.247   3.761  1.00  0.00     0.049 C
HETATM   26  C15 UNL     1      -0.280 -18.544   3.285  1.00  0.00     0.087 C
HETATM   27  N2  UNL     1       0.715 -18.385   4.047  1.00  0.00    -0.281 N
HETATM   28  O1  UNL     1       0.562 -17.939   5.321  1.00  0.00    -0.274 OA
ATOM     29  H2  UNL     1       1.651 -18.595   3.699  1.00  0.00     0.193 HD
ENDBRANCH  22  23
ENDBRANCH  19  22
ENDBRANCH  18  19
ENDBRANCH   9  18
TORSDOF 4
ENDMDL