MODEL 3
REMARK VINA RESULT: -5.951483618      8.165     10.386
REMARK  5 active torsions:
REMARK  status: ('A' for Active; 'I' for Inactive)
REMARK    1  A    between atoms: C2_2  and  O1_4
REMARK    2  A    between atoms: O1_4  and  C4_5
REMARK    3  A    between atoms: C6_7  and  O2_9
REMARK    4  A    between atoms: C8_11  and  C9_12
REMARK       I    between atoms: N1_13  and  C10_15
REMARK    5  A    between atoms: C10_15  and  C11_17
ROOT
HETATM    1  C4  UNL     1      -3.602 -20.520  10.759  1.00  0.00     0.129 C
HETATM    2  C5  UNL     1      -4.781 -21.184   9.996  1.00  0.00     0.070 C
HETATM    3  C6  UNL     1      -4.335 -21.195   8.555  1.00  0.00     0.065 C
HETATM    4  C7  UNL     1      -3.176 -22.140   8.440  1.00  0.00     0.046 C
HETATM    5  C8  UNL     1      -4.076 -19.831   7.994  1.00  0.00     0.064 C
HETATM    6  C14 UNL     1      -3.553 -18.827   8.937  1.00  0.00     0.023 C
HETATM    7  C15 UNL     1      -2.049 -18.604   8.867  1.00  0.00     0.091 C
HETATM    8 CL1  UNL     1      -1.598 -17.751   7.370  1.00  0.00    -0.124 Cl
HETATM    9  C16 UNL     1      -1.875 -17.597  10.012  1.00  0.00     0.001 C
HETATM   10  C17 UNL     1      -0.429 -17.479  10.408  1.00  0.00     0.011 C
HETATM   11  C18 UNL     1      -2.717 -18.238  11.095  1.00  0.00     0.013 C
HETATM   12  C19 UNL     1      -3.790 -19.048  10.375  1.00  0.00     0.021 C
ENDROOT
BRANCH   5  13
HETATM   13  C9  UNL     1      -3.244 -20.007   6.773  1.00  0.00     0.072 C
HETATM   14  N1  UNL     1      -3.742 -20.338   5.629  1.00  0.00    -0.340 N
HETATM   15  C10 UNL     1      -2.959 -20.507   4.468  1.00  0.00     0.224 C
ATOM     16  H1  UNL     1      -4.749 -20.485   5.562  1.00  0.00     0.167 HD
HETATM   17  O3  UNL     1      -1.697 -20.425   4.557  1.00  0.00    -0.273 OA
BRANCH  15  18
HETATM   18  C11 UNL     1      -3.604 -20.773   3.185  1.00  0.00     0.070 C
HETATM   19  C12 UNL     1      -2.636 -20.781   2.023  1.00  0.00     0.019 C
HETATM   20  C13 UNL     1      -4.319 -22.114   3.212  1.00  0.00     0.019 C
ENDBRANCH  15  18
ENDBRANCH   5  13
BRANCH   3  21
HETATM   21  O2  UNL     1      -5.396 -21.790   7.831  1.00  0.00    -0.389 OA
ATOM     22  H2  UNL     1      -5.095 -21.843   6.932  1.00  0.00     0.210 HD
ENDBRANCH   3  21
BRANCH   1  23
HETATM   23  O1  UNL     1      -3.454 -20.819  11.952  1.00  0.00    -0.381 OA
BRANCH  23  24
HETATM   24  C2  UNL     1      -3.305 -21.121  13.146  1.00  0.00     0.113 C
HETATM   25  C1  UNL     1      -3.680 -20.037  14.205  1.00  0.00     0.039 C
HETATM   26  C3  UNL     1      -4.303 -22.260  13.521  1.00  0.00     0.039 C
ENDBRANCH  23  24
ENDBRANCH   1  23
TORSDOF 5
ENDMDL