MODEL 3
REMARK VINA RESULT: -6.343487048      2.580      4.625
REMARK  4 active torsions:
REMARK  status: ('A' for Active; 'I' for Inactive)
REMARK    1  A    between atoms: N3_18  and  C14_19
REMARK    2  A    between atoms: C14_19  and  C15_20
REMARK    3  A    between atoms: C15_20  and  C16_21
REMARK    4  A    between atoms: C16_21  and  N4_22
ROOT
HETATM    1  C1  UNL     1      -1.674 -17.834  11.637  1.00  0.00     0.049 C
HETATM    2  C2  UNL     1      -1.502 -17.611  10.192  1.00  0.00    -0.038 A
HETATM    3  C3  UNL     1      -2.138 -18.456   9.295  1.00  0.00     0.033 A
HETATM    4  C4  UNL     1      -2.023 -18.263   7.939  1.00  0.00     0.114 A
HETATM    5  N1  UNL     1      -1.294 -17.260   7.433  1.00  0.00    -0.345 N
ATOM      6  H1  UNL     1      -1.217 -17.130   6.424  1.00  0.00     0.167 HD
HETATM    7  C5  UNL     1      -0.662 -16.424   8.286  1.00  0.00     0.022 A
HETATM    8  C6  UNL     1      -0.742 -16.566   9.640  1.00  0.00    -0.002 A
HETATM    9  C7  UNL     1      -0.047 -15.665  10.553  1.00  0.00     0.049 C
HETATM   10  C8  UNL     1      -1.028 -14.683  11.228  1.00  0.00     0.043 C
HETATM   11  C9  UNL     1       0.751 -16.422  11.641  1.00  0.00     0.043 C
HETATM   12  N2  UNL     1       0.927 -14.857   9.921  1.00  0.00    -0.401 N
ATOM     13  H2  UNL     1       1.377 -14.113  10.455  1.00  0.00     0.155 HD
HETATM   14  C10 UNL     1       1.286 -15.050   8.592  1.00  0.00     0.024 C
HETATM   15  C11 UNL     1       2.012 -13.826   8.052  1.00  0.00     0.038 C
HETATM   16  C12 UNL     1       2.248 -16.216   8.474  1.00  0.00     0.038 C
HETATM   17  C13 UNL     1       0.131 -15.312   7.666  1.00  0.00     0.087 C
HETATM   18  N3  UNL     1      -2.778 -19.253   7.261  1.00  0.00    -0.363 N
HETATM   19  C19 UNL     1      -3.029 -20.328   8.186  1.00  0.00     0.172 C
HETATM   20  C20 UNL     1      -2.989 -19.647   9.537  1.00  0.00     0.147 C
HETATM   21  C21 UNL     1      -4.394 -19.307   9.931  1.00  0.00     0.059 C
HETATM   22  F1  UNL     1      -2.396 -20.517  10.459  1.00  0.00    -0.236 F
ENDROOT
BRANCH  18  23
HETATM   23  C14 UNL     1      -3.236 -19.209   5.862  1.00  0.00     0.126 C
BRANCH  23  24
HETATM   24  C15 UNL     1      -2.055 -19.450   4.932  1.00  0.00     0.050 C
BRANCH  24  25
HETATM   25  C16 UNL     1      -1.772 -18.240   4.079  1.00  0.00     0.273 C
BRANCH  25  26
HETATM   26  N4  UNL     1      -0.894 -18.671   3.005  1.00  0.00     0.080 N
HETATM   27  C17 UNL     1      -0.972 -20.101   2.868  1.00  0.00     0.309 C
HETATM   28  C18 UNL     1       0.481 -18.329   3.353  1.00  0.00     0.309 C
ENDBRANCH  25  26
ENDBRANCH  24  25
ENDBRANCH  23  24
ENDBRANCH  18  23
TORSDOF 4
ENDMDL