MODEL 2
REMARK VINA RESULT: -7.118604283      2.291      6.006
REMARK  5 active torsions:
REMARK  status: ('A' for Active; 'I' for Inactive)
REMARK    1  A    between atoms: C2_2  and  N1_3
REMARK    2  A    between atoms: N1_3  and  C3_5
REMARK    3  A    between atoms: C7_12  and  N3_13
REMARK    4  A    between atoms: N5_21  and  C13_22
REMARK    5  A    between atoms: C13_22  and  C14_23
ROOT
HETATM    1  C3  UNL     1      -1.408 -17.894   4.751  1.00  0.00     0.686 A
HETATM    2  N2  UNL     1      -0.819 -16.822   5.287  1.00  0.00    -0.186 N
ATOM      3  H2  UNL     1      -0.357 -16.085   4.755  1.00  0.00     0.184 HD
HETATM    4  C4  UNL     1      -0.921 -16.853   6.632  1.00  0.00     0.116 A
HETATM    5  C5  UNL     1      -0.475 -15.976   7.597  1.00  0.00     0.068 A
HETATM    6 CL1  UNL     1       0.396 -14.523   7.217  1.00  0.00    -0.082 Cl
HETATM    7  C6  UNL     1      -0.749 -16.301   8.915  1.00  0.00     0.074 A
HETATM    8  C7  UNL     1      -1.438 -17.447   9.251  1.00  0.00     0.106 A
HETATM    9  N4  UNL     1      -1.831 -18.234   8.240  1.00  0.00    -0.326 N
ATOM     10  H4  UNL     1      -2.341 -19.083   8.485  1.00  0.00     0.169 HD
HETATM   11  C12 UNL     1      -1.615 -18.011   6.939  1.00  0.00     0.158 A
HETATM   12  N5  UNL     1      -1.904 -18.635   5.780  1.00  0.00    -0.144 N
ENDROOT
BRANCH  12  13
HETATM   13  C13 UNL     1      -2.614 -19.849   5.685  1.00  0.00     0.094 C
BRANCH  13  14
HETATM   14  C14 UNL     1      -4.067 -19.868   5.757  1.00  0.00     0.025 C
HETATM   15  C15 UNL     1      -4.511 -21.330   5.999  1.00  0.00     0.010 C
HETATM   16  C16 UNL     1      -5.984 -21.260   5.687  1.00  0.00     0.001 C
HETATM   17  C17 UNL     1      -6.045 -20.383   4.481  1.00  0.00     0.001 C
HETATM   18  C18 UNL     1      -4.686 -19.679   4.390  1.00  0.00     0.010 C
ENDBRANCH  13  14
ENDBRANCH  12  13
BRANCH   1  19
HETATM   19  N1  UNL     1      -1.539 -18.252   3.528  1.00  0.00    -0.226 N
ATOM     20  H1  UNL     1      -2.285 -17.823   2.980  1.00  0.00     0.177 HD
BRANCH  19  21
HETATM   21  C2  UNL     1      -0.699 -19.218   2.885  1.00  0.00     0.133 C
HETATM   22  C1  UNL     1      -1.487 -20.272   2.141  1.00  0.00     0.027 C
ENDBRANCH  19  21
ENDBRANCH   1  19
BRANCH   8  23
HETATM   23  N3  UNL     1      -1.725 -17.790  10.605  1.00  0.00    -0.367 N
HETATM   24  C8  UNL     1      -1.298 -17.083  11.795  1.00  0.00     0.124 C
HETATM   25  C9  UNL     1      -2.561 -17.071  12.620  1.00  0.00     0.021 C
HETATM   26  C10 UNL     1      -3.379 -18.255  12.152  1.00  0.00     0.021 C
HETATM   27  C11 UNL     1      -2.498 -18.911  11.077  1.00  0.00     0.124 C
ENDBRANCH   8  23
TORSDOF 5
ENDMDL