MODEL 2
REMARK VINA RESULT: -5.976802342      1.179      1.230
REMARK  5 active torsions:
REMARK  status: ('A' for Active; 'I' for Inactive)
REMARK    1  A    between atoms: C2_2  and  C3_3
REMARK    2  A    between atoms: C3_3  and  C4_4
REMARK    3  A    between atoms: C12_14  and  C13_15
REMARK    4  A    between atoms: C13_15  and  C14_16
REMARK    5  A    between atoms: C17_21  and  O4_22
ROOT
HETATM    1  C4  UNL     1       1.962 -13.249   8.192  1.00  0.00     0.021 C
HETATM    2  C5  UNL     1       1.464 -12.024   7.542  1.00  0.00     0.012 C
HETATM    3  C6  UNL     1       0.837 -10.985   8.431  1.00  0.00    -0.018 C
HETATM    4  C7  UNL     1      -0.696 -11.093   8.374  1.00  0.00     0.010 C
HETATM    5  C8  UNL     1       1.289 -10.992   9.848  1.00  0.00     0.007 C
HETATM    6  C9  UNL     1       1.451 -12.395  10.402  1.00  0.00     0.039 C
HETATM    7  C10 UNL     1       2.583 -12.997   9.549  1.00  0.00     0.073 C
HETATM    8  O1  UNL     1       3.547 -12.052   9.506  1.00  0.00    -0.349 OA
HETATM    9  C11 UNL     1       4.792 -12.367   9.044  1.00  0.00     0.267 C
HETATM   10  O2  UNL     1       4.954 -12.182   7.689  1.00  0.00    -0.355 OA
HETATM   11  C12 UNL     1       5.952 -13.013   7.222  1.00  0.00     0.133 C
HETATM   12  C15 UNL     1       6.181 -14.090   8.216  1.00  0.00     0.044 C
HETATM   13  C16 UNL     1       5.356 -13.682   9.423  1.00  0.00     0.072 C
HETATM   14  C17 UNL     1       4.383 -14.750   9.746  1.00  0.00     0.133 C
HETATM   15  C18 UNL     1       3.065 -14.196  10.258  1.00  0.00     0.046 C
HETATM   16  C19 UNL     1       3.365 -13.767  11.709  1.00  0.00     0.016 C
ENDROOT
BRANCH   1  17
HETATM   17  C3  UNL     1       0.984 -14.353   8.158  1.00  0.00     0.007 C
BRANCH  17  18
HETATM   18  C2  UNL     1       0.137 -14.303   6.918  1.00  0.00    -0.004 C
HETATM   19  C1  UNL     1      -0.623 -15.611   6.714  1.00  0.00     0.005 C
ENDBRANCH  17  18
ENDBRANCH   1  17
BRANCH  14  20
HETATM   20  O4  UNL     1       4.170 -15.676   8.707  1.00  0.00    -0.395 OA
ATOM     21  H4  UNL     1       3.399 -16.221   8.818  1.00  0.00     0.210 HD
ENDBRANCH  14  20
BRANCH  11  22
HETATM   22  C13 UNL     1       7.216 -12.311   6.867  1.00  0.00     0.128 C
BRANCH  22  23
HETATM   23  C14 UNL     1       8.114 -12.972   5.935  1.00  0.00     0.221 C
HETATM   24  O3  UNL     1       7.764 -13.299   4.819  1.00  0.00    -0.280 OA
HETATM   25 CL1  UNL     1       9.767 -13.328   6.398  1.00  0.00    -0.044 Cl
ENDBRANCH  22  23
ENDBRANCH  11  22
TORSDOF 5
ENDMDL