MODEL 3
REMARK VINA RESULT: -7.306884080      2.627      8.280
REMARK  4 active torsions:
REMARK  status: ('A' for Active; 'I' for Inactive)
REMARK    1  A    between atoms: C1_2  and  C2_3
REMARK       I    between atoms: C1_2  and  N1_11
REMARK    2  A    between atoms: C2_3  and  C3_4
REMARK    3  A    between atoms: C3_4  and  C4_5
REMARK    4  A    between atoms: N1_11  and  C10_13
ROOT
HETATM    1  O1  UNL     1      -3.085 -17.443   4.438  1.00  0.00    -0.273 OA
HETATM    2  C1  UNL     1      -2.598 -18.557   4.723  1.00  0.00     0.222 C
HETATM    3  N1  UNL     1      -1.792 -18.775   5.838  1.00  0.00    -0.326 N
ATOM      4  H1  UNL     1      -1.455 -19.729   5.966  1.00  0.00     0.169 HD
ENDROOT
BRANCH   3   5
HETATM    5  C10 UNL     1      -1.386 -17.839   6.813  1.00  0.00     0.055 A
HETATM    6  C11 UNL     1      -0.594 -16.746   6.595  1.00  0.00     0.070 A
HETATM    7  C12 UNL     1      -0.220 -15.846   7.597  1.00  0.00     0.107 A
HETATM    8  C13 UNL     1      -0.648 -16.035   8.879  1.00  0.00     0.106 A
HETATM    9  O3  UNL     1       0.555 -14.695   7.618  1.00  0.00    -0.323 OA
HETATM   10  C14 UNL     1      -1.445 -17.124   9.131  1.00  0.00     0.061 A
HETATM   11  O2  UNL     1      -0.144 -15.014   9.683  1.00  0.00    -0.323 OA
HETATM   12  C15 UNL     1      -1.811 -18.008   8.141  1.00  0.00     0.040 A
HETATM   13 BR1  UNL     1      -2.914 -19.500   8.532  1.00  0.00    -0.049 Br
HETATM   14  C16 UNL     1       0.951 -14.452   8.973  1.00  0.00     0.352 C
ENDBRANCH   3   5
BRANCH   2  15
HETATM   15  C2  UNL     1      -2.884 -19.748   3.827  1.00  0.00     0.103 C
BRANCH  15  16
HETATM   16  C3  UNL     1      -3.012 -20.954   4.720  1.00  0.00     0.014 C
BRANCH  16  17
HETATM   17  C4  UNL     1      -4.450 -21.458   4.564  1.00  0.00    -0.014 C
HETATM   18  C5  UNL     1      -5.287 -21.027   5.765  1.00  0.00     0.004 C
HETATM   19  C6  UNL     1      -6.615 -21.745   5.634  1.00  0.00     0.000 C
HETATM   20  C7  UNL     1      -7.321 -21.200   4.434  1.00  0.00     0.000 C
HETATM   21  C8  UNL     1      -6.469 -20.389   3.524  1.00  0.00     0.000 C
HETATM   22  C9  UNL     1      -5.089 -20.954   3.307  1.00  0.00     0.004 C
ENDBRANCH  16  17
ENDBRANCH  15  16
ENDBRANCH   2  15
TORSDOF 4
ENDMDL