MODEL 3
REMARK VINA RESULT: -5.879263146      5.188      8.078
REMARK  5 active torsions:
REMARK  status: ('A' for Active; 'I' for Inactive)
REMARK    1  A    between atoms: C2_2  and  C4_4
REMARK    2  A    between atoms: C4_4  and  N1_5
REMARK    3  A    between atoms: C4_4  and  C11_14
REMARK    4  A    between atoms: N1_5  and  C5_7
REMARK    5  A    between atoms: C5_7  and  C8_10
ROOT
HETATM    1  C11 UNL     1       3.771 -10.819   8.324  1.00  0.00     0.048 A
HETATM    2  C12 UNL     1       4.263  -9.932   7.423  1.00  0.00     0.104 A
HETATM    3  N2  UNL     1       5.330 -10.319   6.652  1.00  0.00    -0.354 N
ATOM      4  H2  UNL     1       5.713  -9.665   5.970  1.00  0.00     0.166 HD
HETATM    5  C13 UNL     1       5.880 -11.535   6.775  1.00  0.00     0.089 A
HETATM    6  N3  UNL     1       5.425 -12.420   7.644  1.00  0.00    -0.282 N
HETATM    7  C14 UNL     1       4.376 -12.052   8.407  1.00  0.00     0.262 A
HETATM    8  O1  UNL     1       3.921 -12.873   9.247  1.00  0.00    -0.267 OA
HETATM    9  C15 UNL     1       5.809 -13.742   8.030  1.00  0.00     0.074 C
HETATM   10  C16 UNL     1       6.900 -14.435   7.381  1.00  0.00     0.045 C
HETATM   11  C17 UNL     1       7.963 -13.647   6.700  1.00  0.00     0.006 C
HETATM   12  C18 UNL     1       7.323 -13.065   5.435  1.00  0.00     0.008 C
HETATM   13  C19 UNL     1       6.983 -11.650   5.824  1.00  0.00     0.077 C
ENDROOT
BRANCH   1  14
HETATM   14  C4  UNL     1       2.528 -10.514   9.141  1.00  0.00     0.121 C
BRANCH  14  15
HETATM   15  C2  UNL     1       2.455  -9.046   9.328  1.00  0.00     0.004 C
HETATM   16  C1  UNL     1       2.780  -8.680  10.804  1.00  0.00     0.012 C
HETATM   17  C3  UNL     1       1.241  -8.279   8.960  1.00  0.00     0.012 C
ENDBRANCH  14  15
BRANCH  14  18
HETATM   18  N1  UNL     1       1.461 -11.076   8.474  1.00  0.00    -0.403 N
ATOM     19  H1  UNL     1       1.560 -11.011   7.462  1.00  0.00     0.154 HD
BRANCH  18  20
HETATM   20  C5  UNL     1       0.304 -11.700   8.841  1.00  0.00     0.039 C
HETATM   21  C6  UNL     1       0.196 -11.861  10.397  1.00  0.00     0.039 C
HETATM   22  C7  UNL     1      -1.065 -11.121   8.532  1.00  0.00     0.039 C
BRANCH  20  23
HETATM   23  C8  UNL     1       0.344 -13.142   8.282  1.00  0.00     0.054 C
HETATM   24  C9  UNL     1       0.916 -14.135   9.238  1.00  0.00     0.035 C
HETATM   25  C10 UNL     1       0.996 -13.258   6.963  1.00  0.00     0.035 C
HETATM   26 CL1  UNL     1      -1.377 -13.667   8.043  1.00  0.00    -0.117 Cl
ENDBRANCH  20  23
ENDBRANCH  18  20
ENDBRANCH  14  18
ENDBRANCH   1  14
TORSDOF 5
ENDMDL