MODEL 2
REMARK VINA RESULT: -5.967985558      9.688     12.630
REMARK  5 active torsions:
REMARK  status: ('A' for Active; 'I' for Inactive)
REMARK    1  A    between atoms: C4_4  and  C5_5
REMARK    2  A    between atoms: N2_12  and  C11_13
REMARK    3  A    between atoms: N3_16  and  C14_17
REMARK    4  A    between atoms: C14_17  and  C16_19
REMARK    5  A    between atoms: C16_19  and  O1_20
ROOT
HETATM    1  C1  UNL     1       1.905  -8.181   9.087  1.00  0.00     0.049 C
HETATM    2  C2  UNL     1       2.357  -9.534   8.642  1.00  0.00    -0.044 A
HETATM    3  C3  UNL     1       1.555 -10.631   8.403  1.00  0.00     0.033 A
HETATM    4  C4  UNL     1       2.373 -11.670   8.014  1.00  0.00     0.016 A
HETATM    5  N2  UNL     1       3.654 -11.253   8.003  1.00  0.00    -0.354 N
HETATM    6  C19 UNL     1       3.631  -9.963   8.385  1.00  0.00     0.098 A
ENDROOT
BRANCH   5   7
HETATM    7  C11 UNL     1       4.801 -12.067   7.645  1.00  0.00     0.094 C
HETATM    8  C12 UNL     1       5.738 -11.193   6.859  1.00  0.00     0.056 C
HETATM    9  C13 UNL     1       7.044 -11.871   6.537  1.00  0.00     0.277 C
HETATM   10  N3  UNL     1       7.698 -12.147   7.810  1.00  0.00     0.113 N
HETATM   11  C17 UNL     1       6.889 -13.102   8.501  1.00  0.00     0.320 C
HETATM   12 CL1  UNL     1       6.676 -14.508   7.400  1.00  0.00    -0.092 Cl
HETATM   13  C18 UNL     1       5.518 -12.612   8.862  1.00  0.00     0.077 C
BRANCH  10  14
HETATM   14  C14 UNL     1       9.003 -12.711   7.604  1.00  0.00     0.244 C
HETATM   15  C15 UNL     1       9.943 -12.171   8.653  1.00  0.00     0.045 C
BRANCH  14  16
HETATM   16  C16 UNL     1       9.550 -12.450   6.216  1.00  0.00     0.199 C
BRANCH  16  17
HETATM   17  O1  UNL     1      10.854 -12.909   6.126  1.00  0.00    -0.399 OA
ATOM     18  H1  UNL     1      11.436 -12.192   5.907  1.00  0.00     0.209 HD
ENDBRANCH  16  17
ENDBRANCH  14  16
ENDBRANCH  10  14
ENDBRANCH   5   7
BRANCH   4  19
HETATM   19  C5  UNL     1       1.832 -13.011   7.675  1.00  0.00     0.039 C
HETATM   20  C6  UNL     1       1.960 -13.959   8.856  1.00  0.00     0.041 C
HETATM   21  C7  UNL     1       1.593 -15.331   8.297  1.00  0.00     0.272 C
HETATM   22  N1  UNL     1       0.235 -15.364   7.858  1.00  0.00     0.084 N
HETATM   23  C8  UNL     1       0.022 -16.617   7.155  1.00  0.00     0.309 C
HETATM   24  C9  UNL     1      -0.152 -14.299   6.997  1.00  0.00     0.272 C
HETATM   25  C10 UNL     1       0.317 -12.944   7.423  1.00  0.00     0.041 C
ENDBRANCH   4  19
TORSDOF 5
ENDMDL