MODEL 1
REMARK VINA RESULT: -4.413916385      0.000      0.000
REMARK  3 active torsions:
REMARK  status: ('A' for Active; 'I' for Inactive)
REMARK    1  A    between atoms: O1_1  and  C1_3
REMARK    2  A    between atoms: C2_5  and  N1_6
REMARK    3  A    between atoms: C6_12  and  O3_13
ROOT
HETATM    1  C1  UNL     1     -80.481  86.166  90.985  1.00  0.00     0.292 C
HETATM    2  O2  UNL     1     -79.267  86.773  91.385  1.00  0.00    -0.331 OA
HETATM    3  C2  UNL     1     -79.027  85.613  92.117  1.00  0.00     0.265 C
HETATM    4  C6  UNL     1     -80.524  85.567  92.397  1.00  0.00     0.222 C
ENDROOT
BRANCH   3   5
HETATM    5  N1  UNL     1     -78.199  85.782  93.277  1.00  0.00    -0.322 N
HETATM    6  C3  UNL     1     -78.083  86.825  94.128  1.00  0.00     0.111 A
HETATM    7  C4  UNL     1     -77.159  86.530  95.094  1.00  0.00     0.106 A
HETATM    8  N2  UNL     1     -76.710  85.296  94.825  1.00  0.00    -0.361 N
HETATM    9  C5  UNL     1     -77.344  84.861  93.731  1.00  0.00     0.184 A
ATOM     10  H2  UNL     1     -76.010  84.782  95.359  1.00  0.00     0.166 HD
ENDBRANCH   3   5
BRANCH   4  11
HETATM   11  O3  UNL     1     -80.860  86.490  93.373  1.00  0.00    -0.386 OA
ATOM     12  H3  UNL     1     -81.223  87.293  93.019  1.00  0.00     0.210 HD
ENDBRANCH   4  11
BRANCH   1  13
HETATM   13  O1  UNL     1     -81.505  87.030  90.711  1.00  0.00    -0.368 OA
ATOM     14  H1  UNL     1     -82.229  86.659  90.220  1.00  0.00     0.212 HD
ENDBRANCH   1  13
TORSDOF 3
ENDMDL