MODEL 3
REMARK VINA RESULT: -4.371972956      2.248      2.489
REMARK  3 active torsions:
REMARK  status: ('A' for Active; 'I' for Inactive)
REMARK    1  A    between atoms: C1_4  and  C2_5
REMARK    2  A    between atoms: C4_11  and  O1_12
REMARK    3  A    between atoms: C5_14  and  O2_15
ROOT
HETATM    1  C2  UNL     1     -79.127  85.989  92.248  1.00  0.00     0.168 C
HETATM    2  N2  UNL     1     -79.412  86.847  93.354  1.00  0.00    -0.328 N
ATOM      3  H2  UNL     1     -80.322  87.300  93.431  1.00  0.00     0.180 HD
HETATM    4  N3  UNL     1     -78.549  87.035  94.217  1.00  0.00    -0.337 N
ATOM      5  H3  UNL     1     -78.731  87.644  95.015  1.00  0.00     0.179 HD
HETATM    6  C3  UNL     1     -77.290  86.379  94.067  1.00  0.00     0.173 C
HETATM    7  C4  UNL     1     -77.558  84.901  93.864  1.00  0.00     0.168 C
HETATM    8  C5  UNL     1     -78.520  84.682  92.712  1.00  0.00     0.177 C
ENDROOT
BRANCH   1   9
HETATM    9  C1  UNL     1     -80.389  85.738  91.524  1.00  0.00     0.082 C
HETATM   10  N1  UNL     1     -80.727  86.449  90.531  1.00  0.00    -0.409 N
ATOM     11  H12 UNL     1     -80.106  87.203  90.241  1.00  0.00     0.155 HD
ATOM     12  H11 UNL     1     -81.600  86.275  90.031  1.00  0.00     0.155 HD
ENDBRANCH   1   9
BRANCH   8  13
HETATM   13  O2  UNL     1     -77.786  84.157  91.651  1.00  0.00    -0.390 OA
ATOM     14  H2  UNL     1     -76.873  84.144  91.911  1.00  0.00     0.210 HD
ENDBRANCH   8  13
BRANCH   7  15
HETATM   15  O1  UNL     1     -76.381  84.224  93.637  1.00  0.00    -0.391 OA
ATOM     16  H1  UNL     1     -76.298  84.000  92.718  1.00  0.00     0.210 HD
ENDBRANCH   7  15
TORSDOF 3
ENDMDL