MODEL 5
REMARK VINA RESULT: -3.675270602      3.563      4.628
REMARK  4 active torsions:
REMARK  status: ('A' for Active; 'I' for Inactive)
REMARK    1  A    between atoms: N4_8  and  C3_9
REMARK    2  A    between atoms: C3_9  and  C4_10
REMARK    3  A    between atoms: C4_10  and  O1_11
REMARK    4  A    between atoms: N5_13  and  O2_14
ROOT
HETATM    1  N1  UNL     1     -82.636  87.173  96.261  1.00  0.00    -0.193 NA
HETATM    2  C1  UNL     1     -82.000  87.765  97.041  1.00  0.00     0.106 C
HETATM    3  C2  UNL     1     -81.214  88.510  98.019  1.00  0.00     0.332 C
HETATM    4  N2  UNL     1     -80.713  89.752  97.476  1.00  0.00    -0.286 N
ATOM      5  H2  UNL     1     -81.215  90.640  97.447  1.00  0.00     0.184 HD
HETATM    6  N3  UNL     1     -79.557  89.546  97.047  1.00  0.00    -0.230 N
ATOM      7  H3  UNL     1     -78.966  90.253  96.610  1.00  0.00     0.209 HD
HETATM    8  N4  UNL     1     -79.182  88.206  97.251  1.00  0.00    -0.211 N
HETATM    9  N5  UNL     1     -80.011  87.788  98.325  1.00  0.00    -0.050 NA
ENDROOT
BRANCH   9  10
HETATM   10  O2  UNL     1     -80.156  86.465  98.368  1.00  0.00    -0.290 OA
ATOM     11  H2  UNL     1     -79.924  86.070  99.200  1.00  0.00     0.239 HD
ENDBRANCH   9  10
BRANCH   8  12
HETATM   12  C3  UNL     1     -78.186  87.445  96.529  1.00  0.00     0.193 C
BRANCH  12  13
HETATM   13  C4  UNL     1     -78.425  87.650  95.047  1.00  0.00     0.187 C
BRANCH  13  14
HETATM   14  O1  UNL     1     -79.766  87.507  94.719  1.00  0.00    -0.399 OA
ATOM     15  H1  UNL     1     -80.195  88.348  94.621  1.00  0.00     0.209 HD
ENDBRANCH  13  14
ENDBRANCH  12  13
ENDBRANCH   8  12
TORSDOF 4
ENDMDL