MODEL 5
REMARK VINA RESULT: -3.647097852      7.404      8.478
REMARK  3 active torsions:
REMARK  status: ('A' for Active; 'I' for Inactive)
REMARK    1  A    between atoms: N2_6  and  N3_7
REMARK    2  A    between atoms: C4_10  and  N4_11
REMARK    3  A    between atoms: N4_11  and  O2_12
ROOT
HETATM    1  C1  UNL     1     -73.924  87.079  96.850  1.00  0.00     0.316 C
HETATM    2  N1  UNL     1     -72.567  87.251  96.424  1.00  0.00     0.144 N
HETATM    3  C2  UNL     1     -71.905  88.299  97.128  1.00  0.00     0.445 C
HETATM    4  O1  UNL     1     -70.527  88.238  97.095  1.00  0.00    -0.346 OA
HETATM    5  C3  UNL     1     -70.012  87.034  97.503  1.00  0.00     0.286 C
HETATM    6  N2  UNL     1     -70.963  85.951  97.504  1.00  0.00    -0.165 NA
HETATM    7  C4  UNL     1     -71.831  86.023  96.342  1.00  0.00     0.441 C
ENDROOT
BRANCH   6   8
HETATM    8  N3  UNL     1     -70.261  84.764  97.592  1.00  0.00    -0.358 NA
ATOM      9  H32 UNL     1     -69.930  84.559  98.534  1.00  0.00     0.171 HD
ATOM     10  H31 UNL     1     -70.861  84.016  97.245  1.00  0.00     0.171 HD
ENDBRANCH   6   8
BRANCH   7  11
HETATM   11  N4  UNL     1     -71.067  86.039  95.115  1.00  0.00    -0.049 NA
BRANCH  11  12
HETATM   12  O2  UNL     1     -71.321  84.890  94.464  1.00  0.00    -0.293 OA
ATOM     13  H2  UNL     1     -70.716  84.235  94.793  1.00  0.00     0.238 HD
ENDBRANCH  11  12
ENDBRANCH   7  11
TORSDOF 3
ENDMDL