MODEL 2
REMARK VINA RESULT: -4.363428627      2.690      3.588
REMARK  3 active torsions:
REMARK  status: ('A' for Active; 'I' for Inactive)
REMARK    1  A    between atoms: C4_6  and  N2_7
REMARK    2  A    between atoms: N2_7  and  O1_8
REMARK    3  A    between atoms: N3_10  and  O2_11
ROOT
HETATM    1  N1  UNL     1     -81.430  87.555  89.978  1.00  0.00    -0.190 NA
HETATM    2  C1  UNL     1     -80.754  86.973  90.716  1.00  0.00     0.120 C
HETATM    3  C2  UNL     1     -79.885  86.245  91.637  1.00  0.00     0.146 C
HETATM    4  C3  UNL     1     -79.086  86.876  92.453  1.00  0.00     0.091 C
HETATM    5  S1  UNL     1     -78.224  85.610  93.374  1.00  0.00    -0.092 SA
HETATM    6  C4  UNL     1     -78.628  84.277  92.154  1.00  0.00     0.301 C
HETATM    7  N3  UNL     1     -79.883  84.850  91.689  1.00  0.00    -0.217 N
ENDROOT
BRANCH   7   8
HETATM    8  O2  UNL     1     -80.920  83.995  91.355  1.00  0.00    -0.284 OA
ATOM      9  H2  UNL     1     -81.133  83.655  90.493  1.00  0.00     0.245 HD
ENDBRANCH   7   8
BRANCH   6  10
HETATM   10  N2  UNL     1     -77.605  84.339  91.148  1.00  0.00    -0.064 NA
BRANCH  10  11
HETATM   11  O1  UNL     1     -77.938  83.627  90.051  1.00  0.00    -0.293 OA
ATOM     12  H1  UNL     1     -77.483  83.938  89.278  1.00  0.00     0.238 HD
ENDBRANCH  10  11
ENDBRANCH   6  10
TORSDOF 3
ENDMDL