MODEL 5
REMARK VINA RESULT: -3.706148202      2.843      4.776
REMARK  5 active torsions:
REMARK  status: ('A' for Active; 'I' for Inactive)
REMARK    1  A    between atoms: C2_3  and  S1_4
REMARK    2  A    between atoms: S1_4  and  C3_5
REMARK    3  A    between atoms: C3_5  and  N2_7
REMARK    4  A    between atoms: N2_7  and  N3_9
REMARK    5  A    between atoms: N3_9  and  O1_10
ROOT
HETATM    1  N1  UNL     1     -80.914  87.312  90.351  1.00  0.00    -0.197 NA
HETATM    2  C1  UNL     1     -80.634  86.547  91.194  1.00  0.00     0.069 C
HETATM    3  C2  UNL     1     -80.296  85.601  92.251  1.00  0.00     0.205 C
ENDROOT
BRANCH   3   4
HETATM    4  S1  UNL     1     -78.538  85.610  92.638  1.00  0.00    -0.085 SA
BRANCH   4   5
HETATM    5  C3  UNL     1     -78.266  86.628  94.066  1.00  0.00     0.152 C
HETATM    6  S2  UNL     1     -76.857  86.426  94.877  1.00  0.00    -0.051 SA
BRANCH   5   7
HETATM    7  N2  UNL     1     -79.235  87.562  94.464  1.00  0.00    -0.263 N
ATOM      8  H2  UNL     1     -79.879  87.954  93.778  1.00  0.00     0.186 HD
BRANCH   7   9
HETATM    9  N3  UNL     1     -79.313  87.953  95.807  1.00  0.00     0.020 NA
BRANCH   9  10
HETATM   10  O1  UNL     1     -80.608  87.727  96.182  1.00  0.00    -0.277 OA
ATOM     11  H1  UNL     1     -81.142  88.206  95.559  1.00  0.00     0.240 HD
ENDBRANCH   9  10
ENDBRANCH   7   9
ENDBRANCH   5   7
ENDBRANCH   4   5
ENDBRANCH   3   4
TORSDOF 5
ENDMDL