MODEL 5
REMARK VINA RESULT: -4.319220524      2.934      3.231
REMARK  1 active torsions:
REMARK  status: ('A' for Active; 'I' for Inactive)
REMARK       I    between atoms: C1_2  and  N2_5
REMARK    1  A    between atoms: N2_5  and  N3_7
ROOT
HETATM    1  O1  UNL     1     -80.362  86.446  93.022  1.00  0.00    -0.228 OA
HETATM    2  C1  UNL     1     -79.339  86.772  93.726  1.00  0.00     0.421 C
HETATM    3  N1  UNL     1     -79.185  87.734  94.657  1.00  0.00    -0.300 NA
HETATM    4  S1  UNL     1     -78.996  88.908  95.792  1.00  0.00     0.149 SA
HETATM    5  N2  UNL     1     -78.198  85.900  93.396  1.00  0.00    -0.218 N
ATOM      6  H2  UNL     1     -77.303  86.033  93.868  1.00  0.00     0.194 HD
ENDROOT
BRANCH   5   7
HETATM    7  N3  UNL     1     -78.334  84.903  92.451  1.00  0.00    -0.172 N
HETATM    8  C2  UNL     1     -77.913  84.916  91.168  1.00  0.00     0.238 A
HETATM    9  N4  UNL     1     -78.207  83.759  90.566  1.00  0.00    -0.279 N
HETATM   10  N5  UNL     1     -78.817  83.007  91.480  1.00  0.00    -0.006 NA
ATOM     11  H4  UNL     1     -78.004  83.503  89.600  1.00  0.00     0.184 HD
HETATM   12  N6  UNL     1     -78.885  83.709  92.604  1.00  0.00     0.015 NA
ENDBRANCH   5   7
TORSDOF 0
ENDMDL