MODEL 3
REMARK VINA RESULT: -4.329561190      1.785      4.465
REMARK  1 active torsions:
REMARK  status: ('A' for Active; 'I' for Inactive)
REMARK    1  A    between atoms: N1_3  and  C3_4
ROOT
HETATM    1  C3  UNL     1     -78.594  86.080  93.304  1.00  0.00     0.346 C
HETATM    2  N2  UNL     1     -78.305  84.735  92.913  1.00  0.00    -0.092 NA
HETATM    3  N3  UNL     1     -78.916  84.401  91.733  1.00  0.00    -0.334 N
ATOM      4  H3  UNL     1     -78.682  83.543  91.233  1.00  0.00     0.175 HD
HETATM    5  C4  UNL     1     -79.887  85.305  91.243  1.00  0.00     0.161 C
HETATM    6  C5  UNL     1     -80.561  86.162  92.246  1.00  0.00     0.192 C
HETATM    7  O1  UNL     1     -79.974  86.168  93.498  1.00  0.00    -0.349 OA
ENDROOT
BRANCH   1   8
HETATM    8  N1  UNL     1     -77.832  86.533  94.427  1.00  0.00    -0.310 N
HETATM    9  C2  UNL     1     -78.064  87.514  95.316  1.00  0.00     0.113 A
HETATM   10  C1  UNL     1     -77.020  87.568  96.234  1.00  0.00     0.106 A
HETATM   11  N4  UNL     1     -76.175  86.615  95.877  1.00  0.00    -0.361 N
HETATM   12  C6  UNL     1     -76.653  85.989  94.798  1.00  0.00     0.186 A
ATOM     13  H4  UNL     1     -75.299  86.392  96.350  1.00  0.00     0.166 HD
ENDBRANCH   1   8
TORSDOF 1
ENDMDL