MODEL 5
REMARK VINA RESULT: -6.396455720      3.647      4.587
REMARK  3 active torsions:
REMARK  status: ('A' for Active; 'I' for Inactive)
REMARK    1  A    between atoms: N1_1  and  C1_4
REMARK    2  A    between atoms: N4_13  and  C4_14
REMARK    3  A    between atoms: C8_18  and  S1_19
ROOT
HETATM    1  C1  UNL     1      18.733  -3.526   7.358  1.00  0.00     0.686 A
HETATM    2  N2  UNL     1      19.391  -4.694   7.183  1.00  0.00    -0.141 N
ATOM      3  H2  UNL     1      19.787  -5.187   7.984  1.00  0.00     0.189 HD
HETATM    4  C2  UNL     1      19.518  -5.203   5.940  1.00  0.00     0.342 A
HETATM    5  O1  UNL     1      20.128  -6.287   5.776  1.00  0.00    -0.246 OA
HETATM    6  N3  UNL     1      18.979  -4.517   4.913  1.00  0.00    -0.259 N
ATOM      7  H3  UNL     1      19.065  -4.886   3.965  1.00  0.00     0.175 HD
HETATM    8  C3  UNL     1      18.333  -3.363   5.110  1.00  0.00     0.345 A
HETATM    9  O2  UNL     1      17.860  -2.787   4.096  1.00  0.00    -0.246 OA
HETATM   10  N4  UNL     1      18.195  -2.833   6.368  1.00  0.00    -0.128 N
ENDROOT
BRANCH  10  11
HETATM   11  C4  UNL     1      17.485  -1.602   6.422  1.00  0.00     0.118 C
HETATM   12  C5  UNL     1      16.133  -1.881   7.051  1.00  0.00     0.027 C
HETATM   13  C6  UNL     1      15.859  -1.082   8.282  1.00  0.00     0.004 C
HETATM   14  C7  UNL     1      15.285   0.284   7.908  1.00  0.00     0.022 C
HETATM   15  C8  UNL     1      16.456   1.207   7.779  1.00  0.00     0.131 C
HETATM   16  C9  UNL     1      17.261   0.807   6.585  1.00  0.00     0.258 C
HETATM   17  F1  UNL     1      16.468   0.513   5.492  1.00  0.00    -0.205 F
HETATM   18  F2  UNL     1      18.038   1.890   6.224  1.00  0.00    -0.205 F
HETATM   19  C10 UNL     1      18.151  -0.404   6.942  1.00  0.00     0.106 C
BRANCH  15  20
HETATM   20  S1  UNL     1      16.009   2.944   7.809  1.00  0.00    -0.074 SA
HETATM   21  S2  UNL     1      14.737   3.323   6.124  1.00  0.00    -0.013 SA
ENDBRANCH  15  20
ENDBRANCH  10  11
BRANCH   1  22
HETATM   22  N1  UNL     1      18.621  -3.062   8.531  1.00  0.00    -0.234 N
ATOM     23  H12 UNL     1      18.996  -3.618   9.299  1.00  0.00     0.174 HD
ATOM     24  H11 UNL     1      18.165  -2.159   8.657  1.00  0.00     0.174 HD
ENDBRANCH   1  22
TORSDOF 3
ENDMDL