MODEL 4
REMARK VINA RESULT: -7.888103524      3.245      4.644
REMARK  3 active torsions:
REMARK  status: ('A' for Active; 'I' for Inactive)
REMARK    1  A    between atoms: C4_5  and  C5_6
REMARK    2  A    between atoms: N2_7  and  C6_9
REMARK    3  A    between atoms: C10_17  and  N4_18
ROOT
HETATM    1  C1  UNL     1      17.000   0.387  12.411  1.00  0.00     0.156 C
HETATM    2  N1  UNL     1      17.279  -0.724  11.486  1.00  0.00    -0.352 N
HETATM    3  C2  UNL     1      17.059  -2.031  11.702  1.00  0.00     0.092 A
HETATM    4  C3  UNL     1      17.445  -2.773  10.609  1.00  0.00     0.033 A
HETATM    5  C4  UNL     1      17.930  -1.874   9.668  1.00  0.00     0.018 A
HETATM    6  C13 UNL     1      17.806  -0.635  10.254  1.00  0.00     0.127 A
HETATM    7  C14 UNL     1      18.192   0.607   9.627  1.00  0.00     0.118 C
HETATM    8  N7  UNL     1      18.513   1.598   9.128  1.00  0.00    -0.190 NA
ENDROOT
BRANCH   5   9
HETATM    9  C5  UNL     1      18.455  -2.205   8.342  1.00  0.00     0.104 C
HETATM   10  N2  UNL     1      17.813  -2.965   7.527  1.00  0.00    -0.349 N
ATOM     11  H2  UNL     1      16.914  -3.339   7.833  1.00  0.00     0.167 HD
BRANCH  10  12
HETATM   12  C6  UNL     1      18.264  -3.315   6.250  1.00  0.00     0.149 A
HETATM   13  C7  UNL     1      19.167  -4.288   5.876  1.00  0.00     0.180 A
HETATM   14  F1  UNL     1      19.805  -5.114   6.718  1.00  0.00    -0.201 F
HETATM   15  C8  UNL     1      19.311  -4.278   4.492  1.00  0.00     0.119 A
HETATM   16  C9  UNL     1      20.080  -5.038   3.608  1.00  0.00     0.276 A
HETATM   17  C11 UNL     1      18.474  -3.278   4.046  1.00  0.00     0.143 A
HETATM   18  O1  UNL     1      20.829  -5.940   4.064  1.00  0.00    -0.267 OA
HETATM   19  N3  UNL     1      19.971  -4.752   2.311  1.00  0.00    -0.155 N
HETATM   20  C10 UNL     1      19.166  -3.788   1.858  1.00  0.00     0.680 A
ATOM     21  H3  UNL     1      20.521  -5.289   1.641  1.00  0.00     0.187 HD
HETATM   22  N5  UNL     1      18.423  -3.057   2.729  1.00  0.00    -0.175 N
ATOM     23  H5  UNL     1      17.813  -2.323   2.370  1.00  0.00     0.186 HD
HETATM   24  N6  UNL     1      17.856  -2.713   5.114  1.00  0.00    -0.320 N
HETATM   25  C12 UNL     1      16.907  -1.631   5.028  1.00  0.00     0.159 C
BRANCH  20  26
HETATM   26  N4  UNL     1      19.049  -3.502   0.621  1.00  0.00    -0.234 N
ATOM     27  H42 UNL     1      19.409  -4.184  -0.046  1.00  0.00     0.174 HD
ATOM     28  H41 UNL     1      18.620  -2.640   0.286  1.00  0.00     0.174 HD
ENDBRANCH  20  26
ENDBRANCH  10  12
ENDBRANCH   5   9
TORSDOF 3
ENDMDL