MODEL 2
REMARK VINA RESULT: -8.684652728      0.985      1.046
REMARK  4 active torsions:
REMARK  status: ('A' for Active; 'I' for Inactive)
REMARK       I    between atoms: C2_2  and  N1_4
REMARK    1  A    between atoms: C4_6  and  O2_7
REMARK    2  A    between atoms: O2_7  and  C5_8
REMARK    3  A    between atoms: C6_11  and  N3_12
REMARK    4  A    between atoms: C9_20  and  C10_21
ROOT
HETATM    1  C10 UNL     1      17.969  -2.071   1.192  1.00  0.00     0.197 C
HETATM    2  F1  UNL     1      17.735  -1.160   2.194  1.00  0.00    -0.194 F
HETATM    3  C11 UNL     1      18.003  -1.568  -0.181  1.00  0.00     0.130 C
HETATM    4  N5  UNL     1      18.051  -1.176  -1.266  1.00  0.00    -0.189 NA
ENDROOT
BRANCH   1   5
HETATM    5  C9  UNL     1      18.165  -3.348   1.386  1.00  0.00     0.074 C
HETATM    6  C8  UNL     1      18.665  -3.977   2.574  1.00  0.00     0.079 C
HETATM    7  C7  UNL     1      19.647  -4.949   2.348  1.00  0.00     0.273 C
HETATM    8  C12 UNL     1      18.143  -3.613   3.793  1.00  0.00     0.183 C
HETATM    9  N4  UNL     1      20.637  -5.225   3.213  1.00  0.00    -0.156 N
HETATM   10  O3  UNL     1      19.627  -5.606   1.298  1.00  0.00    -0.267 OA
HETATM   11  C6  UNL     1      20.646  -5.101   4.551  1.00  0.00     0.680 C
ATOM     12  H4  UNL     1      21.500  -5.577   2.797  1.00  0.00     0.187 HD
HETATM   13  N2  UNL     1      19.785  -4.481   5.327  1.00  0.00    -0.168 N
HETATM   14  C5  UNL     1      18.666  -3.712   5.080  1.00  0.00     0.198 C
ATOM     15  H2  UNL     1      19.985  -4.591   6.320  1.00  0.00     0.186 HD
HETATM   16  F2  UNL     1      16.897  -3.075   3.776  1.00  0.00    -0.200 F
BRANCH  11  17
HETATM   17  N3  UNL     1      21.632  -5.668   5.196  1.00  0.00    -0.234 N
ATOM     18  H32 UNL     1      21.941  -6.582   4.864  1.00  0.00     0.174 HD
ATOM     19  H31 UNL     1      21.986  -5.120   5.980  1.00  0.00     0.174 HD
ENDBRANCH  11  17
BRANCH  14  20
HETATM   20  O2  UNL     1      18.141  -3.093   6.140  1.00  0.00    -0.324 OA
BRANCH  20  21
HETATM   21  C4  UNL     1      18.050  -1.885   6.731  1.00  0.00     0.166 C
HETATM   22  C3  UNL     1      16.616  -1.383   6.847  1.00  0.00     0.160 C
HETATM   23  N1  UNL     1      16.671  -1.384   8.277  1.00  0.00    -0.347 N
HETATM   24  C2  UNL     1      15.764  -0.948   9.288  1.00  0.00     0.215 C
HETATM   25  C13 UNL     1      17.966  -1.993   8.233  1.00  0.00     0.160 C
HETATM   26  C1  UNL     1      14.441  -0.341   8.945  1.00  0.00     0.117 C
HETATM   27  O1  UNL     1      16.106  -1.084  10.491  1.00  0.00    -0.274 OA
ENDBRANCH  20  21
ENDBRANCH  14  20
ENDBRANCH   1   5
TORSDOF 4
ENDMDL