MODEL 2
REMARK VINA RESULT: -7.539602263      2.502      5.720
REMARK  2 active torsions:
REMARK  status: ('A' for Active; 'I' for Inactive)
REMARK    1  A    between atoms: O1_2  and  C2_3
REMARK    2  A    between atoms: C4_6  and  C5_7
ROOT
HETATM    1  C2  UNL     1      17.630  -2.743   2.872  1.00  0.00     0.128 A
HETATM    2  C3  UNL     1      17.005  -1.860   3.726  1.00  0.00     0.168 A
HETATM    3  F1  UNL     1      16.085  -1.037   3.188  1.00  0.00    -0.202 F
HETATM    4  C4  UNL     1      17.306  -1.812   5.067  1.00  0.00     0.093 A
HETATM    5  C6  UNL     1      18.260  -2.679   5.545  1.00  0.00     0.162 A
HETATM    6  F2  UNL     1      18.552  -2.621   6.885  1.00  0.00    -0.203 F
HETATM    7  C7  UNL     1      18.929  -3.597   4.725  1.00  0.00     0.110 A
HETATM    8  C8  UNL     1      18.579  -3.591   3.395  1.00  0.00     0.089 A
HETATM    9  S2  UNL     1      19.401  -4.751   2.281  1.00  0.00     0.007 SA
HETATM   10  N3  UNL     1      20.536  -5.671   3.255  1.00  0.00    -0.160 N
ATOM     11  H3  UNL     1      21.118  -6.391   2.827  1.00  0.00     0.193 HD
HETATM   12  C9  UNL     1      20.633  -5.402   4.626  1.00  0.00     0.682 A
HETATM   13  N4  UNL     1      21.485  -6.101   5.323  1.00  0.00    -0.234 N
ATOM     14  H41 UNL     1      21.555  -5.905   6.321  1.00  0.00     0.174 HD
ATOM     15  H42 UNL     1      22.026  -6.802   4.818  1.00  0.00     0.174 HD
HETATM   16  N5  UNL     1      19.887  -4.436   5.323  1.00  0.00    -0.187 N
ATOM     17  H5  UNL     1      20.050  -4.336   6.324  1.00  0.00     0.184 HD
ENDROOT
BRANCH   4  18
HETATM   18  C5  UNL     1      16.642  -0.877   6.005  1.00  0.00     0.152 C
HETATM   19  N1  UNL     1      16.948   0.399   5.977  1.00  0.00    -0.265 N
HETATM   20  S1  UNL     1      15.924   1.078   7.246  1.00  0.00     0.287 S
ATOM     21  H1  UNL     1      17.613   0.879   5.371  1.00  0.00     0.180 HD
HETATM   22  O2  UNL     1      14.555   1.420   6.627  1.00  0.00    -0.202 OA
HETATM   23  O3  UNL     1      15.684  -0.430   8.068  1.00  0.00    -0.153 OA
HETATM   24  N2  UNL     1      15.688  -1.222   6.949  1.00  0.00    -0.232 N
ATOM     25  H2  UNL     1      15.043  -2.002   6.821  1.00  0.00     0.197 HD
ENDBRANCH   4  18
BRANCH   1  26
HETATM   26  O1  UNL     1      17.316  -2.782   1.518  1.00  0.00    -0.351 OA
HETATM   27  C1  UNL     1      17.853  -1.849   0.596  1.00  0.00     0.210 C
ENDBRANCH   1  26
TORSDOF 2
ENDMDL