MODEL 1
REMARK VINA RESULT: -8.212680177      0.000      0.000
REMARK  3 active torsions:
REMARK  status: ('A' for Active; 'I' for Inactive)
REMARK    1  A    between atoms: C2_2  and  N1_4
REMARK    2  A    between atoms: C6_12  and  N4_13
REMARK    3  A    between atoms: C8_15  and  N5_16
ROOT
HETATM    1  N1  UNL     1      18.771  -3.997   3.911  1.00  0.00    -0.267 N
HETATM    2  C4  UNL     1      19.699  -4.952   4.247  1.00  0.00     0.333 A
HETATM    3  O1  UNL     1      20.199  -5.735   3.376  1.00  0.00    -0.246 OA
HETATM    4  N2  UNL     1      19.985  -4.947   5.530  1.00  0.00    -0.292 N
ATOM      5  H2  UNL     1      20.645  -5.568   6.000  1.00  0.00     0.172 HD
HETATM    6  C5  UNL     1      19.267  -3.994   6.107  1.00  0.00     0.140 A
HETATM    7  N3  UNL     1      19.151  -3.544   7.354  1.00  0.00    -0.324 N
ATOM      8  H3  UNL     1      19.715  -3.990   8.077  1.00  0.00     0.169 HD
HETATM    9  C6  UNL     1      18.342  -2.543   7.721  1.00  0.00     0.146 A
HETATM   10  C12 UNL     1      17.576  -1.928   6.770  1.00  0.00     0.186 A
HETATM   11  F2  UNL     1      16.745  -0.915   7.076  1.00  0.00    -0.200 F
HETATM   12  C13 UNL     1      17.670  -2.371   5.445  1.00  0.00     0.119 A
HETATM   13  N6  UNL     1      16.854  -1.699   4.505  1.00  0.00    -0.096 NA
HETATM   14  C14 UNL     1      18.499  -3.388   5.098  1.00  0.00     0.115 A
ENDROOT
BRANCH   9  15
HETATM   15  N4  UNL     1      18.284  -2.126   9.103  1.00  0.00    -0.359 N
HETATM   16  C7  UNL     1      17.136  -2.296   9.944  1.00  0.00     0.160 C
HETATM   17  C8  UNL     1      17.701  -2.135  11.327  1.00  0.00     0.242 C
HETATM   18  C9  UNL     1      18.877  -1.228  11.175  1.00  0.00     0.145 C
HETATM   19  C10 UNL     1      19.914  -1.579  12.220  1.00  0.00     0.056 C
HETATM   20  F1  UNL     1      18.552   0.109  11.327  1.00  0.00    -0.239 F
HETATM   21  C11 UNL     1      19.372  -1.494   9.785  1.00  0.00     0.170 C
BRANCH  17  22
HETATM   22  N5  UNL     1      18.135  -3.416  11.834  1.00  0.00    -0.070 N
ATOM     23  H53 UNL     1      17.837  -4.185  11.234  1.00  0.00     0.274 HD
ATOM     24  H52 UNL     1      19.143  -3.540  11.748  1.00  0.00     0.274 HD
ATOM     25  H51 UNL     1      17.815  -3.535  12.796  1.00  0.00     0.274 HD
ENDBRANCH  17  22
ENDBRANCH   9  15
BRANCH   1  26
HETATM   26  C2  UNL     1      18.238  -3.729   2.604  1.00  0.00    -0.008 C
HETATM   27  C1  UNL     1      19.230  -3.528   1.504  1.00  0.00     0.063 C
HETATM   28  C3  UNL     1      16.992  -4.488   2.237  1.00  0.00     0.063 C
ENDBRANCH   1  26
TORSDOF 3
ENDMDL