MODEL 4
REMARK VINA RESULT: -7.612485823      2.398      5.864
REMARK  4 active torsions:
REMARK  status: ('A' for Active; 'I' for Inactive)
REMARK    1  A    between atoms: C2_2  and  N1_4
REMARK    2  A    between atoms: N1_4  and  C4_6
REMARK    3  A    between atoms: C5_9  and  N3_10
REMARK    4  A    between atoms: C10_24  and  C11_25
ROOT
HETATM    1  C4  UNL     1      18.625  -3.625   5.057  1.00  0.00     0.681 A
HETATM    2  N2  UNL     1      17.743  -2.719   4.663  1.00  0.00    -0.175 N
ATOM      3  H2  UNL     1      17.413  -2.716   3.698  1.00  0.00     0.186 HD
HETATM    4  C5  UNL     1      17.267  -1.775   5.559  1.00  0.00     0.146 A
HETATM    5  C6  UNL     1      17.731  -1.840   6.821  1.00  0.00     0.131 A
HETATM    6  C7  UNL     1      18.676  -2.812   7.204  1.00  0.00     0.154 A
HETATM    7  N4  UNL     1      19.194  -2.875   8.442  1.00  0.00    -0.313 N
ATOM      8  H4  UNL     1      19.882  -3.586   8.690  1.00  0.00     0.170 HD
HETATM    9  C8  UNL     1      18.781  -1.986   9.324  1.00  0.00     0.236 A
HETATM   10  F1  UNL     1      19.280  -1.986  10.593  1.00  0.00    -0.182 F
HETATM   11  C9  UNL     1      17.852  -1.027   9.022  1.00  0.00     0.186 A
HETATM   12  N5  UNL     1      17.238  -0.115   9.771  1.00  0.00    -0.280 N
ATOM     13  H5  UNL     1      17.426   0.077  10.754  1.00  0.00     0.188 HD
HETATM   14  N6  UNL     1      16.369   0.481   9.046  1.00  0.00    -0.284 N
ATOM     15  H6  UNL     1      15.758   1.228   9.377  1.00  0.00     0.188 HD
HETATM   16  C10 UNL     1      16.366  -0.031   7.720  1.00  0.00     0.145 A
HETATM   17  N7  UNL     1      17.313  -0.951   7.762  1.00  0.00    -0.271 N
HETATM   18  N8  UNL     1      19.097  -3.686   6.288  1.00  0.00    -0.174 N
ATOM     19  H8  UNL     1      19.782  -4.399   6.539  1.00  0.00     0.186 HD
ENDROOT
BRANCH   1  20
HETATM   20  N1  UNL     1      19.007  -4.489   4.152  1.00  0.00    -0.222 N
ATOM     21  H1  UNL     1      18.711  -5.463   4.229  1.00  0.00     0.178 HD
BRANCH  20  22
HETATM   22  C2  UNL     1      19.837  -4.086   3.050  1.00  0.00     0.091 C
HETATM   23  C1  UNL     1      21.147  -4.879   3.182  1.00  0.00     0.032 C
HETATM   24  C3  UNL     1      19.277  -4.394   1.692  1.00  0.00     0.032 C
ENDBRANCH  20  22
ENDBRANCH   1  20
BRANCH   4  25
HETATM   25  N3  UNL     1      16.650  -0.896   4.987  1.00  0.00    -0.383 N
ATOM     26  H32 UNL     1      16.345   0.021   5.313  1.00  0.00     0.157 HD
ATOM     27  H31 UNL     1      16.603  -1.072   3.983  1.00  0.00     0.157 HD
ENDBRANCH   4  25
BRANCH  16  28
HETATM   28  C11 UNL     1      15.333   0.388   6.795  1.00  0.00     0.156 C
HETATM   29  C12 UNL     1      14.648   1.561   7.711  1.00  0.00     0.060 C
HETATM   30  C13 UNL     1      14.022  -0.400   6.774  1.00  0.00     0.060 C
HETATM   31  F2  UNL     1      15.539   1.290   5.814  1.00  0.00    -0.235 F
ENDBRANCH  16  28
TORSDOF 4
ENDMDL