MODEL 5
REMARK VINA RESULT: -7.259822435      2.429      4.134
REMARK  3 active torsions:
REMARK  status: ('A' for Active; 'I' for Inactive)
REMARK    1  A    between atoms: C2_2  and  N1_5
REMARK    2  A    between atoms: N1_5  and  C5_7
REMARK    3  A    between atoms: N4_16  and  C9_17
ROOT
HETATM    1  C5  UNL     1      18.065  -3.130   3.818  1.00  0.00     0.140 A
HETATM    2  C6  UNL     1      17.848  -2.539   2.616  1.00  0.00     0.158 A
HETATM    3  N2  UNL     1      18.258  -3.057   1.331  1.00  0.00    -0.092 NA
HETATM    4  C7  UNL     1      17.170  -1.313   2.492  1.00  0.00     0.277 A
HETATM    5  O1  UNL     1      17.002  -0.819   1.347  1.00  0.00    -0.266 OA
HETATM    6  N3  UNL     1      16.733  -0.726   3.606  1.00  0.00    -0.274 N
ATOM      7  H3  UNL     1      16.239   0.165   3.550  1.00  0.00     0.173 HD
HETATM    8  C8  UNL     1      16.941  -1.296   4.797  1.00  0.00     0.333 A
HETATM    9  O2  UNL     1      16.498  -0.685   5.823  1.00  0.00    -0.246 OA
HETATM   10  N4  UNL     1      17.587  -2.465   4.921  1.00  0.00    -0.256 N
ENDROOT
BRANCH  10  11
HETATM   11  C9  UNL     1      17.756  -2.983   6.271  1.00  0.00     0.239 C
HETATM   12  C10 UNL     1      18.945  -2.451   6.991  1.00  0.00     0.133 C
HETATM   13  C11 UNL     1      18.660  -1.802   8.318  1.00  0.00     0.249 C
HETATM   14  F1  UNL     1      18.289  -0.479   8.223  1.00  0.00    -0.206 F
HETATM   15  F2  UNL     1      19.869  -1.788   9.031  1.00  0.00    -0.206 F
HETATM   16  C12 UNL     1      17.685  -2.624   9.160  1.00  0.00     0.105 C
HETATM   17  C13 UNL     1      16.654  -3.280   8.252  1.00  0.00     0.176 C
HETATM   18  O3  UNL     1      16.625  -2.591   7.020  1.00  0.00    -0.366 OA
ENDBRANCH  10  11
BRANCH   1  19
HETATM   19  N1  UNL     1      18.729  -4.334   3.991  1.00  0.00    -0.366 N
ATOM     20  H1  UNL     1      18.067  -5.091   4.163  1.00  0.00     0.162 HD
BRANCH  19  21
HETATM   21  C2  UNL     1      20.059  -4.818   3.997  1.00  0.00     0.021 C
HETATM   22  C1  UNL     1      20.263  -5.700   2.688  1.00  0.00     0.037 C
HETATM   23  C3  UNL     1      21.161  -3.821   3.888  1.00  0.00     0.037 C
HETATM   24  C4  UNL     1      20.349  -5.809   5.090  1.00  0.00     0.037 C
ENDBRANCH  19  21
ENDBRANCH   1  19
TORSDOF 3
ENDMDL