MODEL 5
REMARK VINA RESULT: -7.072134430      1.577      1.810
REMARK  3 active torsions:
REMARK  status: ('A' for Active; 'I' for Inactive)
REMARK    1  A    between atoms: C5_11  and  C6_12
REMARK    2  A    between atoms: C6_12  and  C7_14
REMARK    3  A    between atoms: C12_23  and  O4_24
ROOT
HETATM    1  C6  UNL     1      16.421  -0.945   5.917  1.00  0.00     0.204 C
HETATM    2  O2  UNL     1      15.636  -1.562   6.664  1.00  0.00    -0.286 OA
ENDROOT
BRANCH   1   3
HETATM    3  C5  UNL     1      16.658   0.438   6.252  1.00  0.00     0.075 A
HETATM    4  C2  UNL     1      15.693   1.347   5.804  1.00  0.00     0.027 A
HETATM    5  C1  UNL     1      14.412   0.796   5.168  1.00  0.00     0.069 C
HETATM    6  N1  UNL     1      15.878   2.630   6.019  1.00  0.00    -0.312 N
HETATM    7  C3  UNL     1      16.993   3.041   6.670  1.00  0.00     0.325 A
ATOM      8  H1  UNL     1      15.189   3.311   5.698  1.00  0.00     0.170 HD
HETATM    9  O1  UNL     1      17.172   4.250   6.868  1.00  0.00    -0.247 OA
HETATM   10  N2  UNL     1      17.925   2.192   7.108  1.00  0.00    -0.298 N
HETATM   11  C4  UNL     1      17.777   0.878   6.913  1.00  0.00     0.120 A
ATOM     12  H2  UNL     1      18.750   2.547   7.591  1.00  0.00     0.171 HD
HETATM   13  S1  UNL     1      18.911  -0.147   7.559  1.00  0.00    -0.059 SA
ENDBRANCH   1   3
BRANCH   1  14
HETATM   14  C7  UNL     1      17.030  -1.625   4.768  1.00  0.00     0.108 A
HETATM   15  C8  UNL     1      16.903  -1.278   3.442  1.00  0.00     0.179 A
HETATM   16  F1  UNL     1      16.095  -0.265   3.078  1.00  0.00    -0.201 F
HETATM   17  C9  UNL     1      17.531  -2.013   2.435  1.00  0.00     0.223 A
HETATM   18  F2  UNL     1      17.415  -1.586   1.162  1.00  0.00    -0.197 F
HETATM   19  C10 UNL     1      18.293  -3.101   2.758  1.00  0.00     0.291 A
HETATM   20  O3  UNL     1      18.906  -3.772   1.849  1.00  0.00    -0.264 OA
HETATM   21  N3  UNL     1      18.439  -3.472   4.033  1.00  0.00    -0.296 N
HETATM   22  C11 UNL     1      19.163  -4.649   4.438  1.00  0.00     0.162 C
HETATM   23  C12 UNL     1      17.820  -2.750   5.022  1.00  0.00     0.162 A
BRANCH  23  24
HETATM   24  O4  UNL     1      17.968  -3.160   6.336  1.00  0.00    -0.345 OA
ATOM     25  H4  UNL     1      17.766  -2.537   7.025  1.00  0.00     0.219 HD
ENDBRANCH  23  24
ENDBRANCH   1  14
TORSDOF 3
ENDMDL