MODEL 2
REMARK VINA RESULT: -6.811558490      2.477      4.115
REMARK  7 active torsions:
REMARK  status: ('A' for Active; 'I' for Inactive)
REMARK    1  A    between atoms: C3_3  and  C4_4
REMARK    2  A    between atoms: C4_4  and  N1_6
REMARK    3  A    between atoms: C4_4  and  C6_10
REMARK    4  A    between atoms: C8_13  and  O1_14
REMARK    5  A    between atoms: C8_13  and  N2_16
REMARK       I    between atoms: N2_16  and  C9_17
REMARK    6  A    between atoms: C9_17  and  O3_19
REMARK    7  A    between atoms: O3_19  and  C10_20
ROOT
HETATM    1  C1  UNL     1      17.398  -1.236   1.658  1.00  0.00     0.112 C
HETATM    2  C2  UNL     1      16.823  -0.649   2.876  1.00  0.00    -0.108 C
HETATM    3  C3  UNL     1      16.345  -0.226   3.898  1.00  0.00    -0.066 C
ENDROOT
BRANCH   3   4
HETATM    4  C4  UNL     1      15.718   0.144   5.210  1.00  0.00     0.208 C
HETATM    5  C5  UNL     1      15.573   1.607   5.377  1.00  0.00     0.063 C
BRANCH   4   6
HETATM    6  N1  UNL     1      14.375  -0.474   5.214  1.00  0.00    -0.057 N
ATOM      7  H13 UNL     1      14.137  -0.931   4.335  1.00  0.00     0.276 HD
ATOM      8  H12 UNL     1      14.311  -1.300   5.807  1.00  0.00     0.276 HD
ATOM      9  H11 UNL     1      13.722   0.265   5.477  1.00  0.00     0.276 HD
ENDBRANCH   4   6
BRANCH   4  10
HETATM   10  C6  UNL     1      16.540  -0.556   6.301  1.00  0.00     0.186 C
HETATM   11  C7  UNL     1      15.527  -1.354   7.254  1.00  0.00     0.118 C
HETATM   12  S1  UNL     1      16.799  -2.453   7.980  1.00  0.00    -0.060 SA
HETATM   13  C8  UNL     1      17.960  -2.255   6.507  1.00  0.00     0.371 C
HETATM   14  O4  UNL     1      17.140  -1.599   5.674  1.00  0.00    -0.309 OA
BRANCH  13  15
HETATM   15  O1  UNL     1      18.955  -1.313   7.076  1.00  0.00    -0.329 OA
ATOM     16  H1  UNL     1      19.723  -1.548   6.569  1.00  0.00     0.217 HD
ENDBRANCH  13  15
BRANCH  13  17
HETATM   17  N2  UNL     1      18.508  -3.359   6.095  1.00  0.00    -0.312 NA
HETATM   18  C9  UNL     1      19.156  -4.662   5.615  1.00  0.00     0.444 C
HETATM   19  O2  UNL     1      19.691  -5.247   6.382  1.00  0.00    -0.221 OA
BRANCH  18  20
HETATM   20  O3  UNL     1      18.855  -4.628   4.256  1.00  0.00    -0.236 OA
BRANCH  20  21
HETATM   21  C10 UNL     1      19.910  -4.425   3.293  1.00  0.00     0.290 C
HETATM   22  C11 UNL     1      19.344  -4.259   1.887  1.00  0.00     0.105 C
HETATM   23  F1  UNL     1      20.743  -3.389   3.550  1.00  0.00    -0.193 F
HETATM   24 CL1  UNL     1      20.873  -5.951   3.448  1.00  0.00    -0.052 Cl
ENDBRANCH  20  21
ENDBRANCH  18  20
ENDBRANCH  13  17
ENDBRANCH   4  10
ENDBRANCH   3   4
TORSDOF 7
ENDMDL