MODEL 5
REMARK VINA RESULT: -8.839359477      2.134      3.628
REMARK  3 active torsions:
REMARK  status: ('A' for Active; 'I' for Inactive)
REMARK    1  A    between atoms: N1_1  and  C1_4
REMARK    2  A    between atoms: C8_19  and  O2_20
REMARK    3  A    between atoms: O2_20  and  C9_21
ROOT
HETATM    1  C1  UNL     1      17.482  -2.937   9.565  1.00  0.00     0.679 A
HETATM    2  N2  UNL     1      17.927  -3.512   8.444  1.00  0.00    -0.176 N
ATOM      3  H2  UNL     1      18.472  -4.373   8.503  1.00  0.00     0.186 HD
HETATM    4  C2  UNL     1      17.669  -2.977   7.248  1.00  0.00     0.142 A
HETATM    5  N3  UNL     1      18.116  -3.553   6.113  1.00  0.00    -0.325 N
ATOM      6  H3  UNL     1      18.663  -4.413   6.144  1.00  0.00     0.169 HD
HETATM    7  C3  UNL     1      17.821  -2.964   4.936  1.00  0.00     0.140 A
HETATM    8  C4  UNL     1      18.127  -3.298   3.624  1.00  0.00     0.012 A
HETATM    9  C5  UNL     1      17.591  -2.368   2.771  1.00  0.00     0.036 A
HETATM   10  N4  UNL     1      16.962  -1.471   3.586  1.00  0.00    -0.293 N
ATOM     11  H4  UNL     1      16.456  -0.645   3.266  1.00  0.00     0.187 HD
HETATM   12  N5  UNL     1      17.103  -1.831   4.851  1.00  0.00    -0.202 N
HETATM   13  C6  UNL     1      16.643  -1.233   5.967  1.00  0.00     0.286 A
HETATM   14  O1  UNL     1      15.974  -0.175   5.866  1.00  0.00    -0.265 OA
HETATM   15  C7  UNL     1      16.925  -1.808   7.192  1.00  0.00     0.130 A
HETATM   16  C8  UNL     1      16.455  -1.197   8.356  1.00  0.00     0.182 A
HETATM   17  N6  UNL     1      16.752  -1.790   9.514  1.00  0.00    -0.169 N
ATOM     18  H6  UNL     1      16.424  -1.372  10.384  1.00  0.00     0.186 HD
HETATM   19  C10 UNL     1      17.732  -2.429   1.296  1.00  0.00     0.059 C
HETATM   20  C11 UNL     1      18.766  -3.390   0.853  1.00  0.00     0.006 C
HETATM   21  C12 UNL     1      19.715  -3.863   1.931  1.00  0.00     0.005 C
HETATM   22  C13 UNL     1      18.903  -4.452   3.093  1.00  0.00     0.044 C
ENDROOT
BRANCH  16  23
HETATM   23  O2  UNL     1      15.727  -0.042   8.212  1.00  0.00    -0.272 OA
BRANCH  23  24
HETATM   24  C9  UNL     1      14.409   0.175   8.635  1.00  0.00     0.506 C
HETATM   25  F1  UNL     1      13.690  -0.984   8.320  1.00  0.00    -0.184 F
HETATM   26  F2  UNL     1      14.359   0.302  10.030  1.00  0.00    -0.184 F
ENDBRANCH  23  24
ENDBRANCH  16  23
BRANCH   1  27
HETATM   27  N1  UNL     1      17.751  -3.481  10.700  1.00  0.00    -0.234 N
ATOM     28  H12 UNL     1      18.094  -4.441  10.738  1.00  0.00     0.174 HD
ATOM     29  H11 UNL     1      17.618  -2.941  11.555  1.00  0.00     0.174 HD
ENDBRANCH   1  27
TORSDOF 3
ENDMDL