MODEL 2
REMARK VINA RESULT: -7.563191847      1.866      2.707
REMARK  8 active torsions:
REMARK  status: ('A' for Active; 'I' for Inactive)
REMARK    1  A    between atoms: C2_2  and  C3_3
REMARK    2  A    between atoms: C3_3  and  O1_4
REMARK    3  A    between atoms: C4_6  and  N1_7
REMARK    4  A    between atoms: C13_17  and  O3_18
REMARK    5  A    between atoms: C13_17  and  C14_20
REMARK    6  A    between atoms: C14_20  and  O4_21
REMARK    7  A    between atoms: C14_20  and  C15_23
REMARK    8  A    between atoms: C19_30  and  O7_31
ROOT
HETATM    1  C3  UNL     1      -2.232 -13.206  27.381  1.00  0.00     0.141 C
HETATM    2  C4  UNL     1      -1.023 -13.896  26.900  1.00  0.00     0.154 C
HETATM    3  C7  UNL     1      -1.488 -14.719  25.696  1.00  0.00     0.004 A
HETATM    4  C8  UNL     1      -1.146 -16.048  25.566  1.00  0.00     0.052 A
HETATM    5  C9  UNL     1      -1.582 -16.743  24.459  1.00  0.00     0.111 A
HETATM    6  C10 UNL     1      -2.346 -16.089  23.514  1.00  0.00     0.143 A
HETATM    7  C11 UNL     1      -2.700 -14.749  23.632  1.00  0.00     0.080 A
HETATM    8  C12 UNL     1      -2.254 -14.078  24.744  1.00  0.00     0.084 A
HETATM    9  O2  UNL     1      -2.531 -12.738  24.993  1.00  0.00    -0.307 OA
HETATM   10  C13 UNL     1      -2.872 -12.332  26.317  1.00  0.00     0.232 C
HETATM   11  O5  UNL     1      -2.762 -16.826  22.418  1.00  0.00    -0.190 OA
HETATM   12  O6  UNL     1      -2.631 -18.150  22.440  1.00  0.00    -0.173 OA
HETATM   13  C19 UNL     1      -1.371 -18.531  22.882  1.00  0.00     0.452 C
HETATM   14  O8  UNL     1      -1.291 -18.076  24.238  1.00  0.00    -0.292 OA
ENDROOT
BRANCH  10  15
HETATM   15  O3  UNL     1      -2.471 -11.010  26.513  1.00  0.00    -0.360 OA
ATOM     16  H3  UNL     1      -2.981 -10.634  27.221  1.00  0.00     0.213 HD
ENDBRANCH  10  15
BRANCH  10  17
HETATM   17  C14 UNL     1      -4.369 -12.415  26.432  1.00  0.00     0.224 C
BRANCH  17  18
HETATM   18  O4  UNL     1      -5.024 -12.015  25.291  1.00  0.00    -0.385 OA
ATOM     19  H4  UNL     1      -4.537 -12.194  24.496  1.00  0.00     0.210 HD
ENDBRANCH  17  18
BRANCH  17  20
HETATM   20  C15 UNL     1      -4.876 -11.704  27.671  1.00  0.00     0.016 A
HETATM   21  C16 UNL     1      -4.731 -10.381  27.985  1.00  0.00     0.018 A
HETATM   22  C17 UNL     1      -5.266  -9.963  29.145  1.00  0.00     0.008 A
HETATM   23  C18 UNL     1      -5.909 -10.896  29.911  1.00  0.00     0.050 A
HETATM   24  S1  UNL     1      -5.749 -12.323  28.995  1.00  0.00    -0.104 SA
ENDBRANCH  17  20
ENDBRANCH  10  17
BRANCH   1  25
HETATM   25  C2  UNL     1      -2.178 -12.405  28.630  1.00  0.00     0.042 C
HETATM   26  C1  UNL     1      -2.260 -13.252  29.859  1.00  0.00     0.008 C
ENDBRANCH   1  25
BRANCH   1  27
HETATM   27  O1  UNL     1      -3.169 -14.250  27.672  1.00  0.00    -0.382 OA
ATOM     28  H1  UNL     1      -2.989 -14.480  28.575  1.00  0.00     0.211 HD
ENDBRANCH   1  27
BRANCH   2  29
HETATM   29  N1  UNL     1       0.149 -13.206  26.589  1.00  0.00    -0.410 N
HETATM   30  C5  UNL     1       0.805 -12.414  27.566  1.00  0.00     0.143 C
HETATM   31  C6  UNL     1       1.141 -13.966  25.863  1.00  0.00     0.143 C
ENDBRANCH   2  29
BRANCH  13  32
HETATM   32  O7  UNL     1      -1.225 -19.914  22.824  1.00  0.00    -0.342 OA
HETATM   33  C20 UNL     1      -2.423 -20.446  22.395  1.00  0.00     0.207 C
ENDBRANCH  13  32
TORSDOF 8
ENDMDL