MODEL 3
REMARK VINA RESULT: -8.451412544      2.777      4.661
REMARK  8 active torsions:
REMARK  status: ('A' for Active; 'I' for Inactive)
REMARK    1  A    between atoms: O1_2  and  C2_3
REMARK    2  A    between atoms: C6_8  and  O3_9
REMARK    3  A    between atoms: C7_11  and  O4_12
REMARK    4  A    between atoms: C13_20  and  C14_21
REMARK    5  A    between atoms: C14_21  and  C15_22
REMARK    6  A    between atoms: C16_24  and  C17_25
REMARK    7  A    between atoms: C18_27  and  O8_28
REMARK    8  A    between atoms: C19_30  and  O9_31
ROOT
HETATM    1  C2  UNL     1      -7.300 -11.668  32.911  1.00  0.00     0.195 A
HETATM    2  O2  UNL     1      -6.665 -11.935  31.807  1.00  0.00    -0.286 OA
HETATM    3  C3  UNL     1      -5.494 -11.356  31.528  1.00  0.00     0.104 A
HETATM    4  C4  UNL     1      -4.867 -11.678  30.348  1.00  0.00     0.016 A
HETATM    5  C5  UNL     1      -3.665 -11.103  30.034  1.00  0.00     0.114 A
HETATM    6  C6  UNL     1      -3.113 -10.207  30.923  1.00  0.00     0.134 A
HETATM    7  C7  UNL     1      -3.723  -9.859  32.128  1.00  0.00     0.121 A
HETATM    8  C9  UNL     1      -4.932 -10.453  32.418  1.00  0.00     0.085 A
HETATM    9  C10 UNL     1      -5.596 -10.162  33.593  1.00  0.00     0.198 A
HETATM   10  O5  UNL     1      -5.139  -9.351  34.447  1.00  0.00    -0.287 OA
HETATM   11  C11 UNL     1      -6.811 -10.784  33.847  1.00  0.00     0.048 A
HETATM   12  C12 UNL     1      -7.543 -10.492  35.094  1.00  0.00     0.058 C
HETATM   13  O6  UNL     1      -3.227 -11.591  28.781  1.00  0.00    -0.342 OA
HETATM   14  C13 UNL     1      -3.859 -12.823  28.622  1.00  0.00     0.136 C
HETATM   15  C20 UNL     1      -5.211 -12.591  29.211  1.00  0.00     0.077 C
ENDROOT
BRANCH  14  16
HETATM   16  C14 UNL     1      -3.848 -13.407  27.264  1.00  0.00     0.067 C
BRANCH  16  17
HETATM   17  C15 UNL     1      -2.794 -14.409  26.970  1.00  0.00     0.155 C
HETATM   18  O7  UNL     1      -1.873 -13.786  26.092  1.00  0.00    -0.374 OA
HETATM   19  C16 UNL     1      -1.058 -14.827  25.639  1.00  0.00     0.166 C
HETATM   20  C18 UNL     1      -2.038 -15.888  25.253  1.00  0.00     0.179 C
HETATM   21  C19 UNL     1      -3.267 -15.554  26.088  1.00  0.00     0.178 C
BRANCH  19  22
HETATM   22  C17 UNL     1      -0.299 -14.300  24.468  1.00  0.00     0.145 C
HETATM   23  S1  UNL     1      -0.158 -12.899  24.325  1.00  0.00    -0.124 SA
ENDBRANCH  19  22
BRANCH  20  24
HETATM   24  O8  UNL     1      -1.568 -17.151  25.548  1.00  0.00    -0.390 OA
ATOM     25  H8  UNL     1      -2.268 -17.792  25.570  1.00  0.00     0.210 HD
ENDBRANCH  20  24
BRANCH  21  26
HETATM   26  O9  UNL     1      -4.290 -15.063  25.269  1.00  0.00    -0.390 OA
ATOM     27  H9  UNL     1      -4.352 -15.634  24.512  1.00  0.00     0.210 HD
ENDBRANCH  21  26
ENDBRANCH  16  17
ENDBRANCH  14  16
BRANCH   6  28
HETATM   28  O3  UNL     1      -1.891  -9.590  30.657  1.00  0.00    -0.356 OA
ATOM     29  H3  UNL     1      -1.710  -8.710  30.964  1.00  0.00     0.218 HD
ENDBRANCH   6  28
BRANCH   7  30
HETATM   30  O4  UNL     1      -3.115  -8.945  32.986  1.00  0.00    -0.352 OA
HETATM   31  C8  UNL     1      -1.968  -9.422  33.704  1.00  0.00     0.210 C
ENDBRANCH   7  30
BRANCH   1  32
HETATM   32  O1  UNL     1      -8.530 -12.270  33.212  1.00  0.00    -0.335 OA
HETATM   33  C1  UNL     1      -9.251 -12.799  32.115  1.00  0.00     0.212 C
ENDBRANCH   1  32
TORSDOF 8
ENDMDL