MODEL 2
REMARK VINA RESULT: -8.626628037      1.329      1.653
REMARK  9 active torsions:
REMARK  status: ('A' for Active; 'I' for Inactive)
REMARK    1  A    between atoms: O1_2  and  C2_3
REMARK    2  A    between atoms: C3_4  and  O2_5
REMARK    3  A    between atoms: O2_5  and  C4_6
REMARK    4  A    between atoms: C7_11  and  O5_12
REMARK    5  A    between atoms: C8_14  and  O6_15
REMARK    6  A    between atoms: C9_17  and  O7_18
REMARK    7  A    between atoms: C14_24  and  S1_25
REMARK    8  A    between atoms: N2_29  and  C16_30
REMARK    9  A    between atoms: C16_30  and  C17_31
ROOT
HETATM    1  C2  UNL     1      -3.320 -12.084  29.540  1.00  0.00     0.117 A
HETATM    2  C3  UNL     1      -3.210 -12.844  28.362  1.00  0.00     0.106 A
HETATM    3  C10 UNL     1      -4.346 -13.453  27.924  1.00  0.00     0.042 A
HETATM    4  C11 UNL     1      -5.565 -13.362  28.560  1.00  0.00     0.035 A
HETATM    5  C12 UNL     1      -5.655 -12.601  29.729  1.00  0.00     0.067 A
HETATM    6  C13 UNL     1      -4.520 -11.974  30.197  1.00  0.00     0.063 A
HETATM    7  C14 UNL     1      -4.880 -11.307  31.346  1.00  0.00     0.099 A
HETATM    8  N1  UNL     1      -6.184 -11.544  31.533  1.00  0.00    -0.291 N
ATOM      9  H1  UNL     1      -6.733 -11.178  32.311  1.00  0.00     0.188 HD
HETATM   10  N2  UNL     1      -6.674 -12.328  30.561  1.00  0.00    -0.290 N
ENDROOT
BRANCH   2  11
HETATM   11  O2  UNL     1      -1.987 -12.916  27.754  1.00  0.00    -0.315 OA
BRANCH  11  12
HETATM   12  C4  UNL     1      -1.687 -12.293  26.569  1.00  0.00     0.301 C
HETATM   13  O3  UNL     1      -1.804 -13.124  25.446  1.00  0.00    -0.326 OA
HETATM   14  C5  UNL     1      -0.823 -12.765  24.554  1.00  0.00     0.295 C
HETATM   15  O4  UNL     1      -0.161 -11.647  25.076  1.00  0.00    -0.346 OA
HETATM   16  C9  UNL     1       0.254 -13.843  24.426  1.00  0.00     0.204 C
HETATM   17  C6  UNL     1      -0.185 -11.960  26.445  1.00  0.00     0.211 C
HETATM   18  C7  UNL     1       0.680 -13.113  26.797  1.00  0.00     0.183 C
HETATM   19  C8  UNL     1       0.826 -14.163  25.760  1.00  0.00     0.183 C
BRANCH  18  20
HETATM   20  O5  UNL     1       0.239 -13.719  27.980  1.00  0.00    -0.390 OA
ATOM     21  H5  UNL     1       0.627 -14.580  28.081  1.00  0.00     0.210 HD
ENDBRANCH  18  20
BRANCH  19  22
HETATM   22  O6  UNL     1       2.188 -14.490  25.563  1.00  0.00    -0.390 OA
ATOM     23  H6  UNL     1       2.449 -15.204  26.132  1.00  0.00     0.210 HD
ENDBRANCH  19  22
BRANCH  16  24
HETATM   24  O7  UNL     1      -0.282 -14.996  23.816  1.00  0.00    -0.388 OA
ATOM     25  H7  UNL     1      -0.361 -15.698  24.453  1.00  0.00     0.210 HD
ENDBRANCH  16  24
ENDBRANCH  11  12
ENDBRANCH   2  11
BRANCH   1  26
HETATM   26  O1  UNL     1      -2.219 -11.444  30.041  1.00  0.00    -0.352 OA
HETATM   27  C1  UNL     1      -1.786 -10.205  29.482  1.00  0.00     0.210 C
ENDBRANCH   1  26
BRANCH   7  28
HETATM   28  S1  UNL     1      -3.802 -10.305  32.399  1.00  0.00    -0.114 SA
HETATM   29  C15 UNL     1      -4.799  -9.708  33.793  1.00  0.00     0.097 C
ENDBRANCH   7  28
BRANCH  10  30
HETATM   30  C16 UNL     1      -8.043 -12.773  30.435  1.00  0.00     0.157 C
BRANCH  30  31
HETATM   31  C17 UNL     1      -8.511 -13.690  31.506  1.00  0.00    -0.033 C
HETATM   32  C18 UNL     1      -8.140 -15.111  31.101  1.00  0.00     0.016 C
HETATM   33  C19 UNL     1      -8.004 -13.395  32.878  1.00  0.00     0.016 C
HETATM   34  C20 UNL     1     -10.044 -13.620  31.506  1.00  0.00     0.016 C
ENDBRANCH  30  31
ENDBRANCH  10  30
TORSDOF 9
ENDMDL