MODEL 4
REMARK VINA RESULT: -8.206298499      2.616      5.567
REMARK  9 active torsions:
REMARK  status: ('A' for Active; 'I' for Inactive)
REMARK    1  A    between atoms: C2_2  and  O1_3
REMARK    2  A    between atoms: O1_3  and  C3_4
REMARK    3  A    between atoms: C10_13  and  O4_14
REMARK    4  A    between atoms: O4_14  and  C11_15
REMARK    5  A    between atoms: C11_15  and  C12_16
REMARK    6  A    between atoms: C12_16  and  O5_17
REMARK    7  A    between atoms: C14_20  and  O6_21
REMARK    8  A    between atoms: C15_24  and  C16_25
REMARK    9  A    between atoms: C21_32  and  O10_33
ROOT
HETATM    1  C3  UNL     1      -3.768 -10.345  31.166  1.00  0.00     0.191 C
HETATM    2  C4  UNL     1      -3.869 -11.620  30.443  1.00  0.00     0.041 A
HETATM    3  C5  UNL     1      -5.124 -12.141  30.252  1.00  0.00     0.084 A
HETATM    4  C6  UNL     1      -5.287 -13.315  29.591  1.00  0.00     0.076 A
HETATM    5  C7  UNL     1      -4.188 -14.001  29.101  1.00  0.00     0.098 A
HETATM    6  O2  UNL     1      -4.419 -15.119  28.478  1.00  0.00    -0.274 OA
HETATM    7  C8  UNL     1      -3.465 -15.840  27.981  1.00  0.00     0.290 A
HETATM    8  O3  UNL     1      -3.753 -16.907  27.392  1.00  0.00    -0.260 OA
HETATM    9  C9  UNL     1      -2.172 -15.392  28.126  1.00  0.00     0.120 A
HETATM   10  C10 UNL     1      -1.851 -14.217  28.775  1.00  0.00     0.090 A
HETATM   11  C13 UNL     1      -2.895 -13.486  29.285  1.00  0.00     0.065 A
HETATM   12  C14 UNL     1      -2.736 -12.300  29.953  1.00  0.00     0.093 A
HETATM   13  O7  UNL     1      -6.206 -11.454  30.741  1.00  0.00    -0.340 OA
HETATM   14  C15 UNL     1      -6.153 -10.609  31.875  1.00  0.00     0.191 C
HETATM   15  C21 UNL     1      -4.761 -10.286  32.317  1.00  0.00     0.183 C
ENDROOT
BRANCH  14  16
HETATM   16  C16 UNL     1      -6.955 -11.299  32.971  1.00  0.00     0.181 C
HETATM   17  C17 UNL     1      -7.811 -10.303  33.685  1.00  0.00     0.206 C
HETATM   18  O8  UNL     1      -9.101 -10.636  33.362  1.00  0.00    -0.353 OA
HETATM   19  C18 UNL     1      -9.068 -11.990  33.112  1.00  0.00     0.157 C
HETATM   20  C19 UNL     1     -10.255 -12.462  32.300  1.00  0.00     0.078 C
HETATM   21  C20 UNL     1      -9.100 -12.741  34.438  1.00  0.00     0.078 C
HETATM   22  O9  UNL     1      -7.860 -12.200  32.451  1.00  0.00    -0.346 OA
ENDBRANCH  14  16
BRANCH  15  23
HETATM   23  O10 UNL     1      -4.416 -11.176  33.337  1.00  0.00    -0.390 OA
ATOM     24  H10 UNL     1      -5.091 -11.219  34.005  1.00  0.00     0.210 HD
ENDBRANCH  15  23
BRANCH   1  25
HETATM   25  O1  UNL     1      -2.526 -10.002  31.616  1.00  0.00    -0.379 OA
BRANCH  25  26
HETATM   26  C2  UNL     1      -2.581  -8.944  32.521  1.00  0.00     0.164 C
HETATM   27  C1  UNL     1      -1.697  -9.186  33.721  1.00  0.00     0.033 C
ENDBRANCH  25  26
ENDBRANCH   1  25
BRANCH  12  28
HETATM   28  O6  UNL     1      -1.556 -11.711  30.190  1.00  0.00    -0.359 OA
ATOM     29  H6  UNL     1      -1.157 -11.909  31.030  1.00  0.00     0.217 HD
ENDBRANCH  12  28
BRANCH  10  30
HETATM   30  O4  UNL     1      -0.560 -13.773  28.918  1.00  0.00    -0.348 OA
BRANCH  30  31
HETATM   31  C11 UNL     1       0.285 -13.700  27.794  1.00  0.00     0.201 C
BRANCH  31  32
HETATM   32  C12 UNL     1       0.442 -12.270  27.336  1.00  0.00     0.190 C
BRANCH  32  33
HETATM   33  O5  UNL     1       0.829 -11.516  28.449  1.00  0.00    -0.399 OA
ATOM     34  H5  UNL     1       1.473 -12.025  28.926  1.00  0.00     0.209 HD
ENDBRANCH  32  33
ENDBRANCH  31  32
ENDBRANCH  30  31
ENDBRANCH  10  30
TORSDOF 9
ENDMDL