MODEL 1
REMARK VINA RESULT: -8.952479737      0.000      0.000
REMARK  8 active torsions:
REMARK  status: ('A' for Active; 'I' for Inactive)
REMARK    1  A    between atoms: N1_7  and  N2_8
REMARK    2  A    between atoms: C6_9  and  N3_10
REMARK    3  A    between atoms: N3_10  and  C7_12
REMARK    4  A    between atoms: C7_12  and  C8_13
REMARK    5  A    between atoms: C8_13  and  N4_14
REMARK    6  A    between atoms: C11_17  and  O2_18
REMARK    7  A    between atoms: C13_21  and  O3_22
REMARK    8  A    between atoms: C16_26  and  O4_27
ROOT
HETATM    1  N2  UNL     1      -3.187 -12.891  27.986  1.00  0.00    -0.188 N
HETATM    2  C6  UNL     1      -2.050 -12.209  28.362  1.00  0.00     0.162 A
HETATM    3  C11 UNL     1      -2.089 -11.441  29.534  1.00  0.00     0.125 A
HETATM    4  C12 UNL     1      -3.308 -11.424  30.248  1.00  0.00     0.051 A
HETATM    5  C13 UNL     1      -3.336 -10.647  31.410  1.00  0.00     0.088 A
HETATM    6  C14 UNL     1      -4.549 -10.609  32.135  1.00  0.00     0.006 A
HETATM    7  C15 UNL     1      -4.645  -9.790  33.395  1.00  0.00     0.054 C
HETATM    8  C16 UNL     1      -5.607 -11.299  31.698  1.00  0.00     0.081 A
HETATM    9  C17 UNL     1      -5.617 -12.084  30.544  1.00  0.00    -0.011 A
HETATM   10  C18 UNL     1      -6.822 -12.814  30.112  1.00  0.00     0.052 C
HETATM   11  C19 UNL     1      -4.424 -12.106  29.857  1.00  0.00     0.058 A
HETATM   12  C20 UNL     1      -4.310 -12.839  28.698  1.00  0.00     0.280 A
HETATM   13  O5  UNL     1      -5.283 -13.485  28.282  1.00  0.00    -0.265 OA
ENDROOT
BRANCH   1  14
HETATM   14  N1  UNL     1      -3.122 -13.657  26.824  1.00  0.00    -0.171 N
HETATM   15  C5  UNL     1      -3.650 -13.418  25.514  1.00  0.00     0.276 A
HETATM   16  C3  UNL     1      -3.317 -14.537  24.634  1.00  0.00     0.019 A
HETATM   17  O1  UNL     1      -4.290 -12.405  25.202  1.00  0.00    -0.266 OA
HETATM   18  C2  UNL     1      -2.630 -15.403  25.352  1.00  0.00     0.019 A
HETATM   19  C4  UNL     1      -3.677 -14.703  23.203  1.00  0.00     0.055 C
HETATM   20  C1  UNL     1      -2.067 -16.721  24.896  1.00  0.00     0.055 C
HETATM   21  C21 UNL     1      -2.468 -14.935  26.707  1.00  0.00     0.276 A
HETATM   22  O6  UNL     1      -1.874 -15.499  27.653  1.00  0.00    -0.266 OA
ENDBRANCH   1  14
BRANCH   2  23
HETATM   23  N3  UNL     1      -0.907 -12.301  27.573  1.00  0.00    -0.371 N
ATOM     24  H3  UNL     1      -0.415 -13.192  27.641  1.00  0.00     0.161 HD
BRANCH  23  25
HETATM   25  C7  UNL     1      -0.310 -11.365  26.687  1.00  0.00     0.141 C
BRANCH  25  26
HETATM   26  C8  UNL     1       0.807 -11.914  25.827  1.00  0.00     0.135 C
BRANCH  26  27
HETATM   27  N4  UNL     1       0.300 -13.087  25.183  1.00  0.00    -0.419 N
HETATM   28  C9  UNL     1       0.992 -14.299  25.452  1.00  0.00     0.142 C
HETATM   29  C10 UNL     1      -0.166 -12.897  23.848  1.00  0.00     0.142 C
ENDBRANCH  26  27
ENDBRANCH  25  26
ENDBRANCH  23  25
ENDBRANCH   2  23
BRANCH   3  30
HETATM   30  O2  UNL     1      -1.043 -10.771  29.953  1.00  0.00    -0.356 OA
ATOM     31  H2  UNL     1      -1.029 -10.352  30.805  1.00  0.00     0.218 HD
ENDBRANCH   3  30
BRANCH   5  32
HETATM   32  O3  UNL     1      -2.333  -9.929  31.919  1.00  0.00    -0.359 OA
ATOM     33  H3  UNL     1      -2.080  -9.869  32.833  1.00  0.00     0.217 HD
ENDBRANCH   5  32
BRANCH   8  34
HETATM   34  O4  UNL     1      -6.810 -11.251  32.428  1.00  0.00    -0.359 OA
ATOM     35  H4  UNL     1      -7.635 -11.196  31.961  1.00  0.00     0.217 HD
ENDBRANCH   8  34
TORSDOF 8
ENDMDL