MODEL 2
REMARK VINA RESULT: -8.847026692      2.117      6.513
REMARK  8 active torsions:
REMARK  status: ('A' for Active; 'I' for Inactive)
REMARK    1  A    between atoms: C3_3  and  S1_4
REMARK    2  A    between atoms: S1_4  and  S2_5
REMARK    3  A    between atoms: S2_5  and  N1_6
REMARK    4  A    between atoms: C9_15  and  C10_16
REMARK    5  A    between atoms: C16_23  and  C17_24
REMARK    6  A    between atoms: C17_24  and  O5_25
REMARK    7  A    between atoms: C18_27  and  O6_28
REMARK    8  A    between atoms: C19_30  and  O7_31
ROOT
HETATM    1  N1  UNL     1      -2.713 -13.468  28.834  1.00  0.00    -0.205 N
HETATM    2  O1  UNL     1      -3.152 -13.207  30.089  1.00  0.00    -0.240 OA
HETATM    3  C4  UNL     1      -4.342 -12.453  30.209  1.00  0.00     0.174 C
HETATM    4  C5  UNL     1      -4.406 -11.394  29.420  1.00  0.00    -0.015 C
HETATM    5  C6  UNL     1      -5.433 -10.331  29.201  1.00  0.00     0.216 C
HETATM    6  O2  UNL     1      -5.066  -9.783  27.947  1.00  0.00    -0.316 OA
HETATM    7  C7  UNL     1      -3.752 -10.126  27.631  1.00  0.00     0.270 C
HETATM    8  O3  UNL     1      -3.130  -9.603  26.674  1.00  0.00    -0.264 OA
HETATM    9  C8  UNL     1      -3.235 -11.143  28.545  1.00  0.00     0.149 C
HETATM   10  C9  UNL     1      -2.934 -12.480  27.850  1.00  0.00     0.174 C
ENDROOT
BRANCH   1  11
HETATM   11  S2  UNL     1      -1.369 -14.518  28.679  1.00  0.00     0.048 SA
BRANCH  11  12
HETATM   12  S1  UNL     1      -1.917 -16.294  27.646  1.00  0.00    -0.037 SA
BRANCH  12  13
HETATM   13  C3  UNL     1      -2.056 -16.026  25.874  1.00  0.00     0.227 C
HETATM   14  C2  UNL     1      -3.445 -15.965  25.386  1.00  0.00    -0.019 C
HETATM   15  C1  UNL     1      -4.465 -15.998  26.196  1.00  0.00     0.020 C
HETATM   16  C19 UNL     1      -3.656 -15.871  23.923  1.00  0.00     0.181 C
HETATM   17  C18 UNL     1      -2.292 -15.820  23.275  1.00  0.00     0.182 C
HETATM   18  C16 UNL     1      -1.457 -16.950  23.824  1.00  0.00     0.178 C
HETATM   19  O4  UNL     1      -1.433 -17.050  25.192  1.00  0.00    -0.360 OA
BRANCH  16  20
HETATM   20  O7  UNL     1      -4.421 -14.749  23.590  1.00  0.00    -0.388 OA
ATOM     21  H7  UNL     1      -3.936 -14.153  23.032  1.00  0.00     0.210 HD
ENDBRANCH  16  20
BRANCH  17  22
HETATM   22  O6  UNL     1      -2.387 -15.911  21.883  1.00  0.00    -0.390 OA
ATOM     23  H6  UNL     1      -3.272 -16.137  21.623  1.00  0.00     0.210 HD
ENDBRANCH  17  22
BRANCH  18  24
HETATM   24  C17 UNL     1      -1.934 -18.231  23.169  1.00  0.00     0.198 C
BRANCH  24  25
HETATM   25  O5  UNL     1      -1.122 -18.577  22.090  1.00  0.00    -0.398 OA
ATOM     26  H5  UNL     1      -0.428 -19.167  22.358  1.00  0.00     0.209 HD
ENDBRANCH  24  25
ENDBRANCH  18  24
ENDBRANCH  12  13
ENDBRANCH  11  12
ENDBRANCH   1  11
BRANCH  10  27
HETATM   27  C10 UNL     1      -1.876 -12.312  26.839  1.00  0.00    -0.031 A
HETATM   28  C11 UNL     1      -0.631 -11.800  27.131  1.00  0.00     0.009 A
HETATM   29  C12 UNL     1       0.353 -11.662  26.144  1.00  0.00     0.001 A
HETATM   30  C13 UNL     1       0.076 -12.041  24.869  1.00  0.00     0.000 A
HETATM   31  C14 UNL     1      -1.166 -12.560  24.542  1.00  0.00     0.001 A
HETATM   32  C15 UNL     1      -2.106 -12.683  25.521  1.00  0.00     0.009 A
ENDBRANCH  10  27
TORSDOF 8
ENDMDL