MODEL 2
REMARK VINA RESULT: -8.072944871      1.080      1.152
REMARK  10 active torsions:
REMARK  status: ('A' for Active; 'I' for Inactive)
REMARK    1  A    between atoms: C2_2  and  N1_3
REMARK    2  A    between atoms: C4_8  and  C5_9
REMARK    3  A    between atoms: C6_10  and  C7_11
REMARK    4  A    between atoms: C7_11  and  C8_12
REMARK    5  A    between atoms: C8_12  and  C9_13
REMARK    6  A    between atoms: N6_23  and  C14_24
REMARK    7  A    between atoms: C15_26  and  C16_27
REMARK    8  A    between atoms: C16_27  and  S1_28
REMARK    9  A    between atoms: S1_28  and  C17_29
REMARK   10  A    between atoms: C21_36  and  O2_37
ROOT
HETATM    1  C9  UNL     1      -5.157 -17.777  28.498  1.00  0.00     0.124 C
HETATM    2  C10 UNL     1      -4.455 -18.958  28.961  1.00  0.00     0.059 C
HETATM    3  N3  UNL     1      -3.899 -19.921  29.342  1.00  0.00    -0.197 NA
ENDROOT
BRANCH   1   4
HETATM    4  C8  UNL     1      -6.444 -17.555  29.293  1.00  0.00     0.026 C
BRANCH   4   5
HETATM    5  C7  UNL     1      -7.085 -16.264  28.825  1.00  0.00     0.095 C
BRANCH   5   6
HETATM    6  C6  UNL     1      -6.064 -15.215  28.996  1.00  0.00    -0.098 C
HETATM    7  C5  UNL     1      -5.228 -14.358  29.131  1.00  0.00    -0.030 C
BRANCH   7   8
HETATM    8  C4  UNL     1      -4.206 -13.346  29.289  1.00  0.00     0.164 A
HETATM    9  N2  UNL     1      -4.285 -12.493  30.318  1.00  0.00    -0.320 N
HETATM   10  C3  UNL     1      -3.368 -11.501  30.551  1.00  0.00     0.134 A
ATOM     11  H2  UNL     1      -5.070 -12.586  30.962  1.00  0.00     0.169 HD
HETATM   12  N1  UNL     1      -3.485 -10.720  31.535  1.00  0.00    -0.375 N
HETATM   13  C12 UNL     1      -2.311 -11.389  29.671  1.00  0.00     0.122 A
ATOM     14  H1  UNL     1      -4.285 -10.851  32.153  1.00  0.00     0.161 HD
HETATM   15  C11 UNL     1      -2.268 -12.287  28.625  1.00  0.00     0.143 A
HETATM   16  N5  UNL     1      -1.233 -10.556  29.573  1.00  0.00    -0.346 N
HETATM   17  N4  UNL     1      -3.178 -13.249  28.416  1.00  0.00    -0.319 N
HETATM   18  N6  UNL     1      -1.172 -11.989  27.914  1.00  0.00    -0.295 N
ATOM     19  H4  UNL     1      -3.097 -13.887  27.625  1.00  0.00     0.169 HD
HETATM   20  C13 UNL     1      -0.554 -10.933  28.506  1.00  0.00     0.188 A
ATOM     21  H5  UNL     1      -0.999  -9.789  30.204  1.00  0.00     0.167 HD
BRANCH  12  22
HETATM   22  C2  UNL     1      -2.581  -9.678  31.839  1.00  0.00     0.116 C
HETATM   23  C1  UNL     1      -2.325  -9.553  33.339  1.00  0.00     0.026 C
ENDBRANCH  12  22
BRANCH  18  24
HETATM   24  C14 UNL     1      -0.668 -12.613  26.732  1.00  0.00     0.289 C
HETATM   25  O1  UNL     1      -1.374 -13.751  26.347  1.00  0.00    -0.328 OA
HETATM   26  C15 UNL     1      -0.479 -14.558  25.661  1.00  0.00     0.335 C
HETATM   27  N7  UNL     1       0.858 -14.124  25.947  1.00  0.00    -0.018 N
HETATM   28  C21 UNL     1       0.674 -13.251  27.094  1.00  0.00     0.371 C
ATOM     29  H72 UNL     1       1.530 -14.878  26.088  1.00  0.00     0.283 HD
ATOM     30  H71 UNL     1       1.346 -13.698  25.160  1.00  0.00     0.283 HD
BRANCH  26  31
HETATM   31  C16 UNL     1      -0.688 -14.493  24.158  1.00  0.00     0.136 C
BRANCH  31  32
HETATM   32  S1  UNL     1      -1.577 -15.982  23.664  1.00  0.00    -0.156 SA
BRANCH  32  33
HETATM   33  C17 UNL     1      -3.355 -15.853  23.917  1.00  0.00    -0.003 C
HETATM   34  C18 UNL     1      -3.740 -16.283  25.318  1.00  0.00     0.026 C
HETATM   35  C19 UNL     1      -4.036 -16.795  22.947  1.00  0.00     0.026 C
HETATM   36  C20 UNL     1      -3.879 -14.463  23.652  1.00  0.00     0.026 C
ENDBRANCH  32  33
ENDBRANCH  31  32
ENDBRANCH  26  31
BRANCH  28  37
HETATM   37  O2  UNL     1       0.535 -14.010  28.230  1.00  0.00    -0.366 OA
ATOM     38  H2  UNL     1       0.692 -13.471  28.996  1.00  0.00     0.212 HD
ENDBRANCH  28  37
ENDBRANCH  18  24
ENDBRANCH   7   8
ENDBRANCH   5   6
ENDBRANCH   4   5
ENDBRANCH   1   4
TORSDOF 10
ENDMDL