MODEL 4
REMARK VINA RESULT: -9.416991910      2.763      4.325
REMARK  8 active torsions:
REMARK  status: ('A' for Active; 'I' for Inactive)
REMARK    1  A    between atoms: C2_2  and  O2_4
REMARK    2  A    between atoms: O2_4  and  C3_5
REMARK    3  A    between atoms: N1_13  and  O4_15
REMARK    4  A    between atoms: O4_15  and  C10_16
REMARK    5  A    between atoms: C10_16  and  C11_17
REMARK    6  A    between atoms: C12_19  and  O6_20
REMARK    7  A    between atoms: C13_22  and  O7_23
REMARK    8  A    between atoms: C14_25  and  O8_26
ROOT
HETATM    1  C3  UNL     1      -5.324 -14.344  28.352  1.00  0.00     0.273 C
HETATM    2  O3  UNL     1      -5.030 -14.665  27.010  1.00  0.00    -0.360 OA
HETATM    3  C4  UNL     1      -4.241 -15.814  27.096  1.00  0.00     0.175 C
HETATM    4  C5  UNL     1      -2.850 -15.476  27.612  1.00  0.00     0.010 C
HETATM    5  C6  UNL     1      -2.220 -16.813  27.976  1.00  0.00     0.012 C
HETATM    6  C7  UNL     1      -2.958 -14.676  28.857  1.00  0.00     0.007 C
HETATM    7  C8  UNL     1      -1.682 -14.040  29.337  1.00  0.00     0.092 C
HETATM    8  C9  UNL     1      -0.795 -13.533  28.274  1.00  0.00     0.143 C
HETATM    9  N1  UNL     1      -0.073 -14.455  27.693  1.00  0.00    -0.248 N
ATOM     10  H1  UNL     1      -0.184 -15.417  28.015  1.00  0.00     0.196 HD
HETATM   11  O9  UNL     1      -0.710 -12.245  27.910  1.00  0.00    -0.301 OA
HETATM   12  C15 UNL     1      -1.132 -11.040  28.331  1.00  0.00     0.047 C
HETATM   13  C16 UNL     1      -0.076  -9.916  28.253  1.00  0.00     0.076 C
HETATM   14  C17 UNL     1      -2.281 -10.639  28.797  1.00  0.00     0.006 C
HETATM   15  C18 UNL     1      -3.531 -11.339  29.037  1.00  0.00     0.030 C
HETATM   16  C19 UNL     1      -3.824 -12.436  28.069  1.00  0.00     0.013 C
HETATM   17  C20 UNL     1      -4.092 -13.681  28.901  1.00  0.00     0.047 C
ENDROOT
BRANCH   9  18
HETATM   18  O4  UNL     1       0.803 -14.226  26.700  1.00  0.00    -0.276 OA
BRANCH  18  19
HETATM   19  C10 UNL     1       0.631 -13.431  25.562  1.00  0.00     0.235 C
BRANCH  19  20
HETATM   20  C11 UNL     1      -0.028 -14.198  24.439  1.00  0.00     0.182 C
HETATM   21  O5  UNL     1      -0.503 -15.438  24.868  1.00  0.00    -0.349 OA
HETATM   22  C12 UNL     1      -1.411 -15.849  23.896  1.00  0.00     0.288 C
HETATM   23  C13 UNL     1      -2.042 -14.594  23.319  1.00  0.00     0.204 C
HETATM   24  C14 UNL     1      -1.321 -13.489  24.062  1.00  0.00     0.183 C
BRANCH  22  25
HETATM   25  O6  UNL     1      -2.355 -16.736  24.372  1.00  0.00    -0.369 OA
ATOM     26  H6  UNL     1      -1.992 -17.583  24.603  1.00  0.00     0.212 HD
ENDBRANCH  22  25
BRANCH  23  27
HETATM   27  O7  UNL     1      -3.392 -14.500  23.639  1.00  0.00    -0.388 OA
ATOM     28  H7  UNL     1      -3.919 -15.105  23.129  1.00  0.00     0.210 HD
ENDBRANCH  23  27
BRANCH  24  29
HETATM   29  O8  UNL     1      -1.970 -13.160  25.267  1.00  0.00    -0.390 OA
ATOM     30  H8  UNL     1      -2.799 -12.760  25.031  1.00  0.00     0.210 HD
ENDBRANCH  24  29
ENDBRANCH  19  20
ENDBRANCH  18  19
ENDBRANCH   9  18
BRANCH   1  31
HETATM   31  O2  UNL     1      -6.407 -13.439  28.420  1.00  0.00    -0.290 OA
BRANCH  31  32
HETATM   32  C2  UNL     1      -7.482 -13.600  29.249  1.00  0.00     0.257 C
HETATM   33  C1  UNL     1      -7.600 -14.711  30.234  1.00  0.00     0.126 C
HETATM   34  O1  UNL     1      -8.410 -12.729  29.140  1.00  0.00    -0.266 OA
ENDBRANCH  31  32
ENDBRANCH   1  31
TORSDOF 8
ENDMDL