MODEL 5
REMARK VINA RESULT: -7.777171207      3.064      5.749
REMARK  10 active torsions:
REMARK  status: ('A' for Active; 'I' for Inactive)
REMARK    1  A    between atoms: O1_2  and  C2_3
REMARK    2  A    between atoms: C3_4  and  O2_5
REMARK    3  A    between atoms: C9_11  and  C10_12
REMARK    4  A    between atoms: C10_12  and  O3_13
REMARK    5  A    between atoms: C10_12  and  O4_15
REMARK    6  A    between atoms: O4_15  and  C11_16
REMARK    7  A    between atoms: C15_20  and  O5_21
REMARK    8  A    between atoms: N1_25  and  O7_26
REMARK    9  A    between atoms: N2_30  and  O8_31
REMARK   10  A    between atoms: C19_33  and  O9_34
ROOT
HETATM    1  C2  UNL     1      -0.096 -13.293  27.706  1.00  0.00     0.156 A
HETATM    2  C3  UNL     1      -1.069 -14.051  28.304  1.00  0.00     0.118 A
HETATM    3  C5  UNL     1      -1.651 -15.062  27.593  1.00  0.00     0.032 A
HETATM    4  C6  UNL     1      -2.600 -15.855  28.178  1.00  0.00     0.018 A
HETATM    5  C7  UNL     1      -3.177 -16.890  27.511  1.00  0.00     0.016 A
HETATM    6  C8  UNL     1      -2.821 -17.170  26.212  1.00  0.00     0.010 A
HETATM    7  C9  UNL     1      -3.432 -18.196  25.548  1.00  0.00     0.048 A
HETATM    8  C15 UNL     1      -3.077 -18.428  24.229  1.00  0.00     0.148 A
HETATM    9  C16 UNL     1      -2.142 -17.642  23.631  1.00  0.00     0.305 A
HETATM   10  O6  UNL     1      -1.818 -17.848  22.432  1.00  0.00    -0.263 OA
HETATM   11  N1  UNL     1      -1.518 -16.607  24.290  1.00  0.00    -0.182 N
HETATM   12  C17 UNL     1      -1.837 -16.373  25.552  1.00  0.00     0.107 A
HETATM   13  C18 UNL     1      -1.251 -15.316  26.261  1.00  0.00     0.108 A
HETATM   14  N2  UNL     1      -0.304 -14.570  25.710  1.00  0.00    -0.196 N
HETATM   15  C19 UNL     1       0.289 -13.548  26.416  1.00  0.00     0.206 A
ENDROOT
BRANCH   7  16
HETATM   16  C10 UNL     1      -4.389 -19.097  26.234  1.00  0.00     0.296 C
BRANCH  16  17
HETATM   17  O3  UNL     1      -5.681 -19.050  25.661  1.00  0.00    -0.367 OA
ATOM     18  H3  UNL     1      -5.822 -19.742  25.027  1.00  0.00     0.213 HD
ENDBRANCH  16  17
BRANCH  16  19
HETATM   19  O4  UNL     1      -3.923 -20.398  26.237  1.00  0.00    -0.347 OA
BRANCH  19  20
HETATM   20  C11 UNL     1      -3.995 -21.104  27.387  1.00  0.00     0.053 C
HETATM   21  C12 UNL     1      -5.228 -21.988  27.483  1.00  0.00     0.045 C
HETATM   22  C13 UNL     1      -2.825 -22.129  27.304  1.00  0.00     0.045 C
HETATM   23  C14 UNL     1      -3.771 -20.383  28.670  1.00  0.00     0.045 C
ENDBRANCH  19  20
ENDBRANCH  16  19
ENDBRANCH   7  16
BRANCH   8  24
HETATM   24  O5  UNL     1      -3.699 -19.476  23.562  1.00  0.00    -0.355 OA
ATOM     25  H5  UNL     1      -3.858 -19.379  22.631  1.00  0.00     0.218 HD
ENDBRANCH   8  24
BRANCH  11  26
HETATM   26  O7  UNL     1      -0.695 -15.872  23.517  1.00  0.00    -0.279 OA
ATOM     27  H7  UNL     1      -1.135 -15.212  22.994  1.00  0.00     0.245 HD
ENDBRANCH  11  26
BRANCH  14  28
HETATM   28  O8  UNL     1       0.248 -14.753  24.514  1.00  0.00    -0.280 OA
ATOM     29  H8  UNL     1      -0.197 -14.707  23.676  1.00  0.00     0.245 HD
ENDBRANCH  14  28
BRANCH   2  30
HETATM   30  O2  UNL     1      -1.496 -13.833  29.614  1.00  0.00    -0.352 OA
HETATM   31  C4  UNL     1      -2.604 -12.981  29.815  1.00  0.00     0.210 C
ENDBRANCH   2  30
BRANCH  15  32
HETATM   32  O9  UNL     1       1.259 -12.828  25.755  1.00  0.00    -0.337 OA
HETATM   33  C20 UNL     1       1.007 -11.694  24.960  1.00  0.00     0.212 C
ENDBRANCH  15  32
BRANCH   1  34
HETATM   34  O1  UNL     1       0.500 -12.265  28.414  1.00  0.00    -0.349 OA
HETATM   35  C1  UNL     1      -0.058 -10.977  28.284  1.00  0.00     0.210 C
ENDBRANCH   1  34
TORSDOF 10
ENDMDL