MODEL 5
REMARK VINA RESULT: -8.571458318      4.641      9.914
REMARK  7 active torsions:
REMARK  status: ('A' for Active; 'I' for Inactive)
REMARK    1  A    between atoms: C2_2  and  N1_5
REMARK    2  A    between atoms: N1_5  and  C6_8
REMARK    3  A    between atoms: C6_8  and  C7_9
REMARK    4  A    between atoms: N3_11  and  C9_12
REMARK    5  A    between atoms: C9_12  and  C10_13
REMARK    6  A    between atoms: C10_13  and  O1_14
REMARK    7  A    between atoms: C14_25  and  C15_26
ROOT
HETATM    1  N1  UNL     1      -7.707 -10.868  33.896  1.00  0.00    -0.306 N
HETATM    2  C5  UNL     1      -8.272  -9.570  33.796  1.00  0.00     0.180 C
HETATM    3  N2  UNL     1      -8.750  -8.520  33.710  1.00  0.00    -0.172 NA
ENDROOT
BRANCH   1   4
HETATM    4  C2  UNL     1      -8.529 -12.046  33.744  1.00  0.00     0.032 C
HETATM    5  C1  UNL     1      -8.725 -12.457  32.310  1.00  0.00     0.038 C
HETATM    6  C3  UNL     1      -7.926 -13.239  34.475  1.00  0.00     0.038 C
HETATM    7  C4  UNL     1      -9.901 -11.797  34.349  1.00  0.00     0.038 C
ENDBRANCH   1   4
BRANCH   1   8
HETATM    8  C6  UNL     1      -6.285 -10.933  34.163  1.00  0.00     0.195 C
BRANCH   8   9
HETATM    9  C7  UNL     1      -5.466 -10.514  33.013  1.00  0.00     0.062 A
HETATM   10  C8  UNL     1      -5.549 -10.961  31.704  1.00  0.00     0.140 A
HETATM   11  N3  UNL     1      -4.607 -10.317  30.965  1.00  0.00    -0.282 N
HETATM   12  N8  UNL     1      -3.991  -9.520  31.809  1.00  0.00    -0.241 N
HETATM   13  N9  UNL     1      -4.472  -9.610  33.020  1.00  0.00    -0.287 N
ATOM     14  H8  UNL     1      -3.224  -8.900  31.548  1.00  0.00     0.208 HD
ATOM     15  H9  UNL     1      -4.148  -9.085  33.831  1.00  0.00     0.188 HD
BRANCH  11  16
HETATM   16  C9  UNL     1      -4.344 -10.467  29.561  1.00  0.00     0.212 C
BRANCH  16  17
HETATM   17  C10 UNL     1      -2.983 -11.004  29.242  1.00  0.00     0.167 C
HETATM   18  N4  UNL     1      -2.080  -9.985  28.743  1.00  0.00    -0.345 N
HETATM   19  C11 UNL     1      -0.888 -10.403  28.113  1.00  0.00     0.091 C
ATOM     20  H4  UNL     1      -2.299  -8.994  28.845  1.00  0.00     0.164 HD
HETATM   21  N5  UNL     1       0.152  -9.674  28.145  1.00  0.00    -0.388 N
HETATM   22  C12 UNL     1      -0.877 -11.699  27.420  1.00  0.00     0.170 C
ATOM     23  H52 UNL     1       0.145  -8.774  28.626  1.00  0.00     0.157 HD
ATOM     24  H51 UNL     1       1.014  -9.976  27.690  1.00  0.00     0.157 HD
HETATM   25  C13 UNL     1      -0.018 -11.738  26.257  1.00  0.00     0.072 C
HETATM   26  C14 UNL     1      -2.341 -11.954  27.036  1.00  0.00     0.073 C
HETATM   27  N6  UNL     1       0.671 -11.785  25.339  1.00  0.00    -0.196 NA
HETATM   28  C19 UNL     1      -3.119 -12.168  28.286  1.00  0.00     0.160 C
HETATM   29  C20 UNL     1      -4.528 -12.434  28.018  1.00  0.00     0.069 C
HETATM   30  N7  UNL     1      -5.640 -12.642  27.788  1.00  0.00    -0.197 NA
BRANCH  17  31
HETATM   31  O1  UNL     1      -2.440 -11.446  30.471  1.00  0.00    -0.368 OA
ATOM     32  H1  UNL     1      -1.937 -10.716  30.814  1.00  0.00     0.212 HD
ENDBRANCH  17  31
BRANCH  26  33
HETATM   33  C15 UNL     1      -2.441 -13.141  26.143  1.00  0.00    -0.010 A
HETATM   34  C16 UNL     1      -2.972 -13.152  24.882  1.00  0.00     0.015 A
HETATM   35  C17 UNL     1      -2.976 -14.325  24.227  1.00  0.00     0.008 A
HETATM   36  C18 UNL     1      -2.449 -15.409  24.872  1.00  0.00     0.050 A
HETATM   37  S1  UNL     1      -1.965 -14.762  26.373  1.00  0.00    -0.106 SA
ENDBRANCH  26  33
ENDBRANCH  16  17
ENDBRANCH  11  16
ENDBRANCH   8   9
ENDBRANCH   1   8
TORSDOF 7
ENDMDL