MODEL 2
REMARK VINA RESULT: -8.582387146      2.600     10.999
REMARK  15 active torsions:
REMARK  status: ('A' for Active; 'I' for Inactive)
REMARK    1  A    between atoms: C3_3  and  C4_4
REMARK    2  A    between atoms: C5_5  and  C6_6
REMARK       I    between atoms: C6_6  and  N1_8
REMARK    3  A    between atoms: N1_8  and  C7_10
REMARK    4  A    between atoms: C7_10  and  C8_11
REMARK    5  A    between atoms: C8_11  and  C9_12
REMARK       I    between atoms: C9_12  and  N2_14
REMARK    6  A    between atoms: C13_18  and  C14_19
REMARK       I    between atoms: C14_19  and  N3_21
REMARK    7  A    between atoms: N3_21  and  C15_23
REMARK    8  A    between atoms: C15_23  and  C16_24
REMARK    9  A    between atoms: C16_24  and  N4_25
REMARK       I    between atoms: N4_25  and  C17_27
REMARK   10  A    between atoms: C17_27  and  O5_29
REMARK   11  A    between atoms: O5_29  and  C18_30
REMARK   12  A    between atoms: C22_34  and  C24_36
REMARK   13  A    between atoms: C28_41  and  C29_42
REMARK   14  A    between atoms: C29_42  and  O8_44
REMARK   15  A    between atoms: O8_44  and  C30_45
ROOT
HETATM    1  C7  UNL     1      18.149  22.194  20.683  1.00  0.00     0.132 C
ENDROOT
BRANCH   1   2
HETATM    2  N1  UNL     1      17.730  21.860  19.358  1.00  0.00    -0.360 N
HETATM    3  C6  UNL     1      16.384  21.745  18.944  1.00  0.00     0.223 C
HETATM    4  O1  UNL     1      15.493  21.956  19.804  1.00  0.00    -0.273 OA
ATOM      5  H1  UNL     1      18.455  21.693  18.661  1.00  0.00     0.162 HD
BRANCH   3   6
HETATM    6  C5  UNL     1      16.128  21.389  17.557  1.00  0.00     0.098 C
HETATM    7  C4  UNL     1      14.749  20.952  17.155  1.00  0.00     0.036 C
HETATM    8  C28 UNL     1      15.135  21.506  15.767  1.00  0.00     0.105 C
HETATM    9  C22 UNL     1      15.948  22.523  16.552  1.00  0.00     0.011 C
HETATM   10  C23 UNL     1      15.086  23.642  17.034  1.00  0.00     0.020 C
BRANCH   7  11
HETATM   11  C3  UNL     1      14.550  19.478  17.147  1.00  0.00    -0.025 C
HETATM   12  C2  UNL     1      14.607  18.819  18.279  1.00  0.00    -0.034 C
HETATM   13  C1  UNL     1      14.414  17.340  18.318  1.00  0.00     0.036 C
ENDBRANCH   7  11
BRANCH   8  14
HETATM   14  C29 UNL     1      14.037  21.989  14.951  1.00  0.00     0.264 C
HETATM   15  O7  UNL     1      14.274  22.453  13.810  1.00  0.00    -0.265 OA
BRANCH  14  16
HETATM   16  O8  UNL     1      12.709  21.978  15.345  1.00  0.00    -0.322 OA
BRANCH  16  17
HETATM   17  C30 UNL     1      11.686  21.434  14.530  1.00  0.00     0.174 C
HETATM   18  C31 UNL     1      11.762  19.922  14.492  1.00  0.00     0.034 C
ENDBRANCH  16  17
ENDBRANCH  14  16
ENDBRANCH   8  14
BRANCH   9  19
HETATM   19  C24 UNL     1      17.246  22.911  15.898  1.00  0.00     0.166 A
HETATM   20  O6  UNL     1      17.190  24.183  15.136  1.00  0.00    -0.369 OA
HETATM   21  C25 UNL     1      18.159  23.920  16.242  1.00  0.00     0.081 A
HETATM   22  C26 UNL     1      19.596  23.762  15.707  1.00  0.00     0.048 C
HETATM   23  C27 UNL     1      18.029  24.947  17.302  1.00  0.00     0.048 C
ENDBRANCH   9  19
ENDBRANCH   3   6
ENDBRANCH   1   2
BRANCH   1  24
HETATM   24  C8  UNL     1      19.563  22.662  20.761  1.00  0.00     0.122 C
BRANCH  24  25
HETATM   25  C9  UNL     1      19.613  24.144  20.917  1.00  0.00     0.222 C
HETATM   26  O2  UNL     1      18.521  24.767  20.783  1.00  0.00    -0.273 OA
HETATM   27  N2  UNL     1      20.781  24.887  21.197  1.00  0.00    -0.339 N
HETATM   28  C10 UNL     1      22.110  24.382  21.396  1.00  0.00     0.127 C
HETATM   29  C13 UNL     1      20.807  26.318  21.322  1.00  0.00     0.179 C
HETATM   30  C11 UNL     1      22.786  25.397  22.264  1.00  0.00     0.022 C
HETATM   31  C12 UNL     1      21.810  26.531  22.448  1.00  0.00     0.037 C
BRANCH  29  32
HETATM   32  C14 UNL     1      21.321  27.001  20.085  1.00  0.00     0.240 C
HETATM   33  O3  UNL     1      22.498  27.425  20.118  1.00  0.00    -0.271 OA
HETATM   34  N3  UNL     1      20.478  27.136  18.950  1.00  0.00    -0.358 N
ATOM     35  H3  UNL     1      19.532  26.760  19.009  1.00  0.00     0.162 HD
BRANCH  34  36
HETATM   36  C15 UNL     1      20.878  27.773  17.721  1.00  0.00     0.142 C
BRANCH  36  37
HETATM   37  C16 UNL     1      21.124  26.827  16.590  1.00  0.00     0.144 C
BRANCH  37  38
HETATM   38  N4  UNL     1      22.411  26.214  16.583  1.00  0.00    -0.335 N
HETATM   39  C17 UNL     1      23.506  26.809  15.903  1.00  0.00     0.361 C
HETATM   40  O4  UNL     1      23.473  27.875  15.273  1.00  0.00    -0.238 OA
ATOM     41  H4  UNL     1      22.547  25.331  17.075  1.00  0.00     0.164 HD
BRANCH  39  42
HETATM   42  O5  UNL     1      24.728  26.123  15.952  1.00  0.00    -0.294 OA
BRANCH  42  43
HETATM   43  C18 UNL     1      25.830  26.590  16.699  1.00  0.00     0.061 C
HETATM   44  C19 UNL     1      25.422  27.433  17.867  1.00  0.00     0.046 C
HETATM   45  C20 UNL     1      26.810  27.299  15.779  1.00  0.00     0.046 C
HETATM   46  C21 UNL     1      26.537  25.352  17.251  1.00  0.00     0.046 C
ENDBRANCH  42  43
ENDBRANCH  39  42
ENDBRANCH  37  38
ENDBRANCH  36  37
ENDBRANCH  34  36
ENDBRANCH  29  32
ENDBRANCH  24  25
ENDBRANCH   1  24
TORSDOF 15
ENDMDL