MODEL 2
REMARK VINA RESULT: -8.657712182      3.581     10.640
REMARK  17 active torsions:
REMARK  status: ('A' for Active; 'I' for Inactive)
REMARK    1  A    between atoms: C2_2  and  C3_3
REMARK    2  A    between atoms: C3_3  and  S1_4
REMARK    3  A    between atoms: S1_4  and  N1_7
REMARK       I    between atoms: N1_7  and  C4_9
REMARK    4  A    between atoms: C4_9  and  C5_11
REMARK    5  A    between atoms: C5_11  and  C6_12
REMARK    6  A    between atoms: C6_12  and  C7_13
REMARK    7  A    between atoms: C7_13  and  O4_14
REMARK    8  A    between atoms: C7_13  and  C9_16
REMARK    9  A    between atoms: C7_13  and  C25_42
REMARK       I    between atoms: C9_16  and  N2_18
REMARK   10  A    between atoms: N2_18  and  C10_20
REMARK   11  A    between atoms: C10_20  and  C11_21
REMARK   12  A    between atoms: N3_24  and  C14_25
REMARK   13  A    between atoms: C14_25  and  O6_26
REMARK   14  A    between atoms: C15_28  and  N4_29
REMARK   15  A    between atoms: C15_28  and  C21_38
REMARK       I    between atoms: N4_29  and  C16_31
REMARK   16  A    between atoms: C16_31  and  O8_33
REMARK   17  A    between atoms: O8_33  and  C17_34
ROOT
HETATM    1  C9  UNL     1      16.382  21.751  17.197  1.00  0.00     0.253 C
HETATM    2  O5  UNL     1      17.235  21.072  16.526  1.00  0.00    -0.270 OA
HETATM    3  N2  UNL     1      16.757  22.060  18.512  1.00  0.00    -0.356 N
ATOM      4  H2  UNL     1      16.107  22.604  19.080  1.00  0.00     0.162 HD
ENDROOT
BRANCH   3   5
HETATM    5  C10 UNL     1      18.000  21.658  19.109  1.00  0.00     0.148 C
BRANCH   5   6
HETATM    6  C11 UNL     1      18.466  22.725  20.051  1.00  0.00     0.105 C
HETATM    7  C12 UNL     1      19.153  22.128  21.232  1.00  0.00     0.047 C
HETATM    8  C13 UNL     1      20.396  22.279  20.380  1.00  0.00     0.127 C
HETATM    9  N3  UNL     1      19.774  23.314  19.649  1.00  0.00    -0.354 N
BRANCH   9  10
HETATM   10  C14 UNL     1      20.041  24.444  18.880  1.00  0.00     0.162 C
HETATM   11  C15 UNL     1      20.886  25.607  19.024  1.00  0.00     0.072 C
BRANCH  10  12
HETATM   12  O6  UNL     1      19.336  24.425  17.741  1.00  0.00    -0.345 OA
ATOM     13  H6  UNL     1      19.685  25.050  17.115  1.00  0.00     0.219 HD
ENDBRANCH  10  12
BRANCH  11  14
HETATM   14  N4  UNL     1      20.602  26.523  17.948  1.00  0.00    -0.301 N
HETATM   15  C16 UNL     1      21.448  27.231  17.097  1.00  0.00     0.365 C
HETATM   16  O7  UNL     1      22.692  27.229  17.095  1.00  0.00    -0.238 OA
ATOM     17  H4  UNL     1      19.608  26.680  17.780  1.00  0.00     0.171 HD
BRANCH  15  18
HETATM   18  O8  UNL     1      20.877  28.061  16.099  1.00  0.00    -0.294 OA
BRANCH  18  19
HETATM   19  C17 UNL     1      20.572  27.529  14.838  1.00  0.00     0.061 C
HETATM   20  C18 UNL     1      21.109  26.162  14.578  1.00  0.00     0.046 C
HETATM   21  C19 UNL     1      19.093  27.560  14.537  1.00  0.00     0.046 C
HETATM   22  C20 UNL     1      21.234  28.469  13.820  1.00  0.00     0.046 C
ENDBRANCH  18  19
ENDBRANCH  15  18
ENDBRANCH  11  14
BRANCH  11  23
HETATM   23  C21 UNL     1      21.226  26.170  20.340  1.00  0.00    -0.004 C
HETATM   24  C22 UNL     1      21.147  27.707  20.248  1.00  0.00     0.021 C
HETATM   25  C23 UNL     1      20.439  25.731  21.516  1.00  0.00     0.021 C
HETATM   26  C24 UNL     1      22.751  25.946  20.629  1.00  0.00     0.021 C
ENDBRANCH  11  23
ENDBRANCH   9  10
ENDBRANCH   5   6
ENDBRANCH   3   5
BRANCH   1  27
HETATM   27  C7  UNL     1      15.155  22.096  16.496  1.00  0.00     0.147 C
BRANCH  27  28
HETATM   28  C6  UNL     1      14.467  20.733  16.149  1.00  0.00     0.058 C
BRANCH  28  29
HETATM   29  C5  UNL     1      14.310  19.929  17.415  1.00  0.00     0.107 C
BRANCH  29  30
HETATM   30  C4  UNL     1      12.959  19.327  17.488  1.00  0.00     0.231 C
HETATM   31  N1  UNL     1      12.728  17.937  17.297  1.00  0.00    -0.254 N
ATOM     32  H1  UNL     1      13.528  17.335  17.101  1.00  0.00     0.181 HD
HETATM   33  O3  UNL     1      11.925  20.040  17.730  1.00  0.00    -0.273 OA
BRANCH  31  34
HETATM   34  S1  UNL     1      11.176  17.225  17.382  1.00  0.00     0.233 S
HETATM   35  O1  UNL     1      11.299  15.748  17.026  1.00  0.00    -0.206 OA
HETATM   36  O2  UNL     1      10.293  17.906  16.371  1.00  0.00    -0.206 OA
BRANCH  34  37
HETATM   37  C3  UNL     1      10.400  17.342  18.943  1.00  0.00     0.163 C
BRANCH  37  38
HETATM   38  C2  UNL     1      11.259  16.969  20.117  1.00  0.00     0.012 C
HETATM   39  C1  UNL     1      11.892  18.121  20.830  1.00  0.00     0.006 C
ENDBRANCH  37  38
ENDBRANCH  34  37
ENDBRANCH  31  34
ENDBRANCH  29  30
ENDBRANCH  28  29
ENDBRANCH  27  28
BRANCH  27  40
HETATM   40  O4  UNL     1      14.227  22.670  17.312  1.00  0.00    -0.374 OA
HETATM   41  C8  UNL     1      14.486  23.579  18.241  1.00  0.00     0.203 C
ENDBRANCH  27  40
BRANCH  27  42
HETATM   42  C25 UNL     1      15.287  22.878  15.229  1.00  0.00    -0.011 C
HETATM   43  C26 UNL     1      16.286  23.993  15.253  1.00  0.00     0.018 C
HETATM   44  C27 UNL     1      15.494  22.106  13.974  1.00  0.00     0.018 C
HETATM   45  C28 UNL     1      13.914  23.560  15.026  1.00  0.00     0.018 C
ENDBRANCH  27  42
ENDBRANCH   1  27
TORSDOF 17
ENDMDL