MODEL 5
REMARK VINA RESULT: -7.178910473      1.102      2.415
REMARK  18 active torsions:
REMARK  status: ('A' for Active; 'I' for Inactive)
REMARK    1  A    between atoms: O1_2  and  C2_3
REMARK    2  A    between atoms: C2_3  and  C3_5
REMARK    3  A    between atoms: C3_5  and  C4_6
REMARK    4  A    between atoms: C4_6  and  C5_7
REMARK    5  A    between atoms: C5_7  and  C6_8
REMARK    6  A    between atoms: C6_8  and  C7_9
REMARK    7  A    between atoms: C7_9  and  C8_10
REMARK    8  A    between atoms: N2_13  and  C9_15
REMARK    9  A    between atoms: C9_15  and  C10_16
REMARK   10  A    between atoms: C9_15  and  N7_44
REMARK   11  A    between atoms: C10_16  and  N3_17
REMARK   12  A    between atoms: N3_17  and  C11_18
REMARK       I    between atoms: N3_17  and  C17_26
REMARK   13  A    between atoms: C11_18  and  C12_19
REMARK   14  A    between atoms: C12_19  and  O5_21
REMARK   15  A    between atoms: O5_21  and  C13_22
REMARK       I    between atoms: C17_26  and  N5_33
REMARK   16  A    between atoms: N4_27  and  C18_29
REMARK   17  A    between atoms: N5_33  and  C22_35
REMARK   18  A    between atoms: C22_35  and  C23_36
REMARK       I    between atoms: N7_44  and  C28_45
ROOT
HETATM    1  N3  UNL     1      21.755  26.476  18.283  1.00  0.00    -0.180 N
HETATM    2  C17 UNL     1      23.158  26.260  17.995  1.00  0.00     0.677 C
HETATM    3  N4  UNL     1      24.025  26.086  18.880  1.00  0.00    -0.218 N
ATOM      4  H4  UNL     1      23.629  26.119  19.820  1.00  0.00     0.178 HD
HETATM    5  N5  UNL     1      23.566  26.194  16.622  1.00  0.00    -0.226 N
ATOM      6  H5  UNL     1      23.827  25.278  16.256  1.00  0.00     0.177 HD
ENDROOT
BRANCH   1   7
HETATM    7  C10 UNL     1      20.926  25.377  17.810  1.00  0.00     0.239 C
BRANCH   7   8
HETATM    8  C9  UNL     1      20.192  25.615  16.560  1.00  0.00     0.178 C
BRANCH   8   9
HETATM    9  N2  UNL     1      19.491  24.451  16.070  1.00  0.00    -0.341 N
HETATM   10  C5  UNL     1      18.174  24.296  16.155  1.00  0.00    -0.010 C
ATOM     11  H2  UNL     1      20.037  23.707  15.635  1.00  0.00     0.167 HD
BRANCH  10  12
HETATM   12  C4  UNL     1      17.443  25.369  16.777  1.00  0.00     0.062 C
BRANCH  12  13
HETATM   13  C3  UNL     1      16.715  25.150  18.053  1.00  0.00     0.117 C
BRANCH  13  14
HETATM   14  C2  UNL     1      17.214  24.197  19.026  1.00  0.00     0.258 C
HETATM   15  O2  UNL     1      18.104  24.430  19.839  1.00  0.00    -0.265 OA
BRANCH  14  16
HETATM   16  O1  UNL     1      16.669  22.889  19.079  1.00  0.00    -0.326 OA
HETATM   17  C1  UNL     1      17.529  21.765  19.100  1.00  0.00     0.213 C
ENDBRANCH  14  16
ENDBRANCH  13  14
ENDBRANCH  12  13
ENDBRANCH  10  12
BRANCH  10  18
HETATM   18  C6  UNL     1      17.731  22.999  15.624  1.00  0.00     0.061 C
BRANCH  18  19
HETATM   19  C7  UNL     1      16.365  23.019  14.976  1.00  0.00     0.105 C
BRANCH  19  20
HETATM   20  C8  UNL     1      15.389  22.233  15.768  1.00  0.00     0.231 C
HETATM   21  N1  UNL     1      14.345  22.807  16.511  1.00  0.00    -0.062 NA
HETATM   22  O3  UNL     1      15.498  20.982  15.779  1.00  0.00    -0.277 OA
ENDBRANCH  19  20
ENDBRANCH  18  19
ENDBRANCH  10  18
ENDBRANCH   8   9
BRANCH   8  23
HETATM   23  N7  UNL     1      20.115  26.642  15.952  1.00  0.00    -0.355 NA
HETATM   24  C28 UNL     1      20.034  27.774  15.282  1.00  0.00     0.289 C
HETATM   25  C29 UNL     1      19.282  27.872  13.977  1.00  0.00     0.135 C
HETATM   26  O6  UNL     1      20.567  28.868  15.661  1.00  0.00    -0.258 OA
ENDBRANCH   8  23
ENDBRANCH   7   8
ENDBRANCH   1   7
BRANCH   1  27
HETATM   27  C11 UNL     1      21.143  27.534  18.967  1.00  0.00     0.191 C
BRANCH  27  28
HETATM   28  C12 UNL     1      21.367  27.682  20.406  1.00  0.00     0.300 C
HETATM   29  O4  UNL     1      20.666  28.420  21.106  1.00  0.00    -0.259 OA
BRANCH  28  30
HETATM   30  O5  UNL     1      22.390  27.001  21.083  1.00  0.00    -0.307 OA
BRANCH  30  31
HETATM   31  C13 UNL     1      22.110  26.049  22.089  1.00  0.00     0.060 C
HETATM   32  C14 UNL     1      21.204  24.948  21.638  1.00  0.00     0.046 C
HETATM   33  C15 UNL     1      23.427  25.429  22.509  1.00  0.00     0.046 C
HETATM   34  C16 UNL     1      21.508  26.666  23.332  1.00  0.00     0.046 C
ENDBRANCH  30  31
ENDBRANCH  28  30
ENDBRANCH  27  28
ENDBRANCH   1  27
BRANCH   3  35
HETATM   35  C18 UNL     1      25.404  25.858  18.894  1.00  0.00     0.036 C
HETATM   36  C19 UNL     1      26.184  27.138  19.005  1.00  0.00     0.038 C
HETATM   37  C20 UNL     1      25.837  24.976  20.080  1.00  0.00     0.038 C
HETATM   38  C21 UNL     1      25.925  25.132  17.664  1.00  0.00     0.038 C
ENDBRANCH   3  35
BRANCH   5  39
HETATM   39  C22 UNL     1      23.639  27.307  15.722  1.00  0.00     0.142 C
BRANCH  39  40
HETATM   40  C23 UNL     1      24.863  28.137  16.063  1.00  0.00     0.007 C
HETATM   41  C24 UNL     1      24.528  29.622  15.988  1.00  0.00     0.034 C
HETATM   42  C25 UNL     1      25.797  30.449  16.108  1.00  0.00     0.232 C
HETATM   43  N6  UNL     1      26.902  29.660  16.605  1.00  0.00    -0.075 N
HETATM   44  C26 UNL     1      27.219  28.568  15.724  1.00  0.00     0.232 C
ATOM     45  H62 UNL     1      27.721  30.240  16.786  1.00  0.00     0.277 HD
ATOM     46  H61 UNL     1      26.725  29.331  17.555  1.00  0.00     0.277 HD
HETATM   47  C27 UNL     1      26.006  27.897  15.131  1.00  0.00     0.034 C
ENDBRANCH  39  40
ENDBRANCH   5  39
TORSDOF 18
ENDMDL