MODEL 3
REMARK VINA RESULT: -7.350310681      4.485      9.224
REMARK  12 active torsions:
REMARK  status: ('A' for Active; 'I' for Inactive)
REMARK    1  A    between atoms: C2_2  and  C3_3
REMARK    2  A    between atoms: C3_3  and  C4_4
REMARK    3  A    between atoms: C3_3  and  N1_10
REMARK    4  A    between atoms: C4_4  and  C5_5
REMARK       I    between atoms: N1_10  and  C9_12
REMARK    5  A    between atoms: C9_12  and  C10_14
REMARK    6  A    between atoms: N2_15  and  O2_16
REMARK    7  A    between atoms: C11_18  and  C12_19
REMARK    8  A    between atoms: C11_18  and  C14_21
REMARK    9  A    between atoms: C16_25  and  C17_26
REMARK   10  A    between atoms: C16_25  and  C23_35
REMARK   11  A    between atoms: C17_26  and  C18_27
REMARK       I    between atoms: C18_27  and  N4_29
REMARK       I    between atoms: C23_35  and  N5_37
REMARK   12  A    between atoms: N6_40  and  C26_41
ROOT
HETATM    1  C10 UNL     1      20.652  24.934  19.415  1.00  0.00     0.197 C
HETATM    2  N2  UNL     1      20.549  25.514  20.551  1.00  0.00    -0.210 N
HETATM    3  C11 UNL     1      21.725  26.026  21.247  1.00  0.00     0.130 C
HETATM    4  N3  UNL     1      22.825  26.382  20.459  1.00  0.00    -0.361 N
ATOM      5  H3  UNL     1      23.561  26.980  20.835  1.00  0.00     0.158 HD
HETATM    6  C16 UNL     1      22.901  25.890  19.111  1.00  0.00     0.195 C
HETATM    7  N7  UNL     1      21.956  24.819  18.871  1.00  0.00    -0.336 N
ATOM      8  H7  UNL     1      22.223  24.002  18.324  1.00  0.00     0.164 HD
ENDROOT
BRANCH   6   9
HETATM    9  C17 UNL     1      24.283  25.345  18.842  1.00  0.00     0.167 C
BRANCH   9  10
HETATM   10  C18 UNL     1      25.372  26.090  19.497  1.00  0.00     0.224 C
HETATM   11  O3  UNL     1      25.371  27.340  19.460  1.00  0.00    -0.273 OA
HETATM   12  N4  UNL     1      26.439  25.458  20.180  1.00  0.00    -0.348 N
HETATM   13  C19 UNL     1      27.465  26.280  20.790  1.00  0.00     0.152 C
HETATM   14  C22 UNL     1      26.540  24.007  20.288  1.00  0.00     0.152 C
HETATM   15  C20 UNL     1      28.055  25.657  22.033  1.00  0.00     0.187 C
HETATM   16  O4  UNL     1      28.115  24.285  21.990  1.00  0.00    -0.388 OA
HETATM   17  C21 UNL     1      26.861  23.725  21.762  1.00  0.00     0.187 C
ENDBRANCH   9  10
ENDBRANCH   6   9
BRANCH   6  18
HETATM   18  C23 UNL     1      22.512  26.997  18.201  1.00  0.00     0.269 C
HETATM   19  O5  UNL     1      21.679  27.850  18.689  1.00  0.00    -0.268 OA
HETATM   20  N5  UNL     1      22.925  27.233  16.898  1.00  0.00    -0.345 N
HETATM   21  C24 UNL     1      22.394  28.430  16.219  1.00  0.00     0.156 C
HETATM   22  C29 UNL     1      23.815  26.481  16.057  1.00  0.00     0.156 C
HETATM   23  C25 UNL     1      23.397  28.929  15.182  1.00  0.00     0.292 C
HETATM   24  N6  UNL     1      24.716  28.725  15.698  1.00  0.00     0.091 N
HETATM   25  C28 UNL     1      25.081  27.329  15.828  1.00  0.00     0.292 C
BRANCH  24  26
HETATM   26  C26 UNL     1      25.735  29.455  14.990  1.00  0.00     0.268 C
HETATM   27  C27 UNL     1      27.070  28.772  14.972  1.00  0.00     0.037 C
ENDBRANCH  24  26
ENDBRANCH   6  18
BRANCH   3  28
HETATM   28  C12 UNL     1      22.027  24.950  22.282  1.00  0.00     0.051 C
HETATM   29  C13 UNL     1      23.454  24.785  22.631  1.00  0.00     0.009 C
ENDBRANCH   3  28
BRANCH   3  30
HETATM   30  C14 UNL     1      21.200  27.236  21.991  1.00  0.00     0.051 C
HETATM   31  C15 UNL     1      21.266  27.185  23.466  1.00  0.00     0.009 C
ENDBRANCH   3  30
BRANCH   1  32
HETATM   32  C9  UNL     1      19.472  24.409  18.709  1.00  0.00     0.287 C
HETATM   33  N1  UNL     1      19.332  24.573  17.305  1.00  0.00    -0.350 N
ATOM     34  H1  UNL     1      20.061  25.061  16.786  1.00  0.00     0.163 HD
HETATM   35  O1  UNL     1      18.562  23.804  19.330  1.00  0.00    -0.264 OA
BRANCH  33  36
HETATM   36  C3  UNL     1      18.184  24.067  16.596  1.00  0.00     0.085 C
BRANCH  36  37
HETATM   37  C2  UNL     1      17.974  24.762  15.279  1.00  0.00     0.021 C
HETATM   38  C1  UNL     1      18.914  25.909  15.049  1.00  0.00     0.007 C
ENDBRANCH  36  37
BRANCH  36  39
HETATM   39  C4  UNL     1      18.291  22.583  16.486  1.00  0.00     0.040 C
BRANCH  39  40
HETATM   40  C5  UNL     1      16.954  21.888  16.473  1.00  0.00     0.049 C
HETATM   41  C6  UNL     1      16.949  20.661  17.326  1.00  0.00     0.016 C
HETATM   42  C7  UNL     1      16.768  21.102  18.760  1.00  0.00     0.011 C
HETATM   43  C8  UNL     1      15.449  21.858  18.803  1.00  0.00     0.074 C
HETATM   44  S1  UNL     1      15.679  22.909  17.312  1.00  0.00    -0.164 SA
ENDBRANCH  39  40
ENDBRANCH  36  39
ENDBRANCH  33  36
ENDBRANCH   1  32
BRANCH   2  45
HETATM   45  O2  UNL     1      19.318  25.658  21.137  1.00  0.00    -0.283 OA
ATOM     46  H2  UNL     1      19.034  26.513  21.438  1.00  0.00     0.245 HD
ENDBRANCH   2  45
TORSDOF 12
ENDMDL