MODEL 3
REMARK VINA RESULT: -8.099384750      1.425      2.227
REMARK  16 active torsions:
REMARK  status: ('A' for Active; 'I' for Inactive)
REMARK    1  A    between atoms: C2_2  and  C3_3
REMARK    2  A    between atoms: C4_4  and  C5_5
REMARK    3  A    between atoms: C5_5  and  C6_6
REMARK    4  A    between atoms: C6_6  and  C7_7
REMARK    5  A    between atoms: C8_8  and  C9_9
REMARK       I    between atoms: C9_9  and  N1_11
REMARK    6  A    between atoms: N1_11  and  O2_12
REMARK    7  A    between atoms: N1_11  and  C10_14
REMARK       I    between atoms: N2_18  and  C13_19
REMARK    8  A    between atoms: C13_19  and  C14_21
REMARK    9  A    between atoms: C14_21  and  C15_22
REMARK   10  A    between atoms: C22_35  and  C23_36
REMARK   11  A    between atoms: C23_36  and  C24_37
REMARK   12  A    between atoms: C24_37  and  C25_38
REMARK   13  A    between atoms: C25_38  and  O6_40
REMARK   14  A    between atoms: O6_40  and  C26_41
REMARK   15  A    between atoms: C30_45  and  C31_46
REMARK   16  A    between atoms: C31_46  and  O7_47
ROOT
HETATM    1  C7  UNL     1      21.105  25.180  20.346  1.00  0.00     0.100 C
HETATM    2  C8  UNL     1      21.990  25.315  21.538  1.00  0.00     0.105 C
HETATM    3  C11 UNL     1      21.364  26.570  22.169  1.00  0.00     0.036 C
HETATM    4  C12 UNL     1      20.619  27.267  21.077  1.00  0.00     0.127 C
HETATM    5  N2  UNL     1      21.032  26.507  19.858  1.00  0.00    -0.346 N
HETATM    6  C13 UNL     1      21.220  27.163  18.635  1.00  0.00     0.224 C
HETATM    7  O4  UNL     1      21.067  28.438  18.613  1.00  0.00    -0.273 OA
ENDROOT
BRANCH   1   8
HETATM    8  C6  UNL     1      21.413  24.073  19.395  1.00  0.00     0.031 C
BRANCH   8   9
HETATM    9  C5  UNL     1      20.467  22.929  19.649  1.00  0.00     0.043 C
BRANCH   9  10
HETATM   10  C4  UNL     1      19.080  23.057  19.233  1.00  0.00    -0.029 A
HETATM   11  C3  UNL     1      18.584  23.693  18.126  1.00  0.00    -0.040 A
HETATM   12  C30 UNL     1      17.200  23.739  17.820  1.00  0.00    -0.005 A
HETATM   13  C22 UNL     1      16.344  23.117  18.676  1.00  0.00     0.018 A
HETATM   14  N5  UNL     1      16.817  22.473  19.793  1.00  0.00    -0.362 N
HETATM   15  C20 UNL     1      18.102  22.445  20.054  1.00  0.00     0.012 A
ATOM     16  H5  UNL     1      16.162  22.013  20.426  1.00  0.00     0.165 HD
HETATM   17  C21 UNL     1      18.580  21.706  21.268  1.00  0.00     0.068 C
BRANCH  11  18
HETATM   18  C2  UNL     1      19.483  24.380  17.184  1.00  0.00     0.035 C
HETATM   19  C1  UNL     1      19.683  23.735  15.856  1.00  0.00     0.010 C
ENDBRANCH  11  18
BRANCH  12  20
HETATM   20  C31 UNL     1      16.825  24.467  16.592  1.00  0.00     0.205 C
BRANCH  20  21
HETATM   21  O7  UNL     1      16.332  25.730  16.706  1.00  0.00    -0.396 OA
ATOM     22  H7  UNL     1      16.318  26.286  15.936  1.00  0.00     0.209 HD
ENDBRANCH  20  21
ENDBRANCH  12  20
BRANCH  13  23
HETATM   23  C23 UNL     1      14.880  23.035  18.423  1.00  0.00     0.067 C
BRANCH  23  24
HETATM   24  C24 UNL     1      14.320  21.648  18.628  1.00  0.00     0.117 C
BRANCH  24  25
HETATM   25  C25 UNL     1      13.911  21.138  17.280  1.00  0.00     0.259 C
HETATM   26  O5  UNL     1      12.823  20.558  17.103  1.00  0.00    -0.265 OA
BRANCH  25  27
HETATM   27  O6  UNL     1      14.736  21.298  16.183  1.00  0.00    -0.311 OA
BRANCH  27  28
HETATM   28  C26 UNL     1      14.317  21.764  14.933  1.00  0.00     0.060 C
HETATM   29  C27 UNL     1      13.497  23.047  15.052  1.00  0.00     0.045 C
HETATM   30  C28 UNL     1      13.570  20.747  14.122  1.00  0.00     0.045 C
HETATM   31  C29 UNL     1      15.562  22.165  14.131  1.00  0.00     0.045 C
ENDBRANCH  27  28
ENDBRANCH  25  27
ENDBRANCH  24  25
ENDBRANCH  23  24
ENDBRANCH  13  23
ENDBRANCH   9  10
ENDBRANCH   8   9
ENDBRANCH   1   8
BRANCH   2  32
HETATM   32  C9  UNL     1      23.418  25.567  21.246  1.00  0.00     0.256 C
HETATM   33  O1  UNL     1      23.790  25.664  20.055  1.00  0.00    -0.270 OA
HETATM   34  N1  UNL     1      24.395  25.706  22.262  1.00  0.00    -0.164 N
BRANCH  34  35
HETATM   35  O2  UNL     1      24.034  25.606  23.554  1.00  0.00    -0.278 OA
ATOM     36  H2  UNL     1      24.404  26.203  24.194  1.00  0.00     0.245 HD
ENDBRANCH  34  35
BRANCH  34  37
HETATM   37  C10 UNL     1      25.739  25.949  21.935  1.00  0.00     0.385 C
HETATM   38  O3  UNL     1      26.283  27.081  21.972  1.00  0.00    -0.281 OA
ENDBRANCH  34  37
ENDBRANCH   2  32
BRANCH   6  39
HETATM   39  C14 UNL     1      21.576  26.572  17.332  1.00  0.00     0.145 C
BRANCH  39  40
HETATM   40  C15 UNL     1      22.130  27.589  16.393  1.00  0.00    -0.002 A
HETATM   41  C16 UNL     1      21.432  28.236  15.399  1.00  0.00     0.030 A
HETATM   42  C17 UNL     1      20.000  28.098  15.018  1.00  0.00     0.070 C
HETATM   43  N3  UNL     1      22.315  29.055  14.810  1.00  0.00    -0.304 N
HETATM   44  N4  UNL     1      23.500  28.953  15.370  1.00  0.00    -0.304 N
ATOM     45  H3  UNL     1      22.097  29.674  14.029  1.00  0.00     0.186 HD
HETATM   46  C18 UNL     1      23.426  28.056  16.354  1.00  0.00     0.030 A
ATOM     47  H4  UNL     1      24.335  29.472  15.099  1.00  0.00     0.186 HD
HETATM   48  C19 UNL     1      24.570  27.651  17.241  1.00  0.00     0.070 C
ENDBRANCH  39  40
ENDBRANCH   6  39
TORSDOF 16
ENDMDL