MODEL 2
REMARK VINA RESULT: -7.964191439      2.735      9.610
REMARK  16 active torsions:
REMARK  status: ('A' for Active; 'I' for Inactive)
REMARK    1  A    between atoms: C2_2  and  C4_4
REMARK    2  A    between atoms: C4_4  and  C5_5
REMARK    3  A    between atoms: C5_5  and  N1_6
REMARK       I    between atoms: N1_6  and  C6_8
REMARK       I    between atoms: C6_8  and  N2_10
REMARK    4  A    between atoms: N2_10  and  C7_12
REMARK    5  A    between atoms: C7_12  and  C8_13
REMARK    6  A    between atoms: C7_12  and  C12_21
REMARK    7  A    between atoms: C8_13  and  C9_14
REMARK    8  A    between atoms: C9_14  and  C10_15
REMARK    9  A    between atoms: C10_15  and  C11_16
REMARK   10  A    between atoms: C11_16  and  N3_17
REMARK       I    between atoms: C12_21  and  N4_23
REMARK   11  A    between atoms: N5_26  and  C15_27
REMARK   12  A    between atoms: C15_27  and  O3_28
REMARK   13  A    between atoms: C15_27  and  N6_30
REMARK   14  A    between atoms: C17_33  and  C18_34
REMARK   15  A    between atoms: C18_34  and  O5_36
REMARK   16  A    between atoms: O5_36  and  C20_37
ROOT
HETATM    1  C12 UNL     1      15.120  22.953  17.955  1.00  0.00     0.242 C
HETATM    2  O2  UNL     1      14.212  23.849  18.199  1.00  0.00    -0.271 OA
HETATM    3  N4  UNL     1      15.992  23.284  16.919  1.00  0.00    -0.347 N
HETATM    4  C13 UNL     1      17.137  22.477  16.477  1.00  0.00     0.145 C
HETATM    5  C14 UNL     1      18.084  23.320  15.661  1.00  0.00     0.146 C
HETATM    6  N5  UNL     1      18.313  24.663  16.327  1.00  0.00    -0.344 N
HETATM    7  C28 UNL     1      17.098  25.350  16.548  1.00  0.00     0.146 C
HETATM    8  C29 UNL     1      15.861  24.516  16.119  1.00  0.00     0.145 C
ENDROOT
BRANCH   1   9
HETATM    9  C7  UNL     1      15.126  21.744  18.767  1.00  0.00     0.178 C
BRANCH   9  10
HETATM   10  N2  UNL     1      14.602  20.597  18.011  1.00  0.00    -0.330 N
HETATM   11  C6  UNL     1      13.936  19.498  18.595  1.00  0.00     0.316 C
HETATM   12  N1  UNL     1      13.434  18.414  17.831  1.00  0.00    -0.343 N
HETATM   13  O1  UNL     1      13.781  19.479  19.836  1.00  0.00    -0.247 OA
ATOM     14  H1  UNL     1      13.544  18.452  16.817  1.00  0.00     0.164 HD
ATOM     15  H2  UNL     1      14.729  20.594  17.000  1.00  0.00     0.165 HD
BRANCH  12  16
HETATM   16  C5  UNL     1      12.782  17.271  18.391  1.00  0.00     0.125 C
BRANCH  16  17
HETATM   17  C4  UNL     1      11.297  17.448  18.475  1.00  0.00     0.023 C
BRANCH  17  18
HETATM   18  C2  UNL     1      10.768  17.331  19.872  1.00  0.00    -0.021 C
HETATM   19  C1  UNL     1       9.703  16.252  19.921  1.00  0.00     0.009 C
HETATM   20  C3  UNL     1      11.775  17.054  20.930  1.00  0.00     0.009 C
ENDBRANCH  17  18
ENDBRANCH  16  17
ENDBRANCH  12  16
ENDBRANCH   9  10
BRANCH   9  21
HETATM   21  C8  UNL     1      16.426  21.415  19.397  1.00  0.00     0.035 C
BRANCH  21  22
HETATM   22  C9  UNL     1      17.159  22.442  20.147  1.00  0.00     0.004 C
BRANCH  22  23
HETATM   23  C10 UNL     1      18.607  22.290  20.395  1.00  0.00     0.027 C
BRANCH  23  24
HETATM   24  C11 UNL     1      19.130  23.637  20.914  1.00  0.00     0.229 C
BRANCH  24  25
HETATM   25  N3  UNL     1      18.546  24.745  20.225  1.00  0.00    -0.079 N
ATOM     26  H33 UNL     1      19.125  25.579  20.312  1.00  0.00     0.274 HD
ATOM     27  H32 UNL     1      18.595  24.617  19.214  1.00  0.00     0.274 HD
ATOM     28  H31 UNL     1      17.589  24.927  20.529  1.00  0.00     0.274 HD
ENDBRANCH  24  25
ENDBRANCH  23  24
ENDBRANCH  22  23
ENDBRANCH  21  22
ENDBRANCH   9  21
ENDBRANCH   1   9
BRANCH   6  29
HETATM   29  C15 UNL     1      19.610  24.979  16.706  1.00  0.00     0.225 C
BRANCH  29  30
HETATM   30  O3  UNL     1      20.029  24.039  17.603  1.00  0.00    -0.332 OA
ATOM     31  H3  UNL     1      20.607  24.464  18.225  1.00  0.00     0.221 HD
ENDBRANCH  29  30
BRANCH  29  32
HETATM   32  N6  UNL     1      20.591  25.956  16.448  1.00  0.00    -0.265 N
HETATM   33  C16 UNL     1      21.100  26.660  17.601  1.00  0.00     0.235 C
HETATM   34  O4  UNL     1      20.434  26.508  18.687  1.00  0.00    -0.272 OA
HETATM   35  C17 UNL     1      22.264  27.529  17.718  1.00  0.00     0.116 C
HETATM   36  C24 UNL     1      22.410  28.422  16.492  1.00  0.00     0.093 C
HETATM   37  S1  UNL     1      22.536  27.343  15.081  1.00  0.00    -0.137 SA
HETATM   38  C25 UNL     1      21.025  26.280  15.127  1.00  0.00     0.085 C
HETATM   39  C26 UNL     1      20.050  26.997  14.246  1.00  0.00     0.051 C
HETATM   40  C27 UNL     1      21.534  24.987  14.461  1.00  0.00     0.051 C
BRANCH  35  41
HETATM   41  C18 UNL     1      23.536  26.869  18.105  1.00  0.00     0.132 C
HETATM   42  C19 UNL     1      24.751  27.706  17.631  1.00  0.00     0.040 C
BRANCH  41  43
HETATM   43  O5  UNL     1      23.630  26.549  19.394  1.00  0.00    -0.376 OA
BRANCH  43  44
HETATM   44  C20 UNL     1      23.949  25.413  19.948  1.00  0.00     0.050 C
HETATM   45  C21 UNL     1      24.409  25.724  21.392  1.00  0.00     0.045 C
HETATM   46  C22 UNL     1      22.759  24.494  20.104  1.00  0.00     0.045 C
HETATM   47  C23 UNL     1      25.039  24.570  19.360  1.00  0.00     0.045 C
ENDBRANCH  43  44
ENDBRANCH  41  43
ENDBRANCH  35  41
ENDBRANCH  29  32
ENDBRANCH   6  29
TORSDOF 16
ENDMDL