MODEL 2
REMARK VINA RESULT: -8.741187674      2.207      3.192
REMARK  13 active torsions:
REMARK  status: ('A' for Active; 'I' for Inactive)
REMARK    1  A    between atoms: C2_2  and  C3_3
REMARK    2  A    between atoms: C3_3  and  N1_5
REMARK       I    between atoms: N1_5  and  C5_7
REMARK       I    between atoms: C5_7  and  N2_9
REMARK    3  A    between atoms: C8_13  and  N3_14
REMARK       I    between atoms: N3_14  and  C9_16
REMARK    4  A    between atoms: C9_16  and  C10_18
REMARK    5  A    between atoms: C10_18  and  C11_20
REMARK    6  A    between atoms: C11_20  and  C12_21
REMARK    7  A    between atoms: C11_20  and  N4_25
REMARK    8  A    between atoms: C12_21  and  C13_22
REMARK       I    between atoms: N4_25  and  C16_27
REMARK    9  A    between atoms: C16_27  and  C17_29
REMARK       I    between atoms: N5_36  and  C24_37
REMARK   10  A    between atoms: C24_37  and  O7_39
REMARK   11  A    between atoms: O7_39  and  C25_40
REMARK   12  A    between atoms: C25_40  and  C26_41
REMARK   13  A    between atoms: C26_41  and  S1_42
ROOT
HETATM    1  N1  UNL     1      20.120  25.015  15.067  1.00  0.00    -0.339 N
ATOM      2  H1  UNL     1      20.172  24.019  14.853  1.00  0.00     0.164 HD
HETATM    3  C5  UNL     1      18.892  25.566  15.504  1.00  0.00     0.320 C
HETATM    4  O1  UNL     1      18.873  26.817  15.763  1.00  0.00    -0.247 OA
HETATM    5  N2  UNL     1      17.706  24.851  15.680  1.00  0.00    -0.310 N
HETATM    6  C6  UNL     1      16.501  25.501  16.162  1.00  0.00     0.211 C
HETATM    7  C7  UNL     1      16.047  24.712  17.370  1.00  0.00     0.187 C
HETATM    8  O2  UNL     1      15.901  25.293  18.408  1.00  0.00    -0.292 OA
HETATM    9  C8  UNL     1      15.815  23.261  17.181  1.00  0.00     0.265 C
HETATM   10  N5  UNL     1      16.998  22.749  16.494  1.00  0.00    -0.283 N
HETATM   11  C24 UNL     1      17.583  21.524  16.970  1.00  0.00     0.366 C
HETATM   12  O6  UNL     1      18.601  20.989  16.481  1.00  0.00    -0.238 OA
HETATM   13  C28 UNL     1      17.607  23.441  15.404  1.00  0.00     0.262 C
ENDROOT
BRANCH   9  14
HETATM   14  N3  UNL     1      14.614  23.101  16.432  1.00  0.00    -0.326 N
HETATM   15  C9  UNL     1      14.277  21.956  15.675  1.00  0.00     0.291 C
HETATM   16  O3  UNL     1      15.035  20.974  15.541  1.00  0.00    -0.264 OA
ATOM     17  H3  UNL     1      13.945  23.872  16.443  1.00  0.00     0.165 HD
BRANCH  15  18
HETATM   18  C10 UNL     1      12.993  21.913  15.026  1.00  0.00     0.238 C
HETATM   19  O4  UNL     1      12.532  23.030  14.604  1.00  0.00    -0.285 OA
BRANCH  18  20
HETATM   20  C11 UNL     1      12.197  20.672  14.829  1.00  0.00     0.164 C
BRANCH  20  21
HETATM   21  C12 UNL     1      12.329  20.015  13.537  1.00  0.00     0.037 C
BRANCH  21  22
HETATM   22  C13 UNL     1      11.114  19.337  12.967  1.00  0.00    -0.020 C
HETATM   23  C14 UNL     1      10.995  19.660  11.467  1.00  0.00     0.009 C
HETATM   24  C15 UNL     1      10.990  17.882  13.201  1.00  0.00     0.009 C
ENDBRANCH  21  22
ENDBRANCH  20  21
BRANCH  20  25
HETATM   25  N4  UNL     1      12.506  19.872  16.020  1.00  0.00    -0.348 N
HETATM   26  C16 UNL     1      11.524  19.202  16.800  1.00  0.00     0.226 C
HETATM   27  O5  UNL     1      10.312  19.268  16.490  1.00  0.00    -0.273 OA
ATOM     28  H4  UNL     1      13.481  19.792  16.306  1.00  0.00     0.163 HD
BRANCH  26  29
HETATM   29  C17 UNL     1      11.989  18.422  17.996  1.00  0.00     0.037 C
HETATM   30  C18 UNL     1      12.096  16.971  17.621  1.00  0.00     0.025 C
HETATM   31  C19 UNL     1      10.996  18.553  19.120  1.00  0.00     0.019 C
HETATM   32  C20 UNL     1      11.430  17.684  20.285  1.00  0.00     0.001 C
HETATM   33  C21 UNL     1      12.896  17.689  20.520  1.00  0.00     0.000 C
HETATM   34  C22 UNL     1      13.680  18.757  19.844  1.00  0.00     0.001 C
HETATM   35  C23 UNL     1      13.343  18.989  18.392  1.00  0.00     0.019 C
ENDBRANCH  26  29
ENDBRANCH  20  25
ENDBRANCH  18  20
ENDBRANCH  15  18
ENDBRANCH   9  14
BRANCH  11  36
HETATM   36  O7  UNL     1      16.979  20.857  18.064  1.00  0.00    -0.303 OA
BRANCH  36  37
HETATM   37  C25 UNL     1      16.962  21.441  19.347  1.00  0.00     0.191 C
BRANCH  37  38
HETATM   38  C26 UNL     1      18.374  21.748  19.822  1.00  0.00     0.100 C
BRANCH  38  39
HETATM   39  S1  UNL     1      18.490  23.533  20.189  1.00  0.00    -0.171 SA
HETATM   40  C27 UNL     1      19.468  24.414  18.945  1.00  0.00     0.089 C
ENDBRANCH  38  39
ENDBRANCH  37  38
ENDBRANCH  36  37
ENDBRANCH  11  36
BRANCH   1  41
HETATM   41  C3  UNL     1      21.311  25.837  14.917  1.00  0.00     0.081 C
HETATM   42  C4  UNL     1      21.729  26.305  16.280  1.00  0.00     0.032 C
BRANCH  41  43
HETATM   43  C2  UNL     1      20.944  27.058  14.082  1.00  0.00     0.020 C
HETATM   44  C1  UNL     1      21.843  28.239  14.332  1.00  0.00     0.007 C
ENDBRANCH  41  43
ENDBRANCH   1  41
TORSDOF 13
ENDMDL