MODEL 5
REMARK VINA RESULT: -8.281503165      2.190      9.531
REMARK  14 active torsions:
REMARK  status: ('A' for Active; 'I' for Inactive)
REMARK    1  A    between atoms: C2_2  and  C4_4
REMARK    2  A    between atoms: C4_4  and  C5_5
REMARK    3  A    between atoms: C5_5  and  N1_6
REMARK    4  A    between atoms: C5_5  and  C11_15
REMARK       I    between atoms: N1_6  and  C6_8
REMARK    5  A    between atoms: C6_8  and  O2_10
REMARK    6  A    between atoms: O2_10  and  C7_11
REMARK       I    between atoms: C11_15  and  N2_17
REMARK    7  A    between atoms: N2_17  and  C12_19
REMARK    8  A    between atoms: C12_19  and  C13_20
REMARK    9  A    between atoms: C12_19  and  C17_24
REMARK   10  A    between atoms: C13_20  and  C14_21
REMARK   11  A    between atoms: C17_24  and  C18_26
REMARK       I    between atoms: N3_31  and  C21_32
REMARK   12  A    between atoms: C21_32  and  C22_34
REMARK   13  A    between atoms: C22_34  and  N4_35
REMARK   14  A    between atoms: C22_34  and  C26_42
REMARK       I    between atoms: N4_35  and  C23_37
REMARK       I    between atoms: C23_37  and  N5_39
ROOT
HETATM    1  C12 UNL     1      17.139  22.886  18.801  1.00  0.00     0.157 C
ENDROOT
BRANCH   1   2
HETATM    2  N2  UNL     1      16.071  21.928  18.685  1.00  0.00    -0.348 N
HETATM    3  C11 UNL     1      16.009  20.649  18.202  1.00  0.00     0.241 C
HETATM    4  O3  UNL     1      17.021  20.053  17.769  1.00  0.00    -0.271 OA
ATOM      5  H2  UNL     1      15.177  22.273  19.035  1.00  0.00     0.163 HD
BRANCH   3   6
HETATM    6  C5  UNL     1      14.719  19.887  18.168  1.00  0.00     0.179 C
BRANCH   6   7
HETATM    7  C4  UNL     1      14.039  20.080  19.498  1.00  0.00     0.038 C
BRANCH   7   8
HETATM    8  C2  UNL     1      13.643  18.901  20.272  1.00  0.00    -0.020 C
HETATM    9  C1  UNL     1      13.935  17.567  19.623  1.00  0.00     0.009 C
HETATM   10  C3  UNL     1      12.116  18.902  20.516  1.00  0.00     0.009 C
ENDBRANCH   7   8
ENDBRANCH   6   7
BRANCH   6  11
HETATM   11  N1  UNL     1      13.885  20.635  17.196  1.00  0.00    -0.324 N
HETATM   12  C6  UNL     1      12.787  20.011  16.579  1.00  0.00     0.362 C
HETATM   13  O1  UNL     1      12.511  18.789  16.861  1.00  0.00    -0.238 OA
ATOM     14  H1  UNL     1      14.109  21.605  16.973  1.00  0.00     0.165 HD
BRANCH  12  15
HETATM   15  O2  UNL     1      11.956  20.610  15.674  1.00  0.00    -0.294 OA
BRANCH  15  16
HETATM   16  C7  UNL     1      12.289  21.073  14.398  1.00  0.00     0.061 C
HETATM   17  C8  UNL     1      13.529  20.384  13.865  1.00  0.00     0.046 C
HETATM   18  C9  UNL     1      11.180  20.800  13.390  1.00  0.00     0.046 C
HETATM   19  C10 UNL     1      12.579  22.553  14.481  1.00  0.00     0.046 C
ENDBRANCH  15  16
ENDBRANCH  12  15
ENDBRANCH   6  11
ENDBRANCH   3   6
ENDBRANCH   1   2
BRANCH   1  20
HETATM   20  C13 UNL     1      17.552  23.176  20.239  1.00  0.00     0.037 C
BRANCH  20  21
HETATM   21  C14 UNL     1      19.024  23.216  20.463  1.00  0.00    -0.020 C
HETATM   22  C15 UNL     1      19.355  21.999  21.340  1.00  0.00     0.009 C
HETATM   23  C16 UNL     1      19.380  24.437  21.365  1.00  0.00     0.009 C
ENDBRANCH  20  21
ENDBRANCH   1  20
BRANCH   1  24
HETATM   24  C17 UNL     1      16.801  24.121  18.122  1.00  0.00     0.180 C
HETATM   25  O4  UNL     1      16.137  24.944  18.805  1.00  0.00    -0.293 OA
BRANCH  24  26
HETATM   26  C18 UNL     1      17.106  24.573  16.763  1.00  0.00     0.241 C
HETATM   27  C19 UNL     1      15.950  24.200  15.864  1.00  0.00     0.217 C
HETATM   28  O5  UNL     1      14.901  24.751  15.692  1.00  0.00    -0.283 OA
HETATM   29  S1  UNL     1      16.553  22.670  15.089  1.00  0.00    -0.070 SA
HETATM   30  C20 UNL     1      18.187  22.642  15.949  1.00  0.00     0.209 C
HETATM   31  N3  UNL     1      18.304  24.101  16.158  1.00  0.00    -0.322 N
HETATM   32  C21 UNL     1      19.460  24.802  15.732  1.00  0.00     0.244 C
HETATM   33  O6  UNL     1      20.444  24.124  15.261  1.00  0.00    -0.271 OA
BRANCH  32  34
HETATM   34  C22 UNL     1      19.648  26.265  15.778  1.00  0.00     0.181 C
BRANCH  34  35
HETATM   35  N4  UNL     1      20.944  26.593  16.367  1.00  0.00    -0.329 N
HETATM   36  C23 UNL     1      21.222  26.480  17.732  1.00  0.00     0.318 C
HETATM   37  O7  UNL     1      20.355  26.083  18.550  1.00  0.00    -0.247 OA
HETATM   38  N5  UNL     1      22.504  26.813  18.233  1.00  0.00    -0.343 N
HETATM   39  C24 UNL     1      23.593  27.275  17.393  1.00  0.00     0.154 C
HETATM   40  C25 UNL     1      22.797  26.706  19.667  1.00  0.00     0.154 C
ATOM     41  H4  UNL     1      21.686  26.921  15.749  1.00  0.00     0.165 HD
ENDBRANCH  34  35
BRANCH  34  42
HETATM   42  C26 UNL     1      19.676  26.911  14.406  1.00  0.00     0.009 C
HETATM   43  C27 UNL     1      20.308  28.306  14.491  1.00  0.00     0.012 C
HETATM   44  C28 UNL     1      18.216  27.039  13.966  1.00  0.00     0.012 C
ENDBRANCH  34  42
ENDBRANCH  32  34
ENDBRANCH  24  26
ENDBRANCH   1  24
TORSDOF 14
ENDMDL