MODEL 5
REMARK VINA RESULT: -9.696824032      1.842      2.868
REMARK  13 active torsions:
REMARK  status: ('A' for Active; 'I' for Inactive)
REMARK    1  A    between atoms: C2_2  and  C3_3
REMARK    2  A    between atoms: C5_7  and  N2_8
REMARK       I    between atoms: N3_11  and  C8_12
REMARK    3  A    between atoms: C8_12  and  C9_14
REMARK    4  A    between atoms: C9_14  and  N4_15
REMARK    5  A    between atoms: C9_14  and  C24_42
REMARK    6  A    between atoms: C10_17  and  O2_18
REMARK    7  A    between atoms: C10_17  and  C11_20
REMARK    8  A    between atoms: C11_20  and  N5_21
REMARK    9  A    between atoms: C11_20  and  C20_38
REMARK       I    between atoms: N5_21  and  C12_23
REMARK   10  A    between atoms: C12_23  and  C13_25
REMARK   11  A    between atoms: C13_25  and  N6_26
REMARK       I    between atoms: N6_26  and  C14_28
REMARK   12  A    between atoms: C14_28  and  C15_30
REMARK   13  A    between atoms: C24_42  and  C26_44
ROOT
HETATM    1  N4  UNL     1      18.940  25.679  17.915  1.00  0.00    -0.359 N
ATOM      2  H4  UNL     1      18.602  26.308  18.644  1.00  0.00     0.162 HD
HETATM    3  C10 UNL     1      19.775  24.687  18.334  1.00  0.00     0.136 C
ENDROOT
BRANCH   1   4
HETATM    4  C9  UNL     1      18.456  25.970  16.540  1.00  0.00     0.179 C
BRANCH   4   5
HETATM    5  C8  UNL     1      17.898  24.753  15.963  1.00  0.00     0.243 C
HETATM    6  N3  UNL     1      16.778  24.034  16.443  1.00  0.00    -0.347 N
HETATM    7  C7  UNL     1      16.301  22.830  15.744  1.00  0.00     0.145 C
HETATM    8  C28 UNL     1      16.053  24.419  17.634  1.00  0.00     0.145 C
HETATM    9  C6  UNL     1      14.778  22.797  15.961  1.00  0.00     0.144 C
HETATM   10  N2  UNL     1      14.601  22.441  17.354  1.00  0.00    -0.364 N
HETATM   11  C29 UNL     1      15.301  23.301  18.301  1.00  0.00     0.144 C
HETATM   12  O1  UNL     1      18.444  24.241  14.910  1.00  0.00    -0.271 OA
BRANCH  10  13
HETATM   13  C5  UNL     1      13.820  21.340  17.782  1.00  0.00     0.103 A
HETATM   14  N1  UNL     1      12.726  20.972  17.041  1.00  0.00    -0.352 N
HETATM   15  C4  UNL     1      11.949  19.939  17.410  1.00  0.00     0.097 A
ATOM     16  H1  UNL     1      12.498  21.492  16.193  1.00  0.00     0.166 HD
HETATM   17  C3  UNL     1      12.191  19.192  18.541  1.00  0.00    -0.037 A
HETATM   18  C31 UNL     1      13.270  19.529  19.304  1.00  0.00    -0.051 A
HETATM   19  C30 UNL     1      14.055  20.596  18.902  1.00  0.00     0.055 A
HETATM   20  C32 UNL     1      13.565  18.751  20.528  1.00  0.00     0.049 C
BRANCH  17  21
HETATM   21  C2  UNL     1      11.327  18.050  18.956  1.00  0.00     0.036 C
HETATM   22  C1  UNL     1      11.523  16.921  17.973  1.00  0.00     0.010 C
ENDBRANCH  17  21
ENDBRANCH  10  13
ENDBRANCH   4   5
BRANCH   4  23
HETATM   23  C24 UNL     1      19.610  26.606  15.868  1.00  0.00     0.013 C
HETATM   24  C25 UNL     1      20.479  27.408  16.852  1.00  0.00     0.012 C
BRANCH  23  25
HETATM   25  C26 UNL     1      19.446  27.422  14.658  1.00  0.00     0.002 C
HETATM   26  C27 UNL     1      20.595  28.268  14.216  1.00  0.00     0.005 C
ENDBRANCH  23  25
ENDBRANCH   4  23
ENDBRANCH   1   4
BRANCH   3  27
HETATM   27  O2  UNL     1      20.160  23.899  17.374  1.00  0.00    -0.348 OA
ATOM     28  H2  UNL     1      19.493  23.760  16.713  1.00  0.00     0.219 HD
ENDBRANCH   3  27
BRANCH   3  29
HETATM   29  C11 UNL     1      20.314  24.355  19.662  1.00  0.00     0.166 C
BRANCH  29  30
HETATM   30  N5  UNL     1      21.734  24.056  19.617  1.00  0.00    -0.347 N
HETATM   31  C12 UNL     1      22.759  24.943  19.910  1.00  0.00     0.236 C
HETATM   32  O3  UNL     1      22.382  26.131  20.251  1.00  0.00    -0.272 OA
ATOM     33  H5  UNL     1      22.001  23.110  19.345  1.00  0.00     0.163 HD
BRANCH  31  34
HETATM   34  C13 UNL     1      24.205  24.727  19.880  1.00  0.00     0.225 C
BRANCH  34  35
HETATM   35  N6  UNL     1      24.850  24.857  18.590  1.00  0.00    -0.348 N
HETATM   36  C14 UNL     1      25.414  26.083  18.193  1.00  0.00     0.256 C
HETATM   37  O4  UNL     1      25.297  27.042  19.041  1.00  0.00    -0.267 OA
ATOM     38  H6  UNL     1      24.894  24.053  17.963  1.00  0.00     0.163 HD
BRANCH  36  39
HETATM   39  C15 UNL     1      26.098  26.412  16.984  1.00  0.00     0.087 A
HETATM   40  C16 UNL     1      27.399  26.192  16.617  1.00  0.00     0.047 A
HETATM   41  C17 UNL     1      28.483  25.544  17.379  1.00  0.00     0.071 C
HETATM   42  N7  UNL     1      27.576  26.695  15.347  1.00  0.00    -0.265 N
HETATM   43  O5  UNL     1      26.459  27.192  14.956  1.00  0.00    -0.242 OA
ATOM     44  H7  UNL     1      28.443  26.676  14.811  1.00  0.00     0.194 HD
HETATM   45  C18 UNL     1      25.552  27.059  15.867  1.00  0.00     0.090 A
HETATM   46  C19 UNL     1      24.135  27.505  15.794  1.00  0.00     0.080 C
ENDBRANCH  36  39
ENDBRANCH  34  35
ENDBRANCH  31  34
ENDBRANCH  29  30
BRANCH  29  47
HETATM   47  C20 UNL     1      19.621  23.376  20.501  1.00  0.00    -0.023 C
HETATM   48  C21 UNL     1      19.199  22.092  19.769  1.00  0.00     0.017 C
HETATM   49  C22 UNL     1      18.272  23.931  21.000  1.00  0.00     0.017 C
HETATM   50  C23 UNL     1      20.374  22.990  21.760  1.00  0.00     0.017 C
ENDBRANCH  29  47
ENDBRANCH   3  29
TORSDOF 13
ENDMDL