MODEL 5
REMARK VINA RESULT: -7.989156502      2.472      5.183
REMARK  15 active torsions:
REMARK  status: ('A' for Active; 'I' for Inactive)
REMARK    1  A    between atoms: C2_2  and  C3_3
REMARK    2  A    between atoms: C3_3  and  N1_4
REMARK       I    between atoms: N1_4  and  C4_6
REMARK    3  A    between atoms: C4_6  and  C5_8
REMARK       I    between atoms: N2_9  and  C6_10
REMARK    4  A    between atoms: C6_10  and  C7_12
REMARK    5  A    between atoms: C7_12  and  C8_13
REMARK    6  A    between atoms: C7_12  and  C10_15
REMARK    7  A    between atoms: C10_15  and  N3_16
REMARK    8  A    between atoms: C10_15  and  C16_25
REMARK       I    between atoms: N3_16  and  C11_18
REMARK    9  A    between atoms: C11_18  and  O4_20
REMARK   10  A    between atoms: O4_20  and  C12_21
REMARK       I    between atoms: C16_25  and  N4_27
REMARK       I    between atoms: N5_30  and  C19_31
REMARK   11  A    between atoms: C19_31  and  O7_33
REMARK   12  A    between atoms: O7_33  and  C20_34
REMARK   13  A    between atoms: C20_34  and  C21_35
REMARK   14  A    between atoms: C21_35  and  C22_36
REMARK   15  A    between atoms: C22_36  and  C23_37
ROOT
HETATM    1  C10 UNL     1      17.208  23.204  16.763  1.00  0.00     0.192 C
ENDROOT
BRANCH   1   2
HETATM    2  C7  UNL     1      17.639  24.636  16.489  1.00  0.00     0.110 C
BRANCH   2   3
HETATM    3  C6  UNL     1      19.040  24.785  17.076  1.00  0.00     0.228 C
HETATM    4  N2  UNL     1      19.334  24.777  18.446  1.00  0.00    -0.312 N
HETATM    5  C5  UNL     1      20.650  24.903  18.996  1.00  0.00     0.216 C
HETATM    6  C27 UNL     1      18.388  24.642  19.504  1.00  0.00     0.361 C
HETATM    7  C28 UNL     1      20.441  24.949  20.483  1.00  0.00     0.149 C
HETATM    8  N6  UNL     1      19.011  25.264  20.646  1.00  0.00    -0.049 N
HETATM    9  C29 UNL     1      21.182  26.092  21.121  1.00  0.00     0.049 C
HETATM   10  C30 UNL     1      20.723  23.634  21.167  1.00  0.00     0.049 C
ATOM     11  H62 UNL     1      18.809  26.259  20.744  1.00  0.00     0.280 HD
ATOM     12  H61 UNL     1      18.618  24.983  21.544  1.00  0.00     0.280 HD
HETATM   13  O2  UNL     1      20.016  24.922  16.256  1.00  0.00    -0.273 OA
BRANCH   5  14
HETATM   14  C4  UNL     1      21.407  26.087  18.510  1.00  0.00     0.243 C
HETATM   15  N1  UNL     1      22.701  25.881  17.986  1.00  0.00    -0.356 N
ATOM     16  H1  UNL     1      23.077  24.934  17.956  1.00  0.00     0.162 HD
HETATM   17  O1  UNL     1      20.980  27.266  18.529  1.00  0.00    -0.271 OA
BRANCH  15  18
HETATM   18  C3  UNL     1      23.520  26.983  17.483  1.00  0.00     0.149 C
BRANCH  18  19
HETATM   19  C2  UNL     1      23.447  27.002  15.999  1.00  0.00    -0.018 C
HETATM   20  C1  UNL     1      23.034  28.116  15.401  1.00  0.00     0.008 C
ENDBRANCH  18  19
ENDBRANCH  15  18
ENDBRANCH   5  14
ENDBRANCH   2   3
BRANCH   2  21
HETATM   21  C8  UNL     1      17.826  24.941  15.036  1.00  0.00     0.012 C
HETATM   22  C9  UNL     1      17.977  26.346  14.620  1.00  0.00     0.006 C
ENDBRANCH   2  21
ENDBRANCH   1   2
BRANCH   1  23
HETATM   23  N3  UNL     1      16.705  22.624  15.502  1.00  0.00    -0.323 N
HETATM   24  C11 UNL     1      15.401  22.857  15.025  1.00  0.00     0.362 C
HETATM   25  O3  UNL     1      14.644  23.601  15.727  1.00  0.00    -0.238 OA
ATOM     26  H3  UNL     1      17.327  22.029  14.955  1.00  0.00     0.165 HD
BRANCH  24  27
HETATM   27  O4  UNL     1      14.884  22.349  13.869  1.00  0.00    -0.294 OA
BRANCH  27  28
HETATM   28  C12 UNL     1      13.800  21.451  13.893  1.00  0.00     0.061 C
HETATM   29  C13 UNL     1      13.671  20.685  12.592  1.00  0.00     0.046 C
HETATM   30  C14 UNL     1      14.020  20.431  15.002  1.00  0.00     0.046 C
HETATM   31  C15 UNL     1      12.508  22.198  14.154  1.00  0.00     0.046 C
ENDBRANCH  27  28
ENDBRANCH  24  27
ENDBRANCH   1  23
BRANCH   1  32
HETATM   32  C16 UNL     1      16.182  23.034  17.804  1.00  0.00     0.243 C
HETATM   33  O5  UNL     1      15.588  24.081  18.286  1.00  0.00    -0.271 OA
HETATM   34  N4  UNL     1      15.746  21.818  18.365  1.00  0.00    -0.347 N
HETATM   35  C17 UNL     1      14.749  21.846  19.426  1.00  0.00     0.146 C
HETATM   36  C26 UNL     1      16.242  20.566  17.897  1.00  0.00     0.146 C
HETATM   37  C18 UNL     1      13.654  20.889  19.048  1.00  0.00     0.148 C
HETATM   38  N5  UNL     1      14.283  19.594  18.888  1.00  0.00    -0.325 N
HETATM   39  C19 UNL     1      13.954  18.493  19.726  1.00  0.00     0.362 C
HETATM   40  C25 UNL     1      15.256  19.441  17.847  1.00  0.00     0.148 C
HETATM   41  O6  UNL     1      14.528  17.407  19.540  1.00  0.00    -0.238 OA
BRANCH  39  42
HETATM   42  O7  UNL     1      13.015  18.692  20.703  1.00  0.00    -0.304 OA
BRANCH  42  43
HETATM   43  C20 UNL     1      11.882  17.908  20.824  1.00  0.00     0.180 C
BRANCH  43  44
HETATM   44  C21 UNL     1      11.004  18.001  19.624  1.00  0.00     0.027 C
BRANCH  44  45
HETATM   45  C22 UNL     1      10.781  16.673  18.952  1.00  0.00     0.002 C
BRANCH  45  46
HETATM   46  C23 UNL     1      11.400  16.706  17.578  1.00  0.00    -0.004 C
HETATM   47  C24 UNL     1      11.344  18.160  17.124  1.00  0.00     0.005 C
ENDBRANCH  45  46
ENDBRANCH  44  45
ENDBRANCH  43  44
ENDBRANCH  42  43
ENDBRANCH  39  42
ENDBRANCH   1  32
TORSDOF 15
ENDMDL