MODEL 4
REMARK VINA RESULT: -7.879873864      2.983      4.458
REMARK  17 active torsions:
REMARK  status: ('A' for Active; 'I' for Inactive)
REMARK    1  A    between atoms: C2_2  and  O2_4
REMARK    2  A    between atoms: O2_4  and  C3_5
REMARK    3  A    between atoms: C3_5  and  O4_7
REMARK    4  A    between atoms: O4_7  and  C4_8
REMARK    5  A    between atoms: C5_9  and  O5_10
REMARK    6  A    between atoms: O5_10  and  S1_11
REMARK    7  A    between atoms: C7_16  and  S2_17
REMARK    8  A    between atoms: S2_17  and  C8_18
REMARK    9  A    between atoms: C9_19  and  C10_20
REMARK   10  A    between atoms: C11_25  and  N3_26
REMARK   11  A    between atoms: N3_26  and  C12_28
REMARK   12  A    between atoms: C12_28  and  C14_31
REMARK   13  A    between atoms: N5_33  and  O11_35
REMARK   14  A    between atoms: O11_35  and  C16_36
REMARK   15  A    between atoms: C16_36  and  C17_37
REMARK   16  A    between atoms: C21_44  and  N6_45
REMARK   17  A    between atoms: C22_49  and  O15_50
ROOT
HETATM    1  C12 UNL     1      42.325  41.862  40.889  1.00  0.00     0.234 C
HETATM    2  C13 UNL     1      43.307  42.670  40.169  1.00  0.00     0.090 C
HETATM    3  N4  UNL     1      44.072  43.299  39.576  1.00  0.00    -0.195 NA
ENDROOT
BRANCH   1   4
HETATM    4  N3  UNL     1      41.013  42.340  40.711  1.00  0.00    -0.381 N
ATOM      5  H3  UNL     1      40.768  43.215  41.177  1.00  0.00     0.156 HD
BRANCH   4   6
HETATM    6  C11 UNL     1      40.027  41.726  39.960  1.00  0.00     0.218 C
HETATM    7  N2  UNL     1      40.300  40.240  39.973  1.00  0.00    -0.110 NA
HETATM    8  N1  UNL     1      40.924  40.418  38.744  1.00  0.00    -0.277 N
HETATM    9  C9  UNL     1      41.879  40.109  37.699  1.00  0.00     0.145 C
HETATM   10  C18 UNL     1      40.033  41.484  38.506  1.00  0.00     0.152 C
HETATM   11  C8  UNL     1      42.022  40.837  36.620  1.00  0.00     0.081 C
HETATM   12  C20 UNL     1      41.301  42.111  36.499  1.00  0.00     0.170 C
HETATM   13  C19 UNL     1      40.514  42.611  37.636  1.00  0.00     0.115 C
HETATM   14  O14 UNL     1      41.375  42.745  35.412  1.00  0.00    -0.292 OA
BRANCH   9  15
HETATM   15  C10 UNL     1      42.695  38.891  37.885  1.00  0.00     0.229 C
HETATM   16  O9  UNL     1      42.540  37.844  37.236  1.00  0.00    -0.643 OA
HETATM   17  O10 UNL     1      43.718  38.899  38.855  1.00  0.00    -0.643 OA
ENDBRANCH   9  15
BRANCH  11  18
HETATM   18  S2  UNL     1      43.191  40.381  35.316  1.00  0.00    -0.117 SA
BRANCH  18  19
HETATM   19  C7  UNL     1      42.272  40.406  33.747  1.00  0.00     0.088 C
HETATM   20  C6  UNL     1      43.156  40.722  32.564  1.00  0.00     0.054 C
HETATM   21  C5  UNL     1      43.892  39.541  32.035  1.00  0.00     0.178 C
HETATM   22  C4  UNL     1      42.887  38.534  31.506  1.00  0.00     0.195 C
HETATM   23  C22 UNL     1      41.518  38.672  32.114  1.00  0.00     0.181 C
HETATM   24  C21 UNL     1      41.553  39.097  33.546  1.00  0.00     0.228 C
BRANCH  21  25
HETATM   25  O5  UNL     1      44.721  38.991  32.981  1.00  0.00    -0.249 OA
BRANCH  25  26
HETATM   26  S1  UNL     1      46.332  39.416  32.715  1.00  0.00     0.252 S
HETATM   27  O6  UNL     1      47.175  38.214  33.012  1.00  0.00    -0.572 OA
HETATM   28  O7  UNL     1      46.749  40.537  33.575  1.00  0.00    -0.572 OA
HETATM   29  O8  UNL     1      46.504  39.736  31.064  1.00  0.00    -0.572 OA
ENDBRANCH  25  26
ENDBRANCH  21  25
BRANCH  22  30
HETATM   30  O4  UNL     1      42.764  38.759  30.113  1.00  0.00    -0.287 OA
BRANCH  30  31
HETATM   31  C3  UNL     1      42.875  37.755  29.168  1.00  0.00     0.414 C
HETATM   32  O3  UNL     1      42.393  36.631  29.474  1.00  0.00    -0.229 OA
BRANCH  31  33
HETATM   33  O2  UNL     1      43.466  37.902  27.925  1.00  0.00    -0.221 OA
BRANCH  33  34
HETATM   34  C2  UNL     1      42.969  37.206  26.800  1.00  0.00     0.263 C
HETATM   35  C1  UNL     1      41.713  37.569  26.142  1.00  0.00     0.127 C
HETATM   36  O1  UNL     1      43.668  36.253  26.396  1.00  0.00    -0.265 OA
ENDBRANCH  33  34
ENDBRANCH  31  33
ENDBRANCH  30  31
ENDBRANCH  22  30
BRANCH  23  37
HETATM   37  O15 UNL     1      40.848  37.430  32.066  1.00  0.00    -0.391 OA
ATOM     38  H15 UNL     1      41.119  36.950  31.292  1.00  0.00     0.210 HD
ENDBRANCH  23  37
BRANCH  24  39
HETATM   39  N6  UNL     1      42.169  38.023  34.306  1.00  0.00    -0.071 N
ATOM     40  H63 UNL     1      42.580  38.370  35.173  1.00  0.00     0.274 HD
ATOM     41  H62 UNL     1      41.467  37.398  34.702  1.00  0.00     0.274 HD
ATOM     42  H61 UNL     1      42.852  37.510  33.749  1.00  0.00     0.274 HD
ENDBRANCH  24  39
ENDBRANCH  18  19
ENDBRANCH  11  18
ENDBRANCH   4   6
ENDBRANCH   1   4
BRANCH   1  43
HETATM   43  C14 UNL     1      42.640  42.015  42.410  1.00  0.00     0.042 C
HETATM   44  C15 UNL     1      41.570  42.102  43.399  1.00  0.00     0.069 C
HETATM   45  N5  UNL     1      43.862  42.064  42.709  1.00  0.00    -0.272 N
ATOM     46  H5  UNL     1      44.516  41.996  41.928  1.00  0.00     0.193 HD
BRANCH  45  47
HETATM   47  O11 UNL     1      44.410  42.194  43.924  1.00  0.00    -0.270 OA
BRANCH  47  48
HETATM   48  C16 UNL     1      45.841  41.948  43.999  1.00  0.00     0.314 C
BRANCH  48  49
HETATM   49  C17 UNL     1      46.365  41.939  42.638  1.00  0.00     0.200 C
HETATM   50  O12 UNL     1      46.469  43.031  41.989  1.00  0.00    -0.646 OA
HETATM   51  O13 UNL     1      46.774  40.784  41.978  1.00  0.00    -0.646 OA
ENDBRANCH  48  49
ENDBRANCH  47  48
ENDBRANCH  45  47
ENDBRANCH   1  43
TORSDOF 17
ENDMDL