MODEL 5
REMARK VINA RESULT: -7.530821842      3.467      6.650
REMARK  16 active torsions:
REMARK  status: ('A' for Active; 'I' for Inactive)
REMARK    1  A    between atoms: O1_2  and  C2_3
REMARK    2  A    between atoms: C4_5  and  C5_6
REMARK    3  A    between atoms: C5_6  and  C6_7
REMARK    4  A    between atoms: C5_6  and  O7_27
REMARK    5  A    between atoms: C5_6  and  C14_31
REMARK    6  A    between atoms: C6_7  and  N1_8
REMARK    7  A    between atoms: C9_14  and  N3_15
REMARK    8  A    between atoms: N4_22  and  S2_23
REMARK    9  A    between atoms: O7_27  and  C12_28
REMARK       I    between atoms: C14_31  and  N5_33
REMARK   10  A    between atoms: N5_33  and  C15_35
REMARK   11  A    between atoms: C15_35  and  C16_36
REMARK   12  A    between atoms: C16_36  and  S3_37
REMARK   13  A    between atoms: S3_37  and  N6_40
REMARK   14  A    between atoms: N6_40  and  N7_42
REMARK   15  A    between atoms: C18_46  and  O12_47
REMARK   16  A    between atoms: C20_49  and  O13_50
ROOT
HETATM    1  C5  UNL     1      44.808  39.728  34.185  1.00  0.00     0.212 C
ENDROOT
BRANCH   1   2
HETATM    2  C4  UNL     1      43.584  39.567  33.435  1.00  0.00    -0.003 A
HETATM    3  C3  UNL     1      42.973  38.444  32.961  1.00  0.00     0.050 A
HETATM    4  C2  UNL     1      41.802  38.428  32.226  1.00  0.00     0.104 A
HETATM    5  C20 UNL     1      41.181  39.614  31.936  1.00  0.00     0.133 A
HETATM    6  C18 UNL     1      41.735  40.792  32.382  1.00  0.00     0.104 A
HETATM    7  C17 UNL     1      42.905  40.764  33.111  1.00  0.00     0.050 A
BRANCH   4   8
HETATM    8  O1  UNL     1      41.254  37.208  31.777  1.00  0.00    -0.353 OA
HETATM    9  C1  UNL     1      42.108  36.193  31.302  1.00  0.00     0.210 C
ENDBRANCH   4   8
BRANCH   5  10
HETATM   10  O13 UNL     1      40.005  39.608  31.199  1.00  0.00    -0.356 OA
ATOM     11  H13 UNL     1      40.029  39.839  30.278  1.00  0.00     0.218 HD
ENDBRANCH   5  10
BRANCH   6  12
HETATM   12  O12 UNL     1      41.094  41.978  32.083  1.00  0.00    -0.353 OA
HETATM   13  C19 UNL     1      41.658  43.096  31.468  1.00  0.00     0.210 C
ENDBRANCH   6  12
ENDBRANCH   1   2
BRANCH   1  14
HETATM   14  C6  UNL     1      44.850  39.650  35.653  1.00  0.00     0.148 C
BRANCH  14  15
HETATM   15  N1  UNL     1      43.793  39.718  36.579  1.00  0.00    -0.209 N
HETATM   16  C7  UNL     1      43.269  40.928  36.851  1.00  0.00     0.295 A
HETATM   17  O2  UNL     1      43.710  41.996  36.291  1.00  0.00    -0.264 OA
HETATM   18  C8  UNL     1      42.207  41.122  37.744  1.00  0.00     0.128 A
HETATM   19  N2  UNL     1      41.609  42.249  38.099  1.00  0.00    -0.331 N
HETATM   20  C10 UNL     1      41.747  39.970  38.310  1.00  0.00     0.111 A
HETATM   21  C9  UNL     1      40.610  42.198  38.973  1.00  0.00     0.143 A
ATOM     22  H2  UNL     1      41.910  43.141  37.709  1.00  0.00     0.168 HD
HETATM   23  S1  UNL     1      40.476  40.538  39.329  1.00  0.00    -0.046 SA
HETATM   24  C11 UNL     1      42.294  38.742  38.010  1.00  0.00     0.298 A
HETATM   25  O3  UNL     1      41.775  37.763  38.600  1.00  0.00    -0.264 OA
HETATM   26  N4  UNL     1      43.335  38.590  37.127  1.00  0.00    -0.113 N
BRANCH  21  27
HETATM   27  N3  UNL     1      39.906  43.214  39.435  1.00  0.00    -0.380 N
ATOM     28  H32 UNL     1      39.260  43.832  38.944  1.00  0.00     0.158 HD
ATOM     29  H31 UNL     1      39.888  43.564  40.393  1.00  0.00     0.158 HD
ENDBRANCH  21  27
BRANCH  26  30
HETATM   30  S2  UNL     1      43.735  36.990  36.736  1.00  0.00     0.234 S
HETATM   31  O4  UNL     1      43.541  36.093  38.003  1.00  0.00    -0.576 OA
HETATM   32  O5  UNL     1      45.260  36.883  36.563  1.00  0.00    -0.576 OA
HETATM   33  O6  UNL     1      43.066  36.199  35.511  1.00  0.00    -0.576 OA
ENDBRANCH  26  30
ENDBRANCH  14  15
ENDBRANCH   1  14
BRANCH   1  34
HETATM   34  O7  UNL     1      45.439  40.982  33.910  1.00  0.00    -0.290 OA
BRANCH  34  35
HETATM   35  C12 UNL     1      46.524  41.519  34.443  1.00  0.00     0.256 C
HETATM   36  C13 UNL     1      46.425  42.793  35.242  1.00  0.00     0.126 C
HETATM   37  O8  UNL     1      47.641  41.034  34.330  1.00  0.00    -0.266 OA
ENDBRANCH  34  35
ENDBRANCH   1  34
BRANCH   1  38
HETATM   38  C14 UNL     1      45.763  38.771  33.470  1.00  0.00     0.263 C
HETATM   39  O9  UNL     1      45.971  37.644  33.942  1.00  0.00    -0.269 OA
HETATM   40  N5  UNL     1      46.432  39.121  32.270  1.00  0.00    -0.357 N
ATOM     41  H5  UNL     1      46.256  40.047  31.879  1.00  0.00     0.162 HD
BRANCH  40  42
HETATM   42  C15 UNL     1      47.335  38.265  31.574  1.00  0.00     0.139 C
BRANCH  42  43
HETATM   43  C16 UNL     1      48.761  38.672  31.882  1.00  0.00     0.184 C
BRANCH  43  44
HETATM   44  S3  UNL     1      49.432  37.687  33.203  1.00  0.00     0.244 S
HETATM   45  O10 UNL     1      50.925  37.599  33.127  1.00  0.00    -0.204 OA
HETATM   46  O11 UNL     1      48.898  36.268  33.097  1.00  0.00    -0.204 OA
BRANCH  44  47
HETATM   47  N6  UNL     1      49.022  38.389  34.725  1.00  0.00    -0.234 N
ATOM     48  H6  UNL     1      49.242  39.337  35.033  1.00  0.00     0.199 HD
BRANCH  47  49
HETATM   49  N7  UNL     1      48.323  37.407  35.467  1.00  0.00    -0.336 N
ATOM     50  H72 UNL     1      48.718  36.533  35.814  1.00  0.00     0.177 HD
ATOM     51  H71 UNL     1      47.365  37.739  35.584  1.00  0.00     0.177 HD
ENDBRANCH  47  49
ENDBRANCH  44  47
ENDBRANCH  43  44
ENDBRANCH  42  43
ENDBRANCH  40  42
ENDBRANCH   1  38
TORSDOF 16
ENDMDL