MODEL 4
REMARK VINA RESULT: -8.297423380      3.015      3.769
REMARK  16 active torsions:
REMARK  status: ('A' for Active; 'I' for Inactive)
REMARK    1  A    between atoms: N1_1  and  C1_4
REMARK    2  A    between atoms: C2_9  and  N4_10
REMARK    3  A    between atoms: N5_12  and  C3_14
REMARK    4  A    between atoms: C5_18  and  O1_19
REMARK    5  A    between atoms: O1_19  and  C6_20
REMARK    6  A    between atoms: C6_20  and  C7_21
REMARK    7  A    between atoms: C7_21  and  O2_22
REMARK    8  A    between atoms: C7_21  and  C8_24
REMARK    9  A    between atoms: C8_24  and  O3_25
REMARK   10  A    between atoms: C8_24  and  C9_27
REMARK   11  A    between atoms: C9_27  and  O5_29
REMARK   12  A    between atoms: O5_29  and  C10_30
REMARK   13  A    between atoms: C11_32  and  C12_33
REMARK       I    between atoms: C12_33  and  N7_35
REMARK   14  A    between atoms: N8_38  and  S1_39
REMARK   15  A    between atoms: N9_45  and  O11_47
REMARK   16  A    between atoms: C18_50  and  N10_51
ROOT
HETATM    1  C8  UNL     1      47.938  37.604  34.483  1.00  0.00     0.248 C
ENDROOT
BRANCH   1   2
HETATM    2  C7  UNL     1      47.932  37.230  33.006  1.00  0.00     0.181 C
BRANCH   2   3
HETATM    3  C6  UNL     1      46.614  36.602  32.623  1.00  0.00     0.212 C
BRANCH   3   4
HETATM    4  O1  UNL     1      45.531  37.480  32.630  1.00  0.00    -0.329 OA
BRANCH   4   5
HETATM    5  C5  UNL     1      44.520  37.575  31.708  1.00  0.00     0.212 A
HETATM    6  N6  UNL     1      43.448  36.773  31.631  1.00  0.00    -0.339 N
HETATM    7  C4  UNL     1      42.503  36.941  30.693  1.00  0.00     0.140 A
ATOM      8  H6  UNL     1      43.348  36.014  32.304  1.00  0.00     0.167 HD
HETATM    9  C3  UNL     1      42.579  37.966  29.740  1.00  0.00     0.138 A
HETATM   10  N11 UNL     1      43.673  38.778  29.825  1.00  0.00    -0.304 N
HETATM   11  C19 UNL     1      44.616  38.604  30.764  1.00  0.00     0.298 A
ATOM     12  H11 UNL     1      43.777  39.539  29.155  1.00  0.00     0.171 HD
HETATM   13  O12 UNL     1      45.618  39.383  30.809  1.00  0.00    -0.263 OA
BRANCH   9  14
HETATM   14  N5  UNL     1      41.608  38.119  28.811  1.00  0.00    -0.282 N
HETATM   15  N4  UNL     1      41.111  37.720  27.817  1.00  0.00    -0.277 N
ATOM     16  H4  UNL     1      40.303  38.253  27.492  1.00  0.00     0.189 HD
ATOM     17  H5  UNL     1      41.067  38.936  29.094  1.00  0.00     0.188 HD
BRANCH  15  18
HETATM   18  C2  UNL     1      41.475  36.592  26.992  1.00  0.00     0.181 A
HETATM   19  N3  UNL     1      41.683  36.552  25.686  1.00  0.00    -0.277 N
HETATM   20  N2  UNL     1      42.004  35.466  25.118  1.00  0.00    -0.278 N
ATOM     21  H3  UNL     1      41.584  37.403  25.132  1.00  0.00     0.189 HD
HETATM   22  C1  UNL     1      42.128  34.365  25.866  1.00  0.00     0.160 A
ATOM     23  H2  UNL     1      42.166  35.434  24.111  1.00  0.00     0.189 HD
HETATM   24  S2  UNL     1      41.760  34.963  27.428  1.00  0.00    -0.014 SA
BRANCH  22  25
HETATM   25  N1  UNL     1      42.451  33.158  25.455  1.00  0.00    -0.378 N
ATOM     26  H12 UNL     1      41.909  32.450  24.959  1.00  0.00     0.158 HD
ATOM     27  H11 UNL     1      43.350  32.689  25.566  1.00  0.00     0.158 HD
ENDBRANCH  22  25
ENDBRANCH  15  18
ENDBRANCH   9  14
ENDBRANCH   4   5
ENDBRANCH   3   4
ENDBRANCH   2   3
BRANCH   2  28
HETATM   28  O2  UNL     1      48.123  38.383  32.254  1.00  0.00    -0.390 OA
ATOM     29  H2  UNL     1      48.891  38.273  31.705  1.00  0.00     0.210 HD
ENDBRANCH   2  28
ENDBRANCH   1   2
BRANCH   1  30
HETATM   30  O3  UNL     1      46.913  36.927  35.141  1.00  0.00    -0.383 OA
ATOM     31  H3  UNL     1      46.658  37.413  35.917  1.00  0.00     0.210 HD
ENDBRANCH   1  30
BRANCH   1  32
HETATM   32  C9  UNL     1      47.805  39.077  34.652  1.00  0.00     0.292 C
HETATM   33  O4  UNL     1      48.690  39.779  35.218  1.00  0.00    -0.262 OA
BRANCH  32  34
HETATM   34  O5  UNL     1      46.695  39.751  34.190  1.00  0.00    -0.285 OA
BRANCH  34  35
HETATM   35  C10 UNL     1      45.889  40.603  35.022  1.00  0.00     0.301 C
HETATM   36  O6  UNL     1      44.619  40.106  35.156  1.00  0.00    -0.338 OA
HETATM   37  C11 UNL     1      44.008  40.910  36.170  1.00  0.00     0.264 C
HETATM   38  C16 UNL     1      43.697  42.162  35.434  1.00  0.00     0.050 C
HETATM   39  N9  UNL     1      42.504  42.547  35.291  1.00  0.00    -0.274 N
HETATM   40  C17 UNL     1      44.827  42.900  34.875  1.00  0.00     0.095 C
ATOM     41  H9  UNL     1      41.739  41.998  35.683  1.00  0.00     0.193 HD
HETATM   42  C18 UNL     1      46.029  42.021  34.616  1.00  0.00     0.244 C
BRANCH  37  43
HETATM   43  C12 UNL     1      42.857  40.237  36.762  1.00  0.00     0.255 C
HETATM   44  O7  UNL     1      42.202  39.458  35.990  1.00  0.00    -0.270 OA
HETATM   45  N7  UNL     1      42.495  40.434  38.101  1.00  0.00    -0.335 N
HETATM   46  C13 UNL     1      43.139  41.274  39.076  1.00  0.00     0.142 C
HETATM   47  C15 UNL     1      41.389  39.793  38.771  1.00  0.00     0.237 C
HETATM   48  C14 UNL     1      42.879  40.552  40.407  1.00  0.00     0.131 C
HETATM   49  N8  UNL     1      41.551  39.997  40.199  1.00  0.00    -0.173 NA
BRANCH  49  50
HETATM   50  S1  UNL     1      40.340  41.061  40.820  1.00  0.00     0.186 S
HETATM   51  O8  UNL     1      40.996  42.173  41.582  1.00  0.00    -0.582 OA
HETATM   52  O9  UNL     1      39.410  40.289  41.690  1.00  0.00    -0.582 OA
HETATM   53  O10 UNL     1      39.507  41.728  39.529  1.00  0.00    -0.582 OA
ENDBRANCH  49  50
ENDBRANCH  37  43
BRANCH  39  54
HETATM   54  O11 UNL     1      42.237  43.706  34.608  1.00  0.00    -0.290 OA
ATOM     55  H11 UNL     1      41.341  44.011  34.523  1.00  0.00     0.244 HD
ENDBRANCH  39  54
BRANCH  42  56
HETATM   56  N10 UNL     1      47.237  42.605  35.233  1.00  0.00    -0.070 N
ATOM     57 3H10 UNL     1      47.008  43.349  35.892  1.00  0.00     0.274 HD
ATOM     58 2H10 UNL     1      47.683  41.960  35.886  1.00  0.00     0.274 HD
ATOM     59 1H10 UNL     1      47.881  42.920  34.507  1.00  0.00     0.274 HD
ENDBRANCH  42  56
ENDBRANCH  34  35
ENDBRANCH  32  34
ENDBRANCH   1  32
TORSDOF 16
ENDMDL