MODEL 2
REMARK VINA RESULT: -8.473504175      3.750     10.001
REMARK  18 active torsions:
REMARK  status: ('A' for Active; 'I' for Inactive)
REMARK    1  A    between atoms: C2_2  and  C4_4
REMARK    2  A    between atoms: C4_4  and  O2_6
REMARK    3  A    between atoms: O2_6  and  C5_7
REMARK    4  A    between atoms: C5_7  and  C6_8
REMARK    5  A    between atoms: N1_10  and  C8_11
REMARK    6  A    between atoms: N2_13  and  O4_14
REMARK    7  A    between atoms: C9_16  and  N3_17
REMARK    8  A    between atoms: C10_18  and  N4_19
REMARK    9  A    between atoms: N4_19  and  C11_21
REMARK   10  A    between atoms: C11_21  and  C13_23
REMARK   11  A    between atoms: C13_23  and  N5_24
REMARK   12  A    between atoms: C14_26  and  N6_27
REMARK   13  A    between atoms: N6_27  and  C15_29
REMARK   14  A    between atoms: C17_35  and  O7_36
REMARK   15  A    between atoms: C19_39  and  N8_40
REMARK       I    between atoms: N8_40  and  C20_42
REMARK   16  A    between atoms: C20_42  and  C21_44
REMARK   17  A    between atoms: C21_44  and  N9_46
REMARK   18  A    between atoms: C24_54  and  O10_55
ROOT
HETATM    1  N3  UNL     1      42.535  38.889  34.381  1.00  0.00    -0.260 N
HETATM    2  C10 UNL     1      42.467  40.200  34.518  1.00  0.00     0.116 A
HETATM    3  C18 UNL     1      42.371  40.816  35.787  1.00  0.00     0.097 A
HETATM    4  C19 UNL     1      42.345  40.037  36.923  1.00  0.00     0.115 A
HETATM    5  N10 UNL     1      42.413  38.710  36.768  1.00  0.00    -0.294 N
ATOM      6  H10 UNL     1      42.395  38.114  37.595  1.00  0.00     0.172 HD
HETATM    7  C23 UNL     1      42.504  38.148  35.568  1.00  0.00     0.331 A
HETATM    8  O9  UNL     1      42.563  36.886  35.537  1.00  0.00    -0.246 OA
ENDROOT
BRANCH   1   9
HETATM    9  C9  UNL     1      42.632  38.071  33.280  1.00  0.00     0.260 C
HETATM   10  N2  UNL     1      41.195  37.953  32.786  1.00  0.00    -0.042 NA
HETATM   11  O3  UNL     1      41.318  36.872  31.994  1.00  0.00    -0.246 OA
HETATM   12  C8  UNL     1      42.513  36.963  31.295  1.00  0.00     0.302 C
HETATM   13  C24 UNL     1      43.297  38.109  32.031  1.00  0.00     0.212 C
BRANCH  10  14
HETATM   14  O4  UNL     1      41.108  39.032  31.938  1.00  0.00    -0.287 OA
ATOM     15  H4  UNL     1      41.979  39.152  31.581  1.00  0.00     0.239 HD
ENDBRANCH  10  14
BRANCH  12  16
HETATM   16  N1  UNL     1      42.392  37.219  29.902  1.00  0.00    -0.253 N
HETATM   17  C7  UNL     1      43.273  36.866  28.980  1.00  0.00     0.143 A
HETATM   18  C6  UNL     1      42.782  37.303  27.766  1.00  0.00     0.068 A
HETATM   19  N12 UNL     1      41.609  37.903  28.053  1.00  0.00    -0.287 N
HETATM   20  N11 UNL     1      41.383  37.849  29.333  1.00  0.00    -0.238 N
ATOM     21  H12 UNL     1      40.990  38.336  27.367  1.00  0.00     0.188 HD
ATOM     22  H11 UNL     1      40.566  38.228  29.812  1.00  0.00     0.208 HD
BRANCH  18  23
HETATM   23  C5  UNL     1      43.435  37.129  26.467  1.00  0.00     0.239 C
BRANCH  23  24
HETATM   24  O2  UNL     1      43.244  38.227  25.594  1.00  0.00    -0.312 OA
BRANCH  24  25
HETATM   25  C4  UNL     1      42.953  37.993  24.262  1.00  0.00     0.288 C
HETATM   26  O1  UNL     1      42.383  36.902  23.970  1.00  0.00    -0.260 OA
BRANCH  25  27
HETATM   27  C2  UNL     1      43.283  38.964  23.211  1.00  0.00     0.004 C
HETATM   28  C1  UNL     1      44.452  39.553  23.200  1.00  0.00     0.024 C
HETATM   29  C3  UNL     1      42.272  39.263  22.169  1.00  0.00     0.054 C
ENDBRANCH  25  27
ENDBRANCH  24  25
ENDBRANCH  23  24
ENDBRANCH  18  23
ENDBRANCH  12  16
BRANCH  13  30
HETATM   30  O10 UNL     1      44.623  37.586  31.976  1.00  0.00    -0.387 OA
ATOM     31  H10 UNL     1      45.032  38.089  32.671  1.00  0.00     0.210 HD
ENDBRANCH  13  30
ENDBRANCH   1   9
BRANCH   2  32
HETATM   32  N4  UNL     1      42.493  41.004  33.362  1.00  0.00    -0.348 N
ATOM     33  H4  UNL     1      41.662  40.993  32.771  1.00  0.00     0.167 HD
BRANCH  32  34
HETATM   34  C11 UNL     1      43.591  41.844  32.939  1.00  0.00     0.003 C
HETATM   35  C12 UNL     1      43.387  42.640  31.708  1.00  0.00     0.065 C
BRANCH  34  36
HETATM   36  C13 UNL     1      44.465  42.376  34.002  1.00  0.00     0.193 C
BRANCH  36  37
HETATM   37  N5  UNL     1      45.701  41.753  34.312  1.00  0.00    -0.276 N
HETATM   38  S1  UNL     1      46.089  40.245  33.616  1.00  0.00     0.015 SA
HETATM   39  C14 UNL     1      47.606  39.641  34.089  1.00  0.00     0.161 A
HETATM   40  C16 UNL     1      48.271  40.476  34.959  1.00  0.00     0.283 A
HETATM   41  O6  UNL     1      49.422  40.054  35.341  1.00  0.00    -0.265 OA
HETATM   42  N7  UNL     1      47.798  41.642  35.401  1.00  0.00    -0.286 N
HETATM   43  C17 UNL     1      46.641  42.237  35.122  1.00  0.00     0.233 A
ATOM     44  H7  UNL     1      48.408  42.148  36.043  1.00  0.00     0.172 HD
BRANCH  39  45
HETATM   45  N6  UNL     1      48.137  38.529  33.713  1.00  0.00    -0.323 N
ATOM     46  H6  UNL     1      48.923  38.507  33.063  1.00  0.00     0.169 HD
BRANCH  45  47
HETATM   47  C15 UNL     1      47.580  37.335  34.245  1.00  0.00     0.353 C
HETATM   48  O5  UNL     1      47.511  37.081  35.461  1.00  0.00    -0.283 OA
ENDBRANCH  45  47
ENDBRANCH  39  45
BRANCH  43  49
HETATM   49  O7  UNL     1      46.434  43.386  35.696  1.00  0.00    -0.332 OA
ATOM     50  H7  UNL     1      47.159  43.996  35.767  1.00  0.00     0.221 HD
ENDBRANCH  43  49
ENDBRANCH  36  37
ENDBRANCH  34  36
ENDBRANCH  32  34
ENDBRANCH   2  32
BRANCH   4  51
HETATM   51  N8  UNL     1      42.257  40.610  38.060  1.00  0.00    -0.311 N
HETATM   52  C20 UNL     1      41.192  40.315  38.942  1.00  0.00     0.253 C
HETATM   53  O8  UNL     1      41.197  39.177  39.523  1.00  0.00    -0.271 OA
ATOM     54  H8  UNL     1      42.965  41.290  38.336  1.00  0.00     0.170 HD
BRANCH  52  55
HETATM   55  C21 UNL     1      40.079  41.221  39.238  1.00  0.00     0.271 C
HETATM   56  C22 UNL     1      40.089  41.707  40.689  1.00  0.00     0.050 C
BRANCH  55  57
HETATM   57  N9  UNL     1      40.086  42.397  38.384  1.00  0.00    -0.067 N
ATOM     58  H93 UNL     1      41.038  42.700  38.180  1.00  0.00     0.275 HD
ATOM     59  H92 UNL     1      39.782  42.168  37.438  1.00  0.00     0.275 HD
ATOM     60  H91 UNL     1      39.532  43.160  38.774  1.00  0.00     0.275 HD
ENDBRANCH  55  57
ENDBRANCH  52  55
ENDBRANCH   4  51
TORSDOF 18
ENDMDL