MODEL 1
REMARK VINA RESULT: -7.356616136      0.000      0.000
REMARK  14 active torsions:
REMARK  status: ('A' for Active; 'I' for Inactive)
REMARK    1  A    between atoms: O1_2  and  C2_3
REMARK    2  A    between atoms: C3_4  and  O2_5
REMARK    3  A    between atoms: O2_5  and  C4_6
REMARK    4  A    between atoms: C6_9  and  O3_11
REMARK    5  A    between atoms: C8_13  and  O4_14
REMARK    6  A    between atoms: C9_16  and  O5_17
REMARK    7  A    between atoms: C10_19  and  O6_20
REMARK    8  A    between atoms: O6_20  and  S2_21
REMARK    9  A    between atoms: C11_25  and  O10_26
REMARK   10  A    between atoms: O10_26  and  S3_27
REMARK   11  A    between atoms: C12_31  and  O14_32
REMARK   12  A    between atoms: O14_32  and  S4_33
REMARK   13  A    between atoms: C13_37  and  O18_38
REMARK   14  A    between atoms: O18_38  and  S5_39
ROOT
HETATM    1  C2  UNL     1      45.364  39.256  31.994  1.00  0.00     0.185 C
HETATM    2  C3  UNL     1      43.882  39.318  31.759  1.00  0.00     0.187 C
HETATM    3  C10 UNL     1      43.206  40.463  32.455  1.00  0.00     0.209 C
HETATM    4  C11 UNL     1      43.542  40.540  33.927  1.00  0.00     0.211 C
HETATM    5  C12 UNL     1      44.662  39.596  34.299  1.00  0.00     0.211 C
HETATM    6  C13 UNL     1      45.775  39.879  33.314  1.00  0.00     0.209 C
ENDROOT
BRANCH   2   7
HETATM    7  O2  UNL     1      43.679  39.448  30.405  1.00  0.00    -0.362 OA
BRANCH   7   8
HETATM    8  C4  UNL     1      42.864  38.470  29.856  1.00  0.00     0.214 C
HETATM    9  S1  UNL     1      43.901  37.606  28.634  1.00  0.00    -0.132 SA
HETATM   10  C5  UNL     1      44.884  36.412  29.626  1.00  0.00     0.116 C
HETATM   11  C6  UNL     1      43.840  35.419  30.154  1.00  0.00     0.091 C
HETATM   12  C7  UNL     1      43.746  34.340  29.065  1.00  0.00     0.049 C
HETATM   13  C8  UNL     1      42.481  36.027  30.271  1.00  0.00     0.184 C
HETATM   14  C9  UNL     1      42.459  37.414  30.865  1.00  0.00     0.188 C
BRANCH  11  15
HETATM   15  O3  UNL     1      44.275  34.778  31.295  1.00  0.00    -0.387 OA
ATOM     16  H3  UNL     1      44.432  33.853  31.143  1.00  0.00     0.210 HD
ENDBRANCH  11  15
BRANCH  13  17
HETATM   17  O4  UNL     1      41.724  35.210  31.125  1.00  0.00    -0.390 OA
ATOM     18  H4  UNL     1      40.911  35.666  31.311  1.00  0.00     0.210 HD
ENDBRANCH  13  17
BRANCH  14  19
HETATM   19  O5  UNL     1      41.102  37.668  31.176  1.00  0.00    -0.389 OA
ATOM     20  H5  UNL     1      40.899  37.127  31.929  1.00  0.00     0.210 HD
ENDBRANCH  14  19
ENDBRANCH   7   8
ENDBRANCH   2   7
BRANCH   1  21
HETATM   21  O1  UNL     1      46.129  39.739  30.940  1.00  0.00    -0.385 OA
HETATM   22  C1  UNL     1      47.147  38.900  30.552  1.00  0.00     0.202 C
ENDBRANCH   1  21
BRANCH   3  23
HETATM   23  O6  UNL     1      43.513  41.672  31.834  1.00  0.00    -0.246 OA
BRANCH  23  24
HETATM   24  S2  UNL     1      42.411  42.878  32.091  1.00  0.00     0.252 S
HETATM   25  O7  UNL     1      42.247  43.749  30.875  1.00  0.00    -0.572 OA
HETATM   26  O8  UNL     1      41.042  42.372  32.464  1.00  0.00    -0.572 OA
HETATM   27  O9  UNL     1      42.942  43.898  33.346  1.00  0.00    -0.572 OA
ENDBRANCH  23  24
ENDBRANCH   3  23
BRANCH   6  28
HETATM   28  O18 UNL     1      46.912  39.251  33.776  1.00  0.00    -0.246 OA
BRANCH  28  29
HETATM   29  S5  UNL     1      48.115  40.317  34.224  1.00  0.00     0.252 S
HETATM   30  O19 UNL     1      49.017  40.520  33.043  1.00  0.00    -0.572 OA
HETATM   31  O20 UNL     1      48.937  39.661  35.320  1.00  0.00    -0.572 OA
HETATM   32  O21 UNL     1      47.527  41.743  34.840  1.00  0.00    -0.572 OA
ENDBRANCH  28  29
ENDBRANCH   6  28
BRANCH   4  33
HETATM   33  O10 UNL     1      42.430  40.333  34.737  1.00  0.00    -0.246 OA
BRANCH  33  34
HETATM   34  S3  UNL     1      42.320  41.471  35.963  1.00  0.00     0.252 S
HETATM   35  O11 UNL     1      43.615  42.214  36.058  1.00  0.00    -0.572 OA
HETATM   36  O12 UNL     1      41.983  40.790  37.271  1.00  0.00    -0.572 OA
HETATM   37  O13 UNL     1      41.110  42.599  35.674  1.00  0.00    -0.572 OA
ENDBRANCH  33  34
ENDBRANCH   4  33
BRANCH   5  38
HETATM   38  O14 UNL     1      44.291  38.280  34.354  1.00  0.00    -0.246 OA
BRANCH  38  39
HETATM   39  S4  UNL     1      44.607  37.557  35.830  1.00  0.00     0.252 S
HETATM   40  O15 UNL     1      46.019  37.020  35.897  1.00  0.00    -0.572 OA
HETATM   41  O16 UNL     1      44.449  38.537  36.963  1.00  0.00    -0.572 OA
HETATM   42  O17 UNL     1      43.578  36.267  36.127  1.00  0.00    -0.572 OA
ENDBRANCH  38  39
ENDBRANCH   5  38
TORSDOF 14
ENDMDL