MODEL 5
REMARK VINA RESULT: -7.876794441      1.675      2.552
REMARK  15 active torsions:
REMARK  status: ('A' for Active; 'I' for Inactive)
REMARK    1  A    between atoms: O1_2  and  N1_3
REMARK    2  A    between atoms: C2_5  and  C3_6
REMARK    3  A    between atoms: C2_5  and  C21_49
REMARK    4  A    between atoms: C3_6  and  O3_8
REMARK    5  A    between atoms: O3_8  and  C4_9
REMARK    6  A    between atoms: C4_9  and  C5_10
REMARK    7  A    between atoms: N4_15  and  C6_16
REMARK    8  A    between atoms: C7_17  and  N5_18
REMARK       I    between atoms: N5_18  and  C8_20
REMARK       I    between atoms: C8_20  and  N6_22
REMARK       I    between atoms: N6_22  and  C9_24
REMARK    9  A    between atoms: C9_24  and  C10_26
REMARK   10  A    between atoms: C10_26  and  O6_28
REMARK   11  A    between atoms: O6_28  and  C12_29
REMARK   12  A    between atoms: C14_32  and  O8_33
REMARK   13  A    between atoms: C17_39  and  C18_40
REMARK   14  A    between atoms: C19_43  and  C20_44
REMARK   15  A    between atoms: C23_52  and  N8_53
ROOT
HETATM    1  C6  UNL     1      43.609  40.391  34.565  1.00  0.00     0.178 C
HETATM    2  C7  UNL     1      43.049  41.391  35.529  1.00  0.00     0.145 C
HETATM    3  C14 UNL     1      42.207  42.356  34.645  1.00  0.00     0.173 C
HETATM    4  C15 UNL     1      41.709  41.424  33.631  1.00  0.00     0.179 C
HETATM    5  O9  UNL     1      41.235  41.969  32.474  1.00  0.00    -0.358 OA
HETATM    6  C16 UNL     1      40.869  40.911  31.642  1.00  0.00     0.339 C
HETATM    7  O10 UNL     1      41.959  40.121  31.296  1.00  0.00    -0.349 OA
HETATM    8  C17 UNL     1      42.419  39.478  32.501  1.00  0.00     0.248 C
HETATM    9  C19 UNL     1      43.006  40.671  33.253  1.00  0.00     0.139 C
ENDROOT
BRANCH   1  10
HETATM   10  N4  UNL     1      45.061  40.391  34.622  1.00  0.00    -0.210 N
HETATM   11  N3  UNL     1      45.929  41.368  34.436  1.00  0.00    -0.224 N
HETATM   12  N2  UNL     1      47.177  40.958  34.560  1.00  0.00    -0.270 N
ATOM     13  H3  UNL     1      45.666  42.330  34.221  1.00  0.00     0.210 HD
HETATM   14  C5  UNL     1      47.130  39.652  34.839  1.00  0.00     0.138 A
ATOM     15  H2  UNL     1      48.016  41.529  34.462  1.00  0.00     0.190 HD
HETATM   16  N7  UNL     1      45.835  39.334  34.872  1.00  0.00    -0.268 N
ATOM     17  H7  UNL     1      45.480  38.398  35.065  1.00  0.00     0.190 HD
BRANCH  14  18
HETATM   18  C4  UNL     1      48.216  38.680  35.061  1.00  0.00     0.258 C
BRANCH  18  19
HETATM   19  O3  UNL     1      47.742  37.410  35.458  1.00  0.00    -0.309 OA
BRANCH  19  20
HETATM   20  C3  UNL     1      47.149  36.579  34.521  1.00  0.00     0.314 C
HETATM   21  O2  UNL     1      45.971  36.158  34.826  1.00  0.00    -0.257 OA
BRANCH  20  22
HETATM   22  C2  UNL     1      47.686  36.144  33.278  1.00  0.00     0.156 C
HETATM   23  N1  UNL     1      48.140  34.926  33.200  1.00  0.00    -0.259 N
ATOM     24  H1  UNL     1      48.527  34.608  32.312  1.00  0.00     0.194 HD
BRANCH  23  25
HETATM   25  O1  UNL     1      48.121  34.069  34.238  1.00  0.00    -0.285 OA
HETATM   26  C1  UNL     1      48.146  32.659  34.050  1.00  0.00     0.237 C
ENDBRANCH  23  25
BRANCH  22  27
HETATM   27  C21 UNL     1      47.749  37.007  32.048  1.00  0.00     0.075 A
HETATM   28  C22 UNL     1      48.945  37.463  31.559  1.00  0.00     0.085 A
HETATM   29  S1  UNL     1      48.451  38.379  30.195  1.00  0.00    -0.064 SA
HETATM   30  C23 UNL     1      46.790  38.135  30.322  1.00  0.00     0.142 A
HETATM   31  N9  UNL     1      46.660  37.359  31.404  1.00  0.00    -0.335 N
ATOM     32  H9  UNL     1      45.741  37.049  31.720  1.00  0.00     0.168 HD
BRANCH  30  33
HETATM   33  N8  UNL     1      45.795  38.570  29.564  1.00  0.00    -0.380 N
ATOM     34  H82 UNL     1      45.377  39.499  29.614  1.00  0.00     0.158 HD
ATOM     35  H81 UNL     1      45.267  38.103  28.827  1.00  0.00     0.158 HD
ENDBRANCH  30  33
ENDBRANCH  22  27
ENDBRANCH  20  22
ENDBRANCH  19  20
ENDBRANCH  18  19
ENDBRANCH  14  18
ENDBRANCH   1  10
BRANCH   2  36
HETATM   36  N5  UNL     1      43.921  42.149  36.324  1.00  0.00    -0.333 N
HETATM   37  C8  UNL     1      44.012  41.833  37.776  1.00  0.00     0.323 C
HETATM   38  O4  UNL     1      43.318  40.882  38.077  1.00  0.00    -0.247 OA
HETATM   39  N6  UNL     1      44.813  42.641  38.510  1.00  0.00    -0.277 N
HETATM   40  C9  UNL     1      44.001  42.556  39.998  1.00  0.00     0.254 C
ATOM     41  H6  UNL     1      45.657  43.151  38.246  1.00  0.00     0.173 HD
HETATM   42  O5  UNL     1      44.654  43.184  40.820  1.00  0.00    -0.270 OA
ATOM     43  H5  UNL     1      44.479  42.898  35.917  1.00  0.00     0.164 HD
BRANCH  40  44
HETATM   44  C10 UNL     1      42.791  41.900  40.192  1.00  0.00     0.220 C
HETATM   45  C11 UNL     1      42.466  41.427  41.626  1.00  0.00     0.050 C
BRANCH  44  46
HETATM   46  O6  UNL     1      41.713  42.948  40.035  1.00  0.00    -0.307 OA
BRANCH  46  47
HETATM   47  C12 UNL     1      40.741  42.769  39.092  1.00  0.00     0.255 C
HETATM   48  C13 UNL     1      39.738  41.684  39.202  1.00  0.00     0.126 C
HETATM   49  O7  UNL     1      40.688  43.547  38.098  1.00  0.00    -0.266 OA
ENDBRANCH  46  47
ENDBRANCH  44  46
ENDBRANCH  40  44
ENDBRANCH   2  36
BRANCH   9  50
HETATM   50  C20 UNL     1      43.793  41.447  32.290  1.00  0.00     0.190 C
HETATM   51  O13 UNL     1      43.702  42.693  32.190  1.00  0.00    -0.647 OA
HETATM   52  O14 UNL     1      44.678  40.798  31.446  1.00  0.00    -0.647 OA
ENDBRANCH   9  50
BRANCH   3  53
HETATM   53  O8  UNL     1      41.138  42.757  35.442  1.00  0.00    -0.391 OA
ATOM     54  H8  UNL     1      40.434  42.967  34.840  1.00  0.00     0.210 HD
ENDBRANCH   3  53
BRANCH   8  55
HETATM   55  C18 UNL     1      43.315  38.402  32.183  1.00  0.00     0.204 C
HETATM   56  O11 UNL     1      43.404  37.989  30.987  1.00  0.00    -0.646 OA
HETATM   57  O12 UNL     1      44.096  37.779  33.120  1.00  0.00    -0.646 OA
ENDBRANCH   8  55
TORSDOF 15
ENDMDL