MODEL 1
REMARK VINA RESULT: -8.856202380      0.000      0.000
REMARK  17 active torsions:
REMARK  status: ('A' for Active; 'I' for Inactive)
REMARK    1  A    between atoms: N1_2  and  C3_4
REMARK    2  A    between atoms: C5_7  and  C6_8
REMARK    3  A    between atoms: C8_11  and  C9_12
REMARK    4  A    between atoms: C9_12  and  C10_14
REMARK    5  A    between atoms: C10_14  and  C11_15
REMARK    6  A    between atoms: C11_15  and  C20_44
REMARK    7  A    between atoms: N2_16  and  N3_18
REMARK       I    between atoms: N3_18  and  C12_20
REMARK    8  A    between atoms: C12_20  and  C13_22
REMARK    9  A    between atoms: C13_22  and  N4_23
REMARK   10  A    between atoms: C13_22  and  C19_39
REMARK   11  A    between atoms: N4_23  and  C14_25
REMARK   12  A    between atoms: C16_29  and  O5_30
REMARK   13  A    between atoms: C16_29  and  C17_32
REMARK   14  A    between atoms: C18_35  and  O8_36
REMARK   15  A    between atoms: C19_39  and  O10_40
REMARK   16  A    between atoms: C19_39  and  O11_42
REMARK   17  A    between atoms: C21_45  and  C22_46
ROOT
HETATM    1  C11 UNL     1      42.654  38.360  29.868  1.00  0.00     0.040 C
HETATM    2  N2  UNL     1      43.105  39.514  30.155  1.00  0.00    -0.301 N
ATOM      3  H2  UNL     1      43.822  39.877  29.528  1.00  0.00     0.186 HD
ENDROOT
BRANCH   2   4
HETATM    4  N3  UNL     1      42.752  40.337  31.199  1.00  0.00    -0.268 N
HETATM    5  C12 UNL     1      43.755  41.073  31.909  1.00  0.00     0.263 C
HETATM    6  O4  UNL     1      44.958  40.947  31.545  1.00  0.00    -0.269 OA
ATOM      7  H3  UNL     1      41.772  40.423  31.468  1.00  0.00     0.190 HD
BRANCH   5   8
HETATM    8  C13 UNL     1      43.407  41.956  33.029  1.00  0.00     0.233 C
BRANCH   8   9
HETATM    9  N4  UNL     1      42.459  41.253  33.917  1.00  0.00    -0.339 N
ATOM     10  H4  UNL     1      41.944  40.440  33.581  1.00  0.00     0.164 HD
BRANCH   9  11
HETATM   11  C14 UNL     1      42.276  41.717  35.235  1.00  0.00     0.218 C
HETATM   12  N5  UNL     1      43.124  41.434  36.181  1.00  0.00    -0.353 N
HETATM   13  C15 UNL     1      42.903  41.930  37.532  1.00  0.00     0.177 C
ATOM     14  H5  UNL     1      43.944  40.863  35.976  1.00  0.00     0.163 HD
HETATM   15  C16 UNL     1      41.419  41.830  37.893  1.00  0.00     0.212 C
HETATM   16  C18 UNL     1      40.531  42.394  36.825  1.00  0.00     0.313 C
HETATM   17  O9  UNL     1      41.168  42.505  35.576  1.00  0.00    -0.287 OA
BRANCH  15  18
HETATM   18  O5  UNL     1      41.136  40.483  38.062  1.00  0.00    -0.373 OA
ATOM     19  H5  UNL     1      41.716  40.163  38.742  1.00  0.00     0.211 HD
ENDBRANCH  15  18
BRANCH  15  20
HETATM   20  C17 UNL     1      41.199  42.562  39.161  1.00  0.00     0.216 C
HETATM   21  O6  UNL     1      40.337  42.136  39.967  1.00  0.00    -0.646 OA
HETATM   22  O7  UNL     1      41.908  43.704  39.499  1.00  0.00    -0.646 OA
ENDBRANCH  15  20
BRANCH  16  23
HETATM   23  O8  UNL     1      40.026  43.657  37.176  1.00  0.00    -0.367 OA
ATOM     24  H8  UNL     1      39.570  44.070  36.453  1.00  0.00     0.212 HD
ENDBRANCH  16  23
ENDBRANCH   9  11
ENDBRANCH   8   9
BRANCH   8  25
HETATM   25  C19 UNL     1      42.710  43.209  32.487  1.00  0.00     0.285 C
BRANCH  25  26
HETATM   26  O10 UNL     1      43.174  43.372  31.160  1.00  0.00    -0.369 OA
ATOM     27  H10 UNL     1      44.115  43.245  31.193  1.00  0.00     0.212 HD
ENDBRANCH  25  26
BRANCH  25  28
HETATM   28  O11 UNL     1      41.347  43.088  32.451  1.00  0.00    -0.369 OA
ATOM     29  H11 UNL     1      40.973  43.356  31.620  1.00  0.00     0.212 HD
ENDBRANCH  25  28
ENDBRANCH   8  25
ENDBRANCH   5   8
ENDBRANCH   2   4
BRANCH   1  30
HETATM   30  C10 UNL     1      41.611  37.824  30.782  1.00  0.00     0.138 C
BRANCH  30  31
HETATM   31  C9  UNL     1      42.052  36.861  31.786  1.00  0.00     0.147 C
HETATM   32  O3  UNL     1      41.958  35.666  31.408  1.00  0.00    -0.296 OA
BRANCH  31  33
HETATM   33  C8  UNL     1      42.569  37.052  33.130  1.00  0.00     0.151 C
HETATM   34  C7  UNL     1      42.660  35.780  33.941  1.00  0.00     0.011 C
HETATM   35  C5  UNL     1      43.495  35.749  34.978  1.00  0.00     0.047 C
HETATM   36  C4  UNL     1      44.327  36.877  35.373  1.00  0.00     0.192 C
HETATM   37  C3  UNL     1      44.483  38.012  34.450  1.00  0.00     0.225 C
HETATM   38  O1  UNL     1      44.881  36.829  36.501  1.00  0.00    -0.289 OA
HETATM   39  C25 UNL     1      43.963  37.579  33.124  1.00  0.00     0.171 C
HETATM   40  O13 UNL     1      44.684  37.681  32.165  1.00  0.00    -0.294 OA
BRANCH  35  41
HETATM   41  C6  UNL     1      43.558  34.485  35.749  1.00  0.00     0.273 C
HETATM   42  O2  UNL     1      43.019  33.435  35.308  1.00  0.00    -0.301 OA
ENDBRANCH  35  41
BRANCH  37  43
HETATM   43  N1  UNL     1      45.828  38.485  34.333  1.00  0.00    -0.404 N
HETATM   44  C1  UNL     1      46.825  37.506  34.618  1.00  0.00     0.144 C
HETATM   45  C2  UNL     1      46.047  39.781  34.891  1.00  0.00     0.144 C
ENDBRANCH  37  43
ENDBRANCH  31  33
ENDBRANCH  30  31
ENDBRANCH   1  30
BRANCH   1  46
HETATM   46  C20 UNL     1      43.150  37.628  28.728  1.00  0.00    -0.014 C
HETATM   47  C21 UNL     1      42.412  37.284  27.717  1.00  0.00    -0.001 C
HETATM   48  C23 UNL     1      43.056  36.509  26.551  1.00  0.00     0.128 C
HETATM   49  S1  UNL     1      43.425  34.819  27.187  1.00  0.00    -0.093 SA
HETATM   50  S2  UNL     1      44.653  35.339  28.902  1.00  0.00    -0.093 SA
HETATM   51  C24 UNL     1      44.611  37.185  28.772  1.00  0.00     0.127 C
BRANCH  47  52
HETATM   52  C22 UNL     1      41.010  37.580  27.589  1.00  0.00     0.267 C
HETATM   53  O12 UNL     1      40.291  36.571  27.198  1.00  0.00    -0.302 OA
ENDBRANCH  47  52
ENDBRANCH   1  46
TORSDOF 17
ENDMDL