MODEL 5
REMARK VINA RESULT: -8.990076526      2.395     10.034
REMARK  16 active torsions:
REMARK  status: ('A' for Active; 'I' for Inactive)
REMARK    1  A    between atoms: O1_2  and  N1_3
REMARK    2  A    between atoms: C2_5  and  C3_6
REMARK    3  A    between atoms: C2_5  and  C18_44
REMARK       I    between atoms: C3_6  and  N2_8
REMARK    4  A    between atoms: N2_8  and  C4_10
REMARK    5  A    between atoms: C6_14  and  C7_15
REMARK    6  A    between atoms: C9_19  and  S1_20
REMARK    7  A    between atoms: S1_20  and  C10_21
REMARK    8  A    between atoms: C12_25  and  O6_26
REMARK    9  A    between atoms: C13_28  and  O7_29
REMARK   10  A    between atoms: C15_35  and  C16_36
REMARK   11  A    between atoms: C16_36  and  O9_37
REMARK   12  A    between atoms: N6_39  and  O10_41
REMARK   13  A    between atoms: C19_46  and  N7_47
REMARK   14  A    between atoms: N7_47  and  O11_48
REMARK   15  A    between atoms: N7_47  and  O12_50
REMARK   16  A    between atoms: C21_53  and  N8_54
ROOT
HETATM    1  C4  UNL     1      44.308  40.940  34.989  1.00  0.00     0.201 C
HETATM    2  C5  UNL     1      45.008  39.587  35.064  1.00  0.00     0.246 C
HETATM    3  O3  UNL     1      45.859  39.029  35.759  1.00  0.00    -0.271 OA
HETATM    4  N3  UNL     1      44.228  39.232  33.945  1.00  0.00    -0.323 N
HETATM    5  C6  UNL     1      43.443  38.588  32.929  1.00  0.00     0.219 C
HETATM    6  C8  UNL     1      42.662  39.637  32.235  1.00  0.00    -0.026 C
HETATM    7  C9  UNL     1      41.600  39.489  31.480  1.00  0.00     0.059 C
HETATM    8  C15 UNL     1      43.340  40.942  32.580  1.00  0.00     0.119 C
HETATM    9  C17 UNL     1      44.356  40.651  33.572  1.00  0.00     0.136 C
ENDROOT
BRANCH   1  10
HETATM   10  N2  UNL     1      43.125  40.794  35.792  1.00  0.00    -0.340 N
HETATM   11  C3  UNL     1      43.123  41.371  37.060  1.00  0.00     0.272 C
HETATM   12  O2  UNL     1      44.159  42.004  37.437  1.00  0.00    -0.266 OA
ATOM     13  H2  UNL     1      42.312  40.286  35.444  1.00  0.00     0.163 HD
BRANCH  11  14
HETATM   14  C2  UNL     1      42.003  41.289  37.997  1.00  0.00     0.141 C
HETATM   15  N1  UNL     1      41.074  42.105  38.049  1.00  0.00    -0.260 N
ATOM     16  H1  UNL     1      40.404  41.844  38.773  1.00  0.00     0.194 HD
BRANCH  15  17
HETATM   17  O1  UNL     1      40.699  43.212  37.440  1.00  0.00    -0.285 OA
HETATM   18  C1  UNL     1      40.034  43.417  36.234  1.00  0.00     0.237 C
ENDBRANCH  15  17
BRANCH  14  19
HETATM   19  C18 UNL     1      42.003  40.137  38.959  1.00  0.00     0.073 A
HETATM   20  S2  UNL     1      41.451  38.538  38.550  1.00  0.00    -0.069 SA
HETATM   21  C19 UNL     1      41.821  37.753  40.000  1.00  0.00     0.109 A
HETATM   22  C20 UNL     1      42.355  38.735  40.761  1.00  0.00     0.073 A
HETATM   23  C21 UNL     1      42.451  39.990  40.219  1.00  0.00     0.124 A
BRANCH  21  24
HETATM   24  N7  UNL     1      41.619  36.359  40.361  1.00  0.00    -0.029 NA
BRANCH  24  25
HETATM   25  O11 UNL     1      41.252  36.226  41.637  1.00  0.00    -0.284 OA
ATOM     26  H11 UNL     1      40.596  36.867  41.883  1.00  0.00     0.240 HD
ENDBRANCH  24  25
BRANCH  24  27
HETATM   27  O12 UNL     1      42.799  35.718  40.138  1.00  0.00    -0.284 OA
ATOM     28  H12 UNL     1      42.635  35.063  39.470  1.00  0.00     0.240 HD
ENDBRANCH  24  27
ENDBRANCH  21  24
BRANCH  23  29
HETATM   29  N8  UNL     1      43.017  41.052  41.040  1.00  0.00    -0.114 N
HETATM   30  O13 UNL     1      44.284  41.094  41.225  1.00  0.00    -0.532 OA
HETATM   31  O14 UNL     1      42.329  42.031  41.637  1.00  0.00    -0.532 OA
ENDBRANCH  23  29
ENDBRANCH  14  19
ENDBRANCH  11  14
ENDBRANCH   1  10
BRANCH   8  32
HETATM   32  C16 UNL     1      42.398  42.031  32.811  1.00  0.00     0.145 C
HETATM   33  N6  UNL     1      42.450  43.144  32.113  1.00  0.00    -0.250 N
ATOM     34  H6  UNL     1      41.787  43.901  32.282  1.00  0.00     0.196 HD
BRANCH  32  35
HETATM   35  O9  UNL     1      41.371  42.044  33.752  1.00  0.00    -0.348 OA
ATOM     36  H9  UNL     1      41.474  42.131  34.693  1.00  0.00     0.219 HD
ENDBRANCH  32  35
BRANCH  33  37
HETATM   37  O10 UNL     1      43.422  43.259  31.150  1.00  0.00    -0.288 OA
ATOM     38  H10 UNL     1      43.944  44.053  31.134  1.00  0.00     0.244 HD
ENDBRANCH  33  37
ENDBRANCH   8  32
BRANCH   5  39
HETATM   39  C7  UNL     1      44.356  37.830  32.009  1.00  0.00     0.201 C
HETATM   40  O4  UNL     1      44.577  36.606  32.279  1.00  0.00    -0.646 OA
HETATM   41  O5  UNL     1      44.945  38.399  30.911  1.00  0.00    -0.646 OA
ENDBRANCH   5  39
BRANCH   7  42
HETATM   42  S1  UNL     1      40.893  37.900  31.159  1.00  0.00    -0.065 SA
BRANCH  42  43
HETATM   43  C10 UNL     1      41.581  37.237  29.665  1.00  0.00     0.151 C
HETATM   44  N4  UNL     1      40.998  37.628  28.525  1.00  0.00    -0.344 N
HETATM   45  C11 UNL     1      41.600  37.799  27.303  1.00  0.00     0.129 C
ATOM     46  H4  UNL     1      39.997  37.819  28.569  1.00  0.00     0.167 HD
HETATM   47  C12 UNL     1      42.876  37.389  26.935  1.00  0.00     0.120 C
HETATM   48  C13 UNL     1      43.719  36.530  27.594  1.00  0.00     0.169 C
HETATM   49  C14 UNL     1      43.526  36.021  28.872  1.00  0.00     0.283 C
HETATM   50  O8  UNL     1      44.281  35.094  29.198  1.00  0.00    -0.265 OA
HETATM   51  N5  UNL     1      42.615  36.408  29.807  1.00  0.00    -0.301 N
ATOM     52  H5  UNL     1      42.740  36.011  30.739  1.00  0.00     0.171 HD
BRANCH  47  53
HETATM   53  O6  UNL     1      43.316  37.945  25.737  1.00  0.00    -0.357 OA
ATOM     54  H6  UNL     1      42.926  37.546  24.967  1.00  0.00     0.218 HD
ENDBRANCH  47  53
BRANCH  48  55
HETATM   55  O7  UNL     1      44.856  36.149  26.916  1.00  0.00    -0.354 OA
ATOM     56  H7  UNL     1      45.683  36.442  27.281  1.00  0.00     0.218 HD
ENDBRANCH  48  55
ENDBRANCH  42  43
ENDBRANCH   7  42
TORSDOF 16
ENDMDL