MODEL 4
REMARK VINA RESULT: -7.672270829      1.186      1.672
REMARK  14 active torsions:
REMARK  status: ('A' for Active; 'I' for Inactive)
REMARK    1  A    between atoms: C2_2  and  O2_4
REMARK    2  A    between atoms: O2_4  and  C3_5
REMARK    3  A    between atoms: C4_6  and  S1_7
REMARK    4  A    between atoms: C5_10  and  O4_11
REMARK    5  A    between atoms: O4_11  and  C6_12
REMARK    6  A    between atoms: C7_13  and  O5_14
REMARK    7  A    between atoms: C9_17  and  C10_18
REMARK    8  A    between atoms: C11_21  and  O8_22
REMARK    9  A    between atoms: O8_22  and  S3_23
REMARK   10  A    between atoms: C12_27  and  O12_28
REMARK   11  A    between atoms: O12_28  and  S4_29
REMARK   12  A    between atoms: C13_33  and  O16_34
REMARK   13  A    between atoms: C14_36  and  O17_37
REMARK   14  A    between atoms: O17_37  and  S5_38
ROOT
HETATM    1  C6  UNL     1      43.155  39.593  34.401  1.00  0.00     0.186 C
HETATM    2  C7  UNL     1      42.770  39.037  33.066  1.00  0.00     0.150 C
HETATM    3  C8  UNL     1      43.926  38.376  32.401  1.00  0.00     0.052 C
HETATM    4  C9  UNL     1      45.220  39.094  32.473  1.00  0.00     0.122 C
HETATM    5  C11 UNL     1      45.464  39.840  33.749  1.00  0.00     0.192 C
HETATM    6  C12 UNL     1      44.223  40.663  34.129  1.00  0.00     0.208 C
ENDROOT
BRANCH   1   7
HETATM    7  O4  UNL     1      42.127  40.055  35.163  1.00  0.00    -0.348 OA
BRANCH   7   8
HETATM    8  C5  UNL     1      42.110  39.606  36.475  1.00  0.00     0.293 C
HETATM    9  O3  UNL     1      43.320  39.128  36.866  1.00  0.00    -0.340 OA
HETATM   10  C4  UNL     1      43.459  38.607  38.116  1.00  0.00     0.230 C
HETATM   11  C3  UNL     1      42.334  39.073  38.993  1.00  0.00     0.204 C
HETATM   12  C14 UNL     1      42.173  40.571  38.776  1.00  0.00     0.211 C
HETATM   13  C13 UNL     1      41.835  40.855  37.324  1.00  0.00     0.206 C
BRANCH  10  14
HETATM   14  S1  UNL     1      43.372  36.774  38.054  1.00  0.00    -0.050 SA
HETATM   15  S2  UNL     1      43.769  36.121  36.069  1.00  0.00    -0.011 SA
ENDBRANCH  10  14
BRANCH  11  16
HETATM   16  O2  UNL     1      42.565  38.791  40.363  1.00  0.00    -0.310 OA
BRANCH  16  17
HETATM   17  C2  UNL     1      41.618  38.140  41.149  1.00  0.00     0.255 C
HETATM   18  C1  UNL     1      40.734  38.858  42.097  1.00  0.00     0.126 C
HETATM   19  O1  UNL     1      41.545  36.890  41.014  1.00  0.00    -0.266 OA
ENDBRANCH  16  17
ENDBRANCH  11  16
BRANCH  12  20
HETATM   20  O17 UNL     1      41.229  41.132  39.608  1.00  0.00    -0.246 OA
BRANCH  20  21
HETATM   21  S5  UNL     1      41.565  42.762  39.877  1.00  0.00     0.252 S
HETATM   22  O18 UNL     1      41.220  43.120  41.301  1.00  0.00    -0.572 OA
HETATM   23  O19 UNL     1      43.003  43.088  39.639  1.00  0.00    -0.572 OA
HETATM   24  O20 UNL     1      40.652  43.666  38.783  1.00  0.00    -0.572 OA
ENDBRANCH  20  21
ENDBRANCH  12  20
BRANCH  13  25
HETATM   25  O16 UNL     1      42.447  41.979  36.821  1.00  0.00    -0.388 OA
ATOM     26  H16 UNL     1      42.250  42.758  37.328  1.00  0.00     0.210 HD
ENDBRANCH  13  25
ENDBRANCH   7   8
ENDBRANCH   1   7
BRANCH   2  27
HETATM   27  O5  UNL     1      41.748  38.091  33.135  1.00  0.00    -0.393 OA
ATOM     28  H5  UNL     1      42.062  37.208  33.287  1.00  0.00     0.210 HD
ENDBRANCH   2  27
BRANCH   6  29
HETATM   29  O12 UNL     1      43.860  41.361  32.996  1.00  0.00    -0.246 OA
BRANCH  29  30
HETATM   30  S4  UNL     1      43.121  42.819  33.305  1.00  0.00     0.252 S
HETATM   31  O13 UNL     1      43.006  43.689  32.093  1.00  0.00    -0.572 OA
HETATM   32  O14 UNL     1      43.791  43.606  34.372  1.00  0.00    -0.572 OA
HETATM   33  O15 UNL     1      41.551  42.493  33.835  1.00  0.00    -0.572 OA
ENDBRANCH  29  30
ENDBRANCH   6  29
BRANCH   5  34
HETATM   34  O8  UNL     1      46.527  40.710  33.533  1.00  0.00    -0.248 OA
BRANCH  34  35
HETATM   35  S3  UNL     1      47.824  40.461  34.519  1.00  0.00     0.252 S
HETATM   36  O9  UNL     1      47.763  39.236  35.340  1.00  0.00    -0.572 OA
HETATM   37  O10 UNL     1      47.910  41.641  35.476  1.00  0.00    -0.572 OA
HETATM   38  O11 UNL     1      49.223  40.532  33.561  1.00  0.00    -0.572 OA
ENDBRANCH  34  35
ENDBRANCH   5  34
BRANCH   4  39
HETATM   39  C10 UNL     1      46.313  38.116  32.287  1.00  0.00     0.179 C
HETATM   40  O6  UNL     1      47.148  38.238  31.370  1.00  0.00    -0.648 OA
HETATM   41  O7  UNL     1      46.402  37.049  33.155  1.00  0.00    -0.648 OA
ENDBRANCH   4  39
TORSDOF 14
ENDMDL