MODEL 4
REMARK VINA RESULT: -7.458204647      3.101      9.232
REMARK  17 active torsions:
REMARK  status: ('A' for Active; 'I' for Inactive)
REMARK    1  A    between atoms: C2_2  and  O1_3
REMARK    2  A    between atoms: O1_3  and  C3_4
REMARK    3  A    between atoms: C3_4  and  C4_6
REMARK    4  A    between atoms: C8_17  and  C9_18
REMARK    5  A    between atoms: C9_18  and  O5_20
REMARK    6  A    between atoms: O5_20  and  C10_21
REMARK    7  A    between atoms: C10_21  and  C11_22
REMARK    8  A    between atoms: C11_22  and  O6_23
REMARK    9  A    between atoms: C11_22  and  C12_25
REMARK   10  A    between atoms: C12_25  and  N5_26
REMARK   11  A    between atoms: N5_26  and  O7_28
REMARK   12  A    between atoms: C16_32  and  O9_33
REMARK   13  A    between atoms: C17_37  and  C18_38
REMARK   14  A    between atoms: C18_38  and  O10_40
REMARK   15  A    between atoms: C21_44  and  O11_45
REMARK   16  A    between atoms: C23_48  and  C24_49
REMARK   17  A    between atoms: C24_49  and  S1_50
ROOT
HETATM    1  C4  UNL     1      43.279  41.503  34.525  1.00  0.00     0.215 C
HETATM    2  N1  UNL     1      42.765  41.141  33.325  1.00  0.00    -0.365 NA
HETATM    3  C5  UNL     1      42.320  40.822  32.263  1.00  0.00     0.264 C
HETATM    4  N2  UNL     1      40.870  40.601  32.030  1.00  0.00    -0.049 NA
HETATM    5  N3  UNL     1      43.047  40.596  31.029  1.00  0.00    -0.344 N
ATOM      6  H3  UNL     1      42.753  41.128  30.210  1.00  0.00     0.163 HD
HETATM    7  C6  UNL     1      44.155  39.681  30.862  1.00  0.00     0.226 C
HETATM    8  C7  UNL     1      43.708  38.366  30.349  1.00  0.00     0.236 C
HETATM    9  O3  UNL     1      43.209  38.375  29.173  1.00  0.00    -0.272 OA
HETATM   10  N4  UNL     1      43.769  37.126  31.006  1.00  0.00    -0.339 N
ATOM     11  H4  UNL     1      42.877  36.649  31.138  1.00  0.00     0.163 HD
HETATM   12  C8  UNL     1      44.929  36.443  31.515  1.00  0.00     0.263 C
HETATM   13  C15 UNL     1      44.787  35.893  32.877  1.00  0.00     0.231 C
HETATM   14  O8  UNL     1      45.632  34.981  33.194  1.00  0.00    -0.286 OA
HETATM   15  C16 UNL     1      43.814  36.257  33.889  1.00  0.00     0.187 C
HETATM   16  N6  UNL     1      43.431  37.532  34.312  1.00  0.00    -0.344 N
ATOM     17  H6  UNL     1      42.443  37.725  34.151  1.00  0.00     0.163 HD
HETATM   18  C17 UNL     1      44.115  38.615  34.917  1.00  0.00     0.223 C
HETATM   19  N7  UNL     1      43.226  39.332  35.821  1.00  0.00    -0.284 N
HETATM   20  C20 UNL     1      42.869  40.640  35.665  1.00  0.00     0.120 A
HETATM   21  C21 UNL     1      42.005  41.157  36.650  1.00  0.00     0.097 A
HETATM   22  C22 UNL     1      41.523  40.435  37.714  1.00  0.00     0.052 A
HETATM   23  C23 UNL     1      41.897  39.144  37.832  1.00  0.00     0.022 A
HETATM   24  C26 UNL     1      42.743  38.624  36.875  1.00  0.00     0.257 A
HETATM   25  O12 UNL     1      43.035  37.393  37.065  1.00  0.00    -0.267 OA
ENDROOT
BRANCH  12  26
HETATM   26  C9  UNL     1      45.142  35.220  30.636  1.00  0.00     0.289 C
HETATM   27  O4  UNL     1      46.250  34.995  30.092  1.00  0.00    -0.262 OA
BRANCH  26  28
HETATM   28  O5  UNL     1      44.117  34.325  30.411  1.00  0.00    -0.317 OA
BRANCH  28  29
HETATM   29  C10 UNL     1      43.749  33.782  29.181  1.00  0.00     0.211 C
BRANCH  29  30
HETATM   30  C11 UNL     1      42.743  34.750  28.567  1.00  0.00     0.157 C
BRANCH  30  31
HETATM   31  O6  UNL     1      42.059  35.424  29.561  1.00  0.00    -0.392 OA
ATOM     32  H6  UNL     1      41.405  34.857  29.953  1.00  0.00     0.210 HD
ENDBRANCH  30  31
BRANCH  30  33
HETATM   33  C12 UNL     1      41.812  34.077  27.603  1.00  0.00     0.154 C
BRANCH  33  34
HETATM   34  N5  UNL     1      41.379  35.022  26.593  1.00  0.00    -0.199 NA
HETATM   35  C13 UNL     1      42.438  35.473  25.732  1.00  0.00     0.143 C
BRANCH  34  36
HETATM   36  O7  UNL     1      40.782  36.069  27.180  1.00  0.00    -0.309 OA
HETATM   37  C14 UNL     1      41.124  37.255  26.520  1.00  0.00     0.229 C
ENDBRANCH  34  36
ENDBRANCH  33  34
ENDBRANCH  30  33
ENDBRANCH  29  30
ENDBRANCH  28  29
ENDBRANCH  26  28
ENDBRANCH  12  26
BRANCH  15  38
HETATM   38  O9  UNL     1      43.190  35.283  34.508  1.00  0.00    -0.344 OA
ATOM     39  H9  UNL     1      42.302  35.088  34.236  1.00  0.00     0.219 HD
ENDBRANCH  15  38
BRANCH  18  40
HETATM   40  C18 UNL     1      45.446  38.421  35.514  1.00  0.00     0.157 C
HETATM   41  C19 UNL     1      46.627  38.853  34.664  1.00  0.00     0.043 C
BRANCH  40  42
HETATM   42  O10 UNL     1      45.726  37.173  36.035  1.00  0.00    -0.392 OA
ATOM     43  H10 UNL     1      46.619  36.861  35.954  1.00  0.00     0.210 HD
ENDBRANCH  40  42
ENDBRANCH  18  40
BRANCH   1  44
HETATM   44  C3  UNL     1      44.695  41.973  34.598  1.00  0.00     0.326 C
HETATM   45  O2  UNL     1      45.379  41.932  33.555  1.00  0.00    -0.256 OA
BRANCH  44  46
HETATM   46  O1  UNL     1      45.241  42.426  35.760  1.00  0.00    -0.316 OA
BRANCH  46  47
HETATM   47  C2  UNL     1      46.411  43.183  35.902  1.00  0.00     0.175 C
HETATM   48  C1  UNL     1      47.659  42.427  36.169  1.00  0.00     0.034 C
ENDBRANCH  46  47
ENDBRANCH  44  46
ENDBRANCH   1  44
BRANCH  21  49
HETATM   49  O11 UNL     1      41.601  42.502  36.545  1.00  0.00    -0.358 OA
ATOM     50  H11 UNL     1      40.926  42.817  37.135  1.00  0.00     0.217 HD
ENDBRANCH  21  49
BRANCH  23  51
HETATM   51  C24 UNL     1      41.459  38.247  38.944  1.00  0.00     0.117 C
BRANCH  51  52
HETATM   52  S1  UNL     1      42.031  38.797  40.545  1.00  0.00    -0.169 SA
HETATM   53  C25 UNL     1      40.665  39.747  41.324  1.00  0.00     0.090 C
ENDBRANCH  51  52
ENDBRANCH  23  51
TORSDOF 17
ENDMDL