MODEL 1
REMARK VINA RESULT: -11.300057330      0.000      0.000
REMARK  5 active torsions:
REMARK  status: ('A' for Active; 'I' for Inactive)
REMARK    1  A    between atoms: C2_2  and  C3_3
REMARK    2  A    between atoms: C8_8  and  N1_9
REMARK       I    between atoms: N1_9  and  C9_11
REMARK       I    between atoms: C9_11  and  N2_13
REMARK    3  A    between atoms: N2_13  and  C10_15
REMARK    4  A    between atoms: C13_22  and  N5_23
REMARK    5  A    between atoms: N5_23  and  C14_25
ROOT
HETATM    1  C10 UNL     1      12.521   6.946  -8.755  1.00  0.00     0.702 A
HETATM    2  N3  UNL     1      11.376   6.220  -8.788  1.00  0.00    -0.180 N
ATOM      3  H3  UNL     1      11.221   5.465  -8.118  1.00  0.00     0.185 HD
HETATM    4  C11 UNL     1      10.448   6.512  -9.719  1.00  0.00     0.109 A
HETATM    5  C12 UNL     1       9.209   5.675  -9.699  1.00  0.00     0.090 C
HETATM    6  N4  UNL     1      10.631   7.499 -10.611  1.00  0.00    -0.180 N
ATOM      7  H4  UNL     1       9.911   7.696 -11.305  1.00  0.00     0.185 HD
HETATM    8  C13 UNL     1      11.763   8.230 -10.593  1.00  0.00     0.698 A
HETATM    9  N6  UNL     1      12.688   7.924  -9.650  1.00  0.00    -0.022 N
ATOM     10  H6  UNL     1      13.552   8.466  -9.623  1.00  0.00     0.203 HD
ENDROOT
BRANCH   1  11
HETATM   11  N2  UNL     1      13.445   6.713  -7.887  1.00  0.00    -0.140 N
HETATM   12  C9  UNL     1      13.252   5.606  -6.974  1.00  0.00     0.339 C
HETATM   13  N1  UNL     1      13.889   4.415  -7.260  1.00  0.00    -0.308 N
HETATM   14  O1  UNL     1      12.514   5.846  -5.999  1.00  0.00    -0.246 OA
ATOM     15  H1  UNL     1      14.460   4.399  -8.105  1.00  0.00     0.170 HD
ATOM     16  H2  UNL     1      14.285   7.289  -7.845  1.00  0.00     0.189 HD
BRANCH  13  17
HETATM   17  C8  UNL     1      13.842   3.230  -6.525  1.00  0.00     0.037 A
HETATM   18  C7  UNL     1      14.009   3.177  -5.171  1.00  0.00     0.036 A
HETATM   19  C5  UNL     1      13.957   1.957  -4.483  1.00  0.00    -0.059 A
HETATM   20  C4  UNL     1      13.732   0.786  -5.185  1.00  0.00     0.013 A
HETATM   21  C6  UNL     1      14.143   1.934  -3.012  1.00  0.00     0.048 C
HETATM   22  C3  UNL     1      13.560   0.806  -6.546  1.00  0.00    -0.056 A
HETATM   23  C23 UNL     1      13.616   2.005  -7.188  1.00  0.00     0.036 A
BRANCH  22  24
HETATM   24  C2  UNL     1      13.322  -0.439  -7.288  1.00  0.00     0.034 C
HETATM   25  C1  UNL     1      13.743  -0.207  -8.724  1.00  0.00     0.010 C
ENDBRANCH  22  24
ENDBRANCH  13  17
ENDBRANCH   1  11
BRANCH   8  26
HETATM   26  N5  UNL     1      12.027   9.177 -11.389  1.00  0.00    -0.190 N
ATOM     27  H5  UNL     1      12.995   9.240 -11.706  1.00  0.00     0.184 HD
BRANCH  26  28
HETATM   28  C14 UNL     1      11.152  10.147 -11.887  1.00  0.00     0.061 A
HETATM   29  C15 UNL     1      10.608  11.113 -11.072  1.00  0.00    -0.034 A
HETATM   30  C16 UNL     1      10.932  11.159  -9.641  1.00  0.00     0.050 C
HETATM   31  C17 UNL     1       9.734  12.081 -11.571  1.00  0.00     0.015 A
HETATM   32  C18 UNL     1       9.383  12.100 -12.904  1.00  0.00    -0.061 A
HETATM   33  C19 UNL     1       8.446  13.135 -13.444  1.00  0.00     0.048 C
HETATM   34  C20 UNL     1       9.926  11.134 -13.723  1.00  0.00     0.015 A
HETATM   35  C21 UNL     1      10.791  10.180 -13.218  1.00  0.00    -0.034 A
HETATM   36  C22 UNL     1      11.372   9.141 -14.106  1.00  0.00     0.050 C
ENDBRANCH  26  28
ENDBRANCH   8  26
TORSDOF 5
ENDMDL