MODEL 3
REMARK VINA RESULT: -11.556995461      0.149      7.414
REMARK  6 active torsions:
REMARK  status: ('A' for Active; 'I' for Inactive)
REMARK    1  A    between atoms: C6_6  and  N1_7
REMARK    2  A    between atoms: N1_7  and  C7_9
REMARK    3  A    between atoms: C8_12  and  N3_13
REMARK    4  A    between atoms: N3_13  and  C9_15
REMARK    5  A    between atoms: C16_24  and  N5_25
REMARK    6  A    between atoms: N5_25  and  C17_27
ROOT
HETATM    1  C1  UNL     1      13.696  -0.827  -9.209  1.00  0.00     0.018 C
HETATM    2  C2  UNL     1      13.305   0.285  -9.383  1.00  0.00    -0.078 C
HETATM    3  C3  UNL     1      12.843   1.639  -9.579  1.00  0.00     0.017 A
HETATM    4  C4  UNL     1      11.494   1.940  -9.420  1.00  0.00     0.023 A
HETATM    5  C5  UNL     1      11.024   3.224  -9.601  1.00  0.00     0.031 A
HETATM    6  C6  UNL     1      11.871   4.263  -9.948  1.00  0.00     0.049 A
HETATM    7  C24 UNL     1      13.221   3.948 -10.105  1.00  0.00     0.031 A
HETATM    8  C25 UNL     1      13.696   2.671  -9.926  1.00  0.00     0.023 A
ENDROOT
BRANCH   6   9
HETATM    9  N1  UNL     1      11.383   5.566 -10.132  1.00  0.00    -0.191 N
ATOM     10  H1  UNL     1      10.927   5.824 -11.008  1.00  0.00     0.184 HD
BRANCH   9  11
HETATM   11  C7  UNL     1      11.512   6.429  -9.194  1.00  0.00     0.711 A
HETATM   12  N2  UNL     1      12.342   6.184  -8.174  1.00  0.00    -0.021 N
HETATM   13  C8  UNL     1      12.448   7.118  -7.208  1.00  0.00     0.711 A
ATOM     14  H2  UNL     1      12.878   5.317  -8.129  1.00  0.00     0.203 HD
HETATM   15  N4  UNL     1      11.737   8.261  -7.275  1.00  0.00    -0.021 N
HETATM   16  C16 UNL     1      10.895   8.520  -8.299  1.00  0.00     0.711 A
ATOM     17  H4  UNL     1      11.838   8.951  -6.531  1.00  0.00     0.203 HD
HETATM   18  N6  UNL     1      10.794   7.586  -9.258  1.00  0.00    -0.021 N
ATOM     19  H6  UNL     1      10.170   7.746 -10.048  1.00  0.00     0.203 HD
BRANCH  13  20
HETATM   20  N3  UNL     1      13.230   6.906  -6.234  1.00  0.00    -0.191 N
ATOM     21  H3  UNL     1      13.688   7.724  -5.833  1.00  0.00     0.184 HD
BRANCH  20  22
HETATM   22  C9  UNL     1      13.534   5.670  -5.649  1.00  0.00     0.049 A
HETATM   23  C10 UNL     1      13.677   5.604  -4.277  1.00  0.00     0.030 A
HETATM   24  C11 UNL     1      13.974   4.429  -3.618  1.00  0.00     0.009 A
HETATM   25  C12 UNL     1      14.142   3.251  -4.321  1.00  0.00    -0.062 A
HETATM   26  C13 UNL     1      14.462   1.966  -3.645  1.00  0.00     0.048 C
HETATM   27  C14 UNL     1      13.999   3.314  -5.691  1.00  0.00     0.009 A
HETATM   28  C15 UNL     1      13.702   4.488  -6.353  1.00  0.00     0.030 A
ENDBRANCH  20  22
ENDBRANCH  13  20
BRANCH  16  29
HETATM   29  N5  UNL     1      10.202   9.596  -8.392  1.00  0.00    -0.191 N
ATOM     30  H5  UNL     1       9.643   9.850  -7.578  1.00  0.00     0.184 HD
BRANCH  29  31
HETATM   31  C17 UNL     1      10.133  10.459  -9.492  1.00  0.00     0.049 A
HETATM   32  C18 UNL     1       9.045  11.293  -9.654  1.00  0.00     0.030 A
HETATM   33  C19 UNL     1       8.943  12.159 -10.732  1.00  0.00     0.009 A
HETATM   34  C20 UNL     1       9.947  12.204 -11.680  1.00  0.00    -0.062 A
HETATM   35  C21 UNL     1       9.804  13.146 -12.825  1.00  0.00     0.048 C
HETATM   36  C22 UNL     1      11.041  11.378 -11.536  1.00  0.00     0.009 A
HETATM   37  C23 UNL     1      11.118  10.525 -10.454  1.00  0.00     0.030 A
ENDBRANCH  29  31
ENDBRANCH  16  29
ENDBRANCH   9  11
ENDBRANCH   6   9
TORSDOF 6
ENDMDL