MODEL 5
REMARK VINA RESULT: -9.769339483      2.618      8.550
REMARK  5 active torsions:
REMARK  status: ('A' for Active; 'I' for Inactive)
REMARK    1  A    between atoms: C2_2  and  N1_3
REMARK       I    between atoms: N1_3  and  C3_5
REMARK    2  A    between atoms: C3_5  and  C4_7
REMARK    3  A    between atoms: C7_11  and  C8_12
REMARK    4  A    between atoms: C17_21  and  N2_22
REMARK       I    between atoms: N2_22  and  C18_24
REMARK       I    between atoms: C18_24  and  N3_26
REMARK    5  A    between atoms: N3_26  and  C19_28
ROOT
HETATM    1  C8  UNL     1      13.455   2.649  -7.860  1.00  0.00     0.005 A
HETATM    2  C9  UNL     1      13.408   3.974  -8.294  1.00  0.00     0.021 A
HETATM    3  C10 UNL     1      13.587   5.047  -7.453  1.00  0.00    -0.060 A
HETATM    4  C11 UNL     1      13.528   6.440  -7.956  1.00  0.00     0.048 C
HETATM    5  C12 UNL     1      13.825   4.843  -6.110  1.00  0.00     0.021 A
HETATM    6  C13 UNL     1      13.875   3.552  -5.659  1.00  0.00    -0.002 A
HETATM    7  C14 UNL     1      14.124   3.393  -4.300  1.00  0.00    -0.046 A
HETATM    8  C15 UNL     1      14.319   4.523  -3.378  1.00  0.00     0.049 C
HETATM    9  C16 UNL     1      14.187   2.099  -3.822  1.00  0.00     0.056 A
HETATM   10  C17 UNL     1      14.013   1.002  -4.638  1.00  0.00     0.110 A
HETATM   11  N4  UNL     1      13.770   1.216  -5.971  1.00  0.00    -0.341 N
ATOM     12  H4  UNL     1      13.642   0.409  -6.581  1.00  0.00     0.167 HD
HETATM   13  C23 UNL     1      13.696   2.444  -6.503  1.00  0.00     0.056 A
ENDROOT
BRANCH   1  14
HETATM   14  C7  UNL     1      13.197   1.529  -8.748  1.00  0.00     0.018 A
HETATM   15  C4  UNL     1      12.226   1.353  -9.708  1.00  0.00     0.153 A
HETATM   16  O2  UNL     1      12.367   0.127 -10.182  1.00  0.00    -0.316 OA
HETATM   17  C5  UNL     1      13.340  -0.517  -9.622  1.00  0.00     0.143 A
HETATM   18  C6  UNL     1      13.910   0.322  -8.699  1.00  0.00     0.040 A
BRANCH  15  19
HETATM   19  C3  UNL     1      11.215   2.335 -10.142  1.00  0.00     0.276 C
HETATM   20  N1  UNL     1      11.684   3.520 -10.778  1.00  0.00    -0.356 N
ATOM     21  H1  UNL     1      12.687   3.649 -10.908  1.00  0.00     0.162 HD
HETATM   22  O1  UNL     1      10.022   2.099  -9.943  1.00  0.00    -0.265 OA
BRANCH  20  23
HETATM   23  C2  UNL     1      10.775   4.546 -11.245  1.00  0.00     0.118 C
HETATM   24  C1  UNL     1      10.486   5.585 -10.190  1.00  0.00     0.026 C
ENDBRANCH  20  23
ENDBRANCH  15  19
ENDBRANCH   1  14
BRANCH  10  25
HETATM   25  N2  UNL     1      14.056  -0.216  -4.229  1.00  0.00    -0.295 N
HETATM   26  C18 UNL     1      15.226  -0.883  -3.841  1.00  0.00     0.322 C
HETATM   27  O3  UNL     1      15.978  -0.404  -2.959  1.00  0.00    -0.247 OA
HETATM   28  N3  UNL     1      15.589  -2.123  -4.438  1.00  0.00    -0.335 N
ATOM     29  H3  UNL     1      14.975  -2.513  -5.154  1.00  0.00     0.165 HD
ATOM     30  H2  UNL     1      13.178  -0.733  -4.185  1.00  0.00     0.172 HD
BRANCH  28  31
HETATM   31  C19 UNL     1      16.778  -2.858  -4.083  1.00  0.00     0.023 C
HETATM   32  C20 UNL     1      16.801  -4.163  -4.855  1.00  0.00     0.037 C
HETATM   33  C21 UNL     1      18.033  -2.072  -4.401  1.00  0.00     0.037 C
HETATM   34  C22 UNL     1      16.776  -3.201  -2.620  1.00  0.00     0.037 C
ENDBRANCH  28  31
ENDBRANCH  10  25
TORSDOF 5
ENDMDL