MODEL 3
REMARK VINA RESULT: -11.287569919      2.348      5.131
REMARK  2 active torsions:
REMARK  status: ('A' for Active; 'I' for Inactive)
REMARK    1  A    between atoms: C6_9  and  C7_10
REMARK    2  A    between atoms: C10_13  and  C11_14
ROOT
HETATM    1  O1  UNL     1      14.966   1.183  -1.920  1.00  0.00    -0.268 OA
HETATM    2  C1  UNL     1      14.749   2.023  -2.830  1.00  0.00     0.249 A
HETATM    3  C2  UNL     1      14.170   1.694  -4.119  1.00  0.00     0.107 A
HETATM    4  C3  UNL     1      14.072   2.804  -4.860  1.00  0.00     0.082 A
HETATM    5  N1  UNL     1      13.543   2.816  -6.157  1.00  0.00    -0.352 N
ATOM      6  H1  UNL     1      13.308   1.884  -6.498  1.00  0.00     0.166 HD
HETATM    7  C4  UNL     1      13.286   3.751  -7.022  1.00  0.00     0.047 C
HETATM    8  C5  UNL     1      12.718   3.342  -8.281  1.00  0.00     0.031 A
HETATM    9  C6  UNL     1      12.240   4.048  -9.346  1.00  0.00     0.056 A
HETATM   10  N4  UNL     1      12.111   3.230 -10.454  1.00  0.00    -0.354 N
ATOM     11  H4  UNL     1      11.783   3.518 -11.376  1.00  0.00     0.166 HD
HETATM   12  C16 UNL     1      12.488   2.004 -10.109  1.00  0.00     0.043 A
HETATM   13  C17 UNL     1      12.522   0.851 -10.891  1.00  0.00     0.030 A
HETATM   14  C18 UNL     1      12.947  -0.324 -10.330  1.00  0.00     0.002 A
HETATM   15  C19 UNL     1      13.327  -0.333  -9.020  1.00  0.00     0.001 A
HETATM   16  C20 UNL     1      13.284   0.852  -8.247  1.00  0.00     0.014 A
HETATM   17  C21 UNL     1      12.864   2.026  -8.794  1.00  0.00     0.005 A
HETATM   18  C22 UNL     1      13.760   5.111  -6.834  1.00  0.00     0.047 C
HETATM   19  C23 UNL     1      14.348   5.687  -5.759  1.00  0.00     0.092 C
HETATM   20  N5  UNL     1      14.691   5.156  -4.494  1.00  0.00    -0.350 N
ATOM     21  H5  UNL     1      15.068   5.818  -3.817  1.00  0.00     0.166 HD
HETATM   22  C24 UNL     1      14.583   3.927  -4.090  1.00  0.00     0.135 A
HETATM   23  N6  UNL     1      14.994   3.420  -2.839  1.00  0.00    -0.308 N
ATOM     24  H6  UNL     1      15.398   3.962  -2.076  1.00  0.00     0.170 HD
ENDROOT
BRANCH   9  25
HETATM   25  C7  UNL     1      11.797   5.425  -9.457  1.00  0.00    -0.008 A
HETATM   26  C8  UNL     1      10.699   5.938  -8.831  1.00  0.00     0.014 A
HETATM   27  C9  UNL     1      10.323   7.279  -8.938  1.00  0.00     0.013 A
HETATM   28  C10 UNL     1      11.085   8.124  -9.705  1.00  0.00    -0.023 A
HETATM   29  C14 UNL     1      12.196   7.656 -10.356  1.00  0.00     0.013 A
HETATM   30  C15 UNL     1      12.535   6.331 -10.226  1.00  0.00     0.014 A
BRANCH  28  31
HETATM   31  C11 UNL     1      10.722   9.518  -9.835  1.00  0.00     0.008 A
HETATM   32  C12 UNL     1       9.875  10.264  -9.047  1.00  0.00     0.120 A
HETATM   33  N2  UNL     1       9.855  11.497  -9.558  1.00  0.00    -0.311 N
HETATM   34  N3  UNL     1      10.637  11.538 -10.607  1.00  0.00    -0.311 N
ATOM     35  H2  UNL     1       9.317  12.281  -9.191  1.00  0.00     0.186 HD
HETATM   36  C13 UNL     1      11.202  10.346 -10.830  1.00  0.00     0.120 A
ATOM     37  H3  UNL     1      10.795  12.369 -11.177  1.00  0.00     0.186 HD
ENDBRANCH  28  31
ENDBRANCH   9  25
TORSDOF 2
ENDMDL