MODEL 2
REMARK VINA RESULT: -11.753585610      1.679      2.494
REMARK  4 active torsions:
REMARK  status: ('A' for Active; 'I' for Inactive)
REMARK    1  A    between atoms: C8_10  and  S1_11
REMARK    2  A    between atoms: S1_11  and  N2_14
REMARK    3  A    between atoms: N2_14  and  N3_16
REMARK    4  A    between atoms: N3_16  and  C9_18
ROOT
HETATM    1  N2  UNL     1      13.007   7.188  -7.657  1.00  0.00    -0.222 N
ATOM      2  H2  UNL     1      13.506   7.983  -7.257  1.00  0.00     0.200 HD
ENDROOT
BRANCH   1   3
HETATM    3  S1  UNL     1      11.352   7.316  -8.156  1.00  0.00     0.279 S
HETATM    4  O1  UNL     1      10.746   8.390  -7.267  1.00  0.00    -0.199 OA
HETATM    5  O2  UNL     1      10.668   6.035  -7.776  1.00  0.00    -0.199 OA
BRANCH   3   6
HETATM    6  C8  UNL     1      11.206   7.712  -9.828  1.00  0.00     0.115 A
HETATM    7  C6  UNL     1      11.531   6.904 -10.891  1.00  0.00     0.030 A
HETATM    8  N1  UNL     1      11.273   7.574 -12.055  1.00  0.00    -0.358 N
HETATM    9  C7  UNL     1      12.074   5.535 -10.893  1.00  0.00     0.070 C
HETATM   10  C5  UNL     1      10.793   8.783 -11.777  1.00  0.00     0.044 A
ATOM     11  H1  UNL     1      11.426   7.202 -12.992  1.00  0.00     0.166 HD
HETATM   12  C4  UNL     1      10.382   9.837 -12.584  1.00  0.00     0.031 A
HETATM   13  C21 UNL     1      10.745   8.888 -10.391  1.00  0.00     0.016 A
HETATM   14  C3  UNL     1       9.925  10.986 -11.968  1.00  0.00     0.009 A
HETATM   15  C2  UNL     1       9.881  11.077 -10.586  1.00  0.00    -0.061 A
HETATM   16  C1  UNL     1       9.390  12.315  -9.934  1.00  0.00     0.048 C
HETATM   17  C22 UNL     1      10.288  10.036  -9.798  1.00  0.00     0.022 A
ENDBRANCH   3   6
ENDBRANCH   1   3
BRANCH   1  18
HETATM   18  N3  UNL     1      13.624   5.946  -7.827  1.00  0.00    -0.290 N
ATOM     19  H3  UNL     1      14.008   5.705  -8.741  1.00  0.00     0.187 HD
BRANCH  18  20
HETATM   20  C9  UNL     1      13.724   5.094  -6.859  1.00  0.00     0.063 A
HETATM   21  C10 UNL     1      13.911   5.468  -5.547  1.00  0.00     0.056 A
HETATM   22  C11 UNL     1      14.004   4.483  -4.587  1.00  0.00     0.008 A
HETATM   23  C12 UNL     1      14.209   4.931  -3.172  1.00  0.00     0.068 C
HETATM   24  N4  UNL     1      13.916   3.181  -4.909  1.00  0.00    -0.359 N
HETATM   25  C13 UNL     1      13.733   2.779  -6.180  1.00  0.00     0.045 A
ATOM     26  H4  UNL     1      13.991   2.480  -4.173  1.00  0.00     0.166 HD
HETATM   27  C14 UNL     1      13.640   1.450  -6.536  1.00  0.00     0.037 A
HETATM   28  C20 UNL     1      13.638   3.750  -7.154  1.00  0.00     0.019 A
HETATM   29  C15 UNL     1      13.454   1.017  -7.824  1.00  0.00    -0.054 A
HETATM   30  C16 UNL     1      13.363  -0.431  -8.126  1.00  0.00     0.049 C
HETATM   31  C17 UNL     1      13.357   1.979  -8.802  1.00  0.00    -0.055 A
HETATM   32  C18 UNL     1      13.153   1.528 -10.210  1.00  0.00     0.049 C
HETATM   33  C19 UNL     1      13.447   3.316  -8.473  1.00  0.00     0.023 A
ENDBRANCH  18  20
ENDBRANCH   1  18
TORSDOF 4
ENDMDL