MODEL 3
REMARK VINA RESULT: -9.685107475      0.731      1.110
REMARK  5 active torsions:
REMARK  status: ('A' for Active; 'I' for Inactive)
REMARK    1  A    between atoms: C3_5  and  C4_6
REMARK       I    between atoms: C4_6  and  N2_8
REMARK    2  A    between atoms: N2_8  and  C5_10
REMARK    3  A    between atoms: C5_10  and  C6_11
REMARK    4  A    between atoms: C6_11  and  N3_14
REMARK    5  A    between atoms: C18_29  and  C19_30
ROOT
HETATM    1  C1  UNL     1      13.816   4.421  -3.312  1.00  0.00     0.070 C
HETATM    2  C2  UNL     1      13.749   3.634  -4.587  1.00  0.00     0.033 A
HETATM    3  N1  UNL     1      13.513   4.308  -5.710  1.00  0.00    -0.353 N
ATOM      4  H1  UNL     1      13.390   5.321  -5.687  1.00  0.00     0.166 HD
HETATM    5  C3  UNL     1      13.439   3.627  -6.902  1.00  0.00     0.107 A
HETATM    6  C9  UNL     1      13.614   2.262  -6.908  1.00  0.00    -0.020 A
HETATM    7  C10 UNL     1      13.704   1.588  -8.215  1.00  0.00     0.051 C
HETATM    8  C11 UNL     1      13.849   1.535  -5.785  1.00  0.00    -0.009 A
HETATM    9  C12 UNL     1      13.920   2.276  -4.577  1.00  0.00     0.059 A
HETATM   10  N4  UNL     1      14.216   1.617  -3.357  1.00  0.00    -0.379 N
ATOM     11  H4  UNL     1      13.781   1.928  -2.488  1.00  0.00     0.160 HD
HETATM   12  C13 UNL     1      15.149   0.485  -3.348  1.00  0.00     0.028 C
HETATM   13  C14 UNL     1      16.530   1.099  -3.056  1.00  0.00     0.038 C
HETATM   14  C15 UNL     1      14.812  -0.385  -2.209  1.00  0.00     0.038 C
HETATM   15  C16 UNL     1      15.201  -0.081  -4.704  1.00  0.00     0.033 C
HETATM   16  C17 UNL     1      15.505  -1.508  -4.836  1.00  0.00     0.043 C
HETATM   17  C18 UNL     1      15.044  -1.772  -6.229  1.00  0.00    -0.074 C
HETATM   18  C23 UNL     1      14.173  -0.852  -6.613  1.00  0.00    -0.009 C
HETATM   19  C24 UNL     1      13.954   0.108  -5.563  1.00  0.00     0.010 C
HETATM   20  C25 UNL     1      12.723  -0.398  -4.756  1.00  0.00     0.025 C
ENDROOT
BRANCH   5  21
HETATM   21  C4  UNL     1      13.145   4.457  -8.084  1.00  0.00     0.268 C
HETATM   22  O1  UNL     1      14.184   5.059  -8.566  1.00  0.00    -0.266 OA
HETATM   23  N2  UNL     1      11.898   4.644  -8.688  1.00  0.00    -0.353 N
ATOM     24  H2  UNL     1      11.065   4.185  -8.319  1.00  0.00     0.162 HD
BRANCH  23  25
HETATM   25  C5  UNL     1      11.816   5.511  -9.860  1.00  0.00     0.160 C
BRANCH  25  26
HETATM   26  C6  UNL     1      10.422   6.069 -10.028  1.00  0.00     0.132 C
HETATM   27  C7  UNL     1      10.062   6.878  -8.794  1.00  0.00     0.047 C
HETATM   28  C8  UNL     1      10.296   6.907 -11.276  1.00  0.00     0.047 C
BRANCH  26  29
HETATM   29  N3  UNL     1       9.500   4.964 -10.103  1.00  0.00    -0.070 N
ATOM     30  H33 UNL     1       8.633   5.141  -9.594  1.00  0.00     0.275 HD
ATOM     31  H32 UNL     1       9.094   4.854 -11.032  1.00  0.00     0.275 HD
ATOM     32  H31 UNL     1       9.980   4.124  -9.781  1.00  0.00     0.275 HD
ENDBRANCH  26  29
ENDBRANCH  25  26
ENDBRANCH  23  25
ENDBRANCH   5  21
BRANCH  17  33
HETATM   33  C19 UNL     1      15.512  -2.920  -7.053  1.00  0.00    -0.028 C
HETATM   34  C20 UNL     1      14.382  -3.473  -7.894  1.00  0.00     0.019 C
HETATM   35  C21 UNL     1      16.681  -2.525  -7.885  1.00  0.00     0.019 C
HETATM   36  C22 UNL     1      15.922  -4.049  -6.104  1.00  0.00     0.019 C
ENDBRANCH  17  33
TORSDOF 5
ENDMDL