MODEL 2
REMARK VINA RESULT: -11.182986617      1.071      1.313
REMARK  4 active torsions:
REMARK  status: ('A' for Active; 'I' for Inactive)
REMARK    1  A    between atoms: C6_8  and  C7_9
REMARK    2  A    between atoms: C7_9  and  C8_11
REMARK       I    between atoms: C8_11  and  N2_13
REMARK    3  A    between atoms: N2_13  and  N3_15
REMARK       I    between atoms: N3_15  and  C9_17
REMARK       I    between atoms: C9_17  and  N4_19
REMARK    4  A    between atoms: N4_19  and  C11_21
ROOT
HETATM    1  C1  UNL     1      14.915   1.516  -2.442  1.00  0.00     0.049 C
HETATM    2  C2  UNL     1      14.446   1.751  -3.843  1.00  0.00    -0.054 A
HETATM    3  C3  UNL     1      14.360   3.021  -4.374  1.00  0.00     0.037 A
HETATM    4  C4  UNL     1      13.928   3.262  -5.664  1.00  0.00     0.044 A
HETATM    5  N1  UNL     1      13.754   4.361  -6.406  1.00  0.00    -0.354 N
ATOM      6  H1  UNL     1      13.937   5.314  -6.092  1.00  0.00     0.166 HD
HETATM    7  C5  UNL     1      13.302   4.025  -7.627  1.00  0.00     0.059 A
HETATM    8  C6  UNL     1      12.979   4.817  -8.727  1.00  0.00     0.053 A
HETATM    9  C14 UNL     1      12.536   4.184  -9.859  1.00  0.00    -0.045 A
HETATM   10  C15 UNL     1      12.182   5.004 -11.046  1.00  0.00     0.049 C
HETATM   11  C16 UNL     1      12.405   2.813  -9.924  1.00  0.00     0.015 A
HETATM   12  C17 UNL     1      12.727   2.006  -8.826  1.00  0.00    -0.048 A
HETATM   13  C18 UNL     1      12.580   0.529  -8.922  1.00  0.00     0.049 C
HETATM   14  C19 UNL     1      13.177   2.639  -7.676  1.00  0.00     0.010 A
HETATM   15  C20 UNL     1      13.572   2.158  -6.437  1.00  0.00     0.004 A
HETATM   16  C21 UNL     1      13.650   0.886  -5.929  1.00  0.00     0.022 A
HETATM   17  C22 UNL     1      14.092   0.675  -4.617  1.00  0.00    -0.055 A
HETATM   18  C23 UNL     1      14.144  -0.723  -4.142  1.00  0.00     0.049 C
ENDROOT
BRANCH   8  19
HETATM   19  C7  UNL     1      13.095   6.255  -8.702  1.00  0.00     0.253 C
HETATM   20  O1  UNL     1      14.275   6.729  -8.613  1.00  0.00    -0.281 OA
BRANCH  19  21
HETATM   21  C8  UNL     1      11.998   7.176  -8.769  1.00  0.00     0.311 C
HETATM   22  O2  UNL     1      10.935   6.925  -8.155  1.00  0.00    -0.262 OA
HETATM   23  N2  UNL     1      12.068   8.382  -9.514  1.00  0.00    -0.259 N
ATOM     24  H2  UNL     1      12.929   8.596 -10.016  1.00  0.00     0.190 HD
BRANCH  23  25
HETATM   25  N3  UNL     1      11.011   9.286  -9.589  1.00  0.00    -0.249 N
HETATM   26  C9  UNL     1      10.918  10.313 -10.566  1.00  0.00     0.337 C
HETATM   27  O3  UNL     1      11.855  10.384 -11.392  1.00  0.00    -0.245 OA
HETATM   28  N4  UNL     1       9.810  11.181 -10.564  1.00  0.00    -0.333 N
HETATM   29  C10 UNL     1       8.777  11.020  -9.567  1.00  0.00     0.155 C
ATOM     30  H3  UNL     1      10.259   9.205  -8.904  1.00  0.00     0.192 HD
BRANCH  28  31
HETATM   31  C11 UNL     1       9.660  12.246 -11.541  1.00  0.00     0.080 C
HETATM   32  C12 UNL     1       9.391  11.713 -12.932  1.00  0.00     0.032 C
HETATM   33  C13 UNL     1       8.530  13.146 -11.105  1.00  0.00     0.032 C
ENDBRANCH  28  31
ENDBRANCH  23  25
ENDBRANCH  19  21
ENDBRANCH   8  19
TORSDOF 4
ENDMDL