MODEL 2
REMARK VINA RESULT: -10.721114167      1.088      1.829
REMARK  6 active torsions:
REMARK  status: ('A' for Active; 'I' for Inactive)
REMARK    1  A    between atoms: C4_4  and  C5_5
REMARK    2  A    between atoms: C5_5  and  N1_6
REMARK    3  A    between atoms: N1_6  and  C6_8
REMARK    4  A    between atoms: N3_12  and  C8_14
REMARK    5  A    between atoms: C15_23  and  N5_24
REMARK    6  A    between atoms: N5_24  and  C16_26
ROOT
HETATM    1  C6  UNL     1      13.328   5.791  -6.250  1.00  0.00     0.707 A
HETATM    2  N2  UNL     1      12.877   4.884  -7.150  1.00  0.00    -0.022 N
ATOM      3  H2  UNL     1      13.158   3.907  -7.068  1.00  0.00     0.203 HD
HETATM    4  C7  UNL     1      12.063   5.262  -8.149  1.00  0.00     0.707 A
HETATM    5  N3  UNL     1      11.634   4.422  -8.998  1.00  0.00    -0.220 N
ATOM      6  H3  UNL     1      11.020   4.792  -9.724  1.00  0.00     0.178 HD
HETATM    7  N4  UNL     1      11.691   6.574  -8.252  1.00  0.00    -0.021 N
ATOM      8  H4  UNL     1      11.073   6.862  -9.011  1.00  0.00     0.203 HD
HETATM    9  C15 UNL     1      12.126   7.486  -7.370  1.00  0.00     0.707 A
HETATM   10  N6  UNL     1      12.940   7.066  -6.387  1.00  0.00    -0.022 N
ATOM     11  H6  UNL     1      13.279   7.751  -5.711  1.00  0.00     0.203 HD
ENDROOT
BRANCH   1  12
HETATM   12  N1  UNL     1      14.104   5.374  -5.317  1.00  0.00    -0.225 N
ATOM     13  H1  UNL     1      15.066   5.712  -5.313  1.00  0.00     0.177 HD
BRANCH  12  14
HETATM   14  C5  UNL     1      13.713   4.465  -4.278  1.00  0.00     0.142 C
BRANCH  14  15
HETATM   15  C4  UNL     1      14.483   3.179  -4.419  1.00  0.00     0.004 C
HETATM   16  C3  UNL     1      13.485   2.074  -4.664  1.00  0.00     0.006 C
HETATM   17  C2  UNL     1      14.227   0.756  -4.681  1.00  0.00     0.000 C
HETATM   18  C1  UNL     1      14.774   0.551  -3.268  1.00  0.00     0.000 C
HETATM   19  C23 UNL     1      15.863   1.575  -3.065  1.00  0.00     0.000 C
HETATM   20  C22 UNL     1      15.298   2.965  -3.187  1.00  0.00     0.006 C
ENDBRANCH  14  15
ENDBRANCH  12  14
ENDBRANCH   1  12
BRANCH   9  21
HETATM   21  N5  UNL     1      11.809   8.702  -7.429  1.00  0.00    -0.220 N
ATOM     22  H5  UNL     1      11.591   9.142  -6.534  1.00  0.00     0.178 HD
BRANCH  21  23
HETATM   23  C16 UNL     1      11.712   9.549  -8.567  1.00  0.00     0.099 C
HETATM   24  C17 UNL     1      10.338   9.995  -8.921  1.00  0.00     0.026 C
HETATM   25  C18 UNL     1      10.486  11.162  -9.905  1.00  0.00     0.002 C
HETATM   26  C19 UNL     1      11.333  10.728 -11.072  1.00  0.00     0.000 C
HETATM   27  C20 UNL     1      11.608   9.225 -11.042  1.00  0.00     0.002 C
HETATM   28  C21 UNL     1      12.293   8.814  -9.757  1.00  0.00     0.026 C
ENDBRANCH  21  23
ENDBRANCH   9  21
BRANCH   5  29
HETATM   29  C8  UNL     1      11.908   3.011  -9.059  1.00  0.00     0.099 C
HETATM   30  C9  UNL     1      13.206   2.824  -9.807  1.00  0.00     0.026 C
HETATM   31  C10 UNL     1      13.583   1.399 -10.020  1.00  0.00     0.002 C
HETATM   32  C11 UNL     1      12.609   0.401  -9.486  1.00  0.00     0.000 C
HETATM   33  C12 UNL     1      11.529   0.202 -10.545  1.00  0.00     0.000 C
HETATM   34  C13 UNL     1      11.144   1.607 -11.012  1.00  0.00     0.002 C
HETATM   35  C14 UNL     1      10.744   2.380  -9.790  1.00  0.00     0.026 C
ENDBRANCH   5  29
TORSDOF 6
ENDMDL