MODEL 3
REMARK VINA RESULT: -9.973333679      2.070      2.919
REMARK  5 active torsions:
REMARK  status: ('A' for Active; 'I' for Inactive)
REMARK       I    between atoms: N1_2  and  C2_4
REMARK    1  A    between atoms: C2_4  and  C3_6
REMARK    2  A    between atoms: C3_6  and  N2_7
REMARK    3  A    between atoms: C3_6  and  C18_30
REMARK       I    between atoms: N2_7  and  C4_9
REMARK       I    between atoms: C4_9  and  N3_11
REMARK    4  A    between atoms: N3_11  and  C5_13
REMARK    5  A    between atoms: C7_17  and  C8_18
ROOT
HETATM    1  C5  UNL     1      11.869   4.273 -10.715  1.00  0.00     0.153 A
HETATM    2  N4  UNL     1      10.902   3.428 -10.367  1.00  0.00    -0.345 N
ATOM      3  H4  UNL     1       9.950   3.557 -10.711  1.00  0.00     0.167 HD
HETATM    4  C6  UNL     1      11.193   2.433  -9.581  1.00  0.00     0.110 A
HETATM    5  C7  UNL     1      12.491   2.316  -9.155  1.00  0.00     0.034 A
HETATM    6  S1  UNL     1      13.238   3.651  -9.909  1.00  0.00    -0.052 SA
ENDROOT
BRANCH   1   7
HETATM    7  N3  UNL     1      11.761   5.325 -11.495  1.00  0.00    -0.289 N
HETATM    8  C4  UNL     1      10.959   6.408 -11.092  1.00  0.00     0.322 C
HETATM    9  N2  UNL     1      11.296   7.713 -11.477  1.00  0.00    -0.329 N
HETATM   10  O2  UNL     1       9.946   6.214 -10.395  1.00  0.00    -0.247 OA
ATOM     11  H2  UNL     1      12.130   7.842 -12.049  1.00  0.00     0.165 HD
ATOM     12  H3  UNL     1      12.256   5.357 -12.387  1.00  0.00     0.172 HD
BRANCH   9  13
HETATM   13  C3  UNL     1      10.529   8.895 -11.110  1.00  0.00     0.185 C
BRANCH  13  14
HETATM   14  C2  UNL     1      10.492   9.796 -12.268  1.00  0.00     0.240 C
HETATM   15  N1  UNL     1       9.572  10.845 -12.495  1.00  0.00    -0.364 N
HETATM   16  C1  UNL     1       9.669  11.663 -13.705  1.00  0.00     0.149 C
ATOM     17  H1  UNL     1       8.836  11.032 -11.813  1.00  0.00     0.161 HD
HETATM   18  O1  UNL     1      11.379   9.626 -13.175  1.00  0.00    -0.271 OA
ENDBRANCH  13  14
BRANCH  13  19
HETATM   19  C18 UNL     1      11.063   9.500  -9.838  1.00  0.00    -0.022 C
HETATM   20  C19 UNL     1      12.196   8.738  -9.236  1.00  0.00     0.017 C
HETATM   21  C20 UNL     1      11.447  10.933 -10.040  1.00  0.00     0.017 C
HETATM   22  C21 UNL     1       9.917   9.499  -8.829  1.00  0.00     0.017 C
ENDBRANCH  13  19
ENDBRANCH   9  13
ENDBRANCH   1   7
BRANCH   5  23
HETATM   23  C8  UNL     1      13.068   1.282  -8.264  1.00  0.00    -0.017 A
HETATM   24  C9  UNL     1      13.343   0.029  -8.762  1.00  0.00     0.015 A
HETATM   25  C10 UNL     1      13.879  -0.959  -7.965  1.00  0.00     0.039 A
HETATM   26  C11 UNL     1      14.151  -0.699  -6.639  1.00  0.00     0.086 A
HETATM   27  O3  UNL     1      14.646  -1.377  -5.624  1.00  0.00    -0.314 OA
HETATM   28  C16 UNL     1      13.868   0.575  -6.152  1.00  0.00     0.007 A
HETATM   29  C12 UNL     1      14.702  -0.657  -4.545  1.00  0.00     0.056 A
HETATM   30  C13 UNL     1      15.197  -1.067  -3.205  1.00  0.00     0.077 C
HETATM   31  C14 UNL     1      14.215   0.605  -4.824  1.00  0.00    -0.020 A
HETATM   32  C15 UNL     1      14.089   1.748  -3.909  1.00  0.00     0.052 C
HETATM   33  C17 UNL     1      13.333   1.547  -6.962  1.00  0.00     0.027 A
ENDBRANCH   5  23
TORSDOF 5
ENDMDL