MODEL 3
REMARK VINA RESULT: -10.172068988      1.590      2.238
REMARK  5 active torsions:
REMARK  status: ('A' for Active; 'I' for Inactive)
REMARK    1  A    between atoms: C6_6  and  C7_7
REMARK    2  A    between atoms: C7_7  and  N1_8
REMARK    3  A    between atoms: N1_8  and  C8_9
REMARK    4  A    between atoms: C11_16  and  N4_17
REMARK    5  A    between atoms: N4_17  and  C12_19
ROOT
HETATM    1  C8  UNL     1      16.682   2.757  -5.707  1.00  0.00     0.160 A
HETATM    2  C9  UNL     1      15.445   3.253  -4.793  1.00  0.00     0.152 A
HETATM    3  C10 UNL     1      14.660   4.309  -5.384  1.00  0.00     0.050 A
HETATM    4  N2  UNL     1      13.443   4.814  -4.944  1.00  0.00    -0.302 N
ATOM      5  H2  UNL     1      12.954   4.598  -4.075  1.00  0.00     0.186 HD
HETATM    6  N3  UNL     1      13.053   5.655  -5.924  1.00  0.00    -0.284 N
ATOM      7  H3  UNL     1      12.183   6.186  -5.874  1.00  0.00     0.188 HD
HETATM    8  C11 UNL     1      13.835   5.738  -6.899  1.00  0.00     0.135 A
HETATM    9  C18 UNL     1      14.957   4.863  -6.595  1.00  0.00     0.056 A
HETATM   10  C19 UNL     1      15.987   4.359  -7.177  1.00  0.00     0.023 A
HETATM   11  C20 UNL     1      16.156   4.969  -8.645  1.00  0.00     0.069 C
HETATM   12  N7  UNL     1      16.790   3.423  -6.872  1.00  0.00    -0.337 N
ATOM     13  H7  UNL     1      17.534   3.171  -7.523  1.00  0.00     0.168 HD
ENDROOT
BRANCH   1  14
HETATM   14  N1  UNL     1      17.359   2.030  -5.072  1.00  0.00    -0.403 NA
BRANCH  14  15
HETATM   15  C7  UNL     1      18.167   1.135  -4.369  1.00  0.00     0.197 C
BRANCH  15  16
HETATM   16  C6  UNL     1      17.652  -0.265  -4.327  1.00  0.00     0.005 A
HETATM   17  C4  UNL     1      17.949  -1.198  -5.232  1.00  0.00    -0.048 A
HETATM   18  C3  UNL     1      17.647  -2.592  -5.101  1.00  0.00     0.014 A
HETATM   19  C5  UNL     1      18.673  -0.789  -6.453  1.00  0.00     0.049 C
HETATM   20  C2  UNL     1      16.977  -2.941  -3.928  1.00  0.00    -0.061 A
HETATM   21  C1  UNL     1      16.889  -4.406  -3.513  1.00  0.00     0.048 C
HETATM   22  C23 UNL     1      16.617  -1.993  -3.022  1.00  0.00     0.014 A
HETATM   23  C21 UNL     1      16.956  -0.668  -3.200  1.00  0.00    -0.048 A
HETATM   24  C22 UNL     1      16.384   0.338  -2.336  1.00  0.00     0.049 C
ENDBRANCH  15  16
ENDBRANCH  14  15
ENDBRANCH   1  14
BRANCH   8  25
HETATM   25  N4  UNL     1      13.919   6.408  -8.105  1.00  0.00    -0.337 N
ATOM     26  H4  UNL     1      14.645   7.086  -8.341  1.00  0.00     0.167 HD
BRANCH  25  27
HETATM   27  C12 UNL     1      12.838   6.017  -8.991  1.00  0.00     0.081 A
HETATM   28  C13 UNL     1      12.345   4.817  -9.350  1.00  0.00     0.051 A
HETATM   29  C14 UNL     1      12.533   3.478  -8.789  1.00  0.00     0.072 C
HETATM   30  N5  UNL     1      11.395   5.070 -10.325  1.00  0.00    -0.301 N
HETATM   31  N6  UNL     1      11.313   6.377 -10.532  1.00  0.00    -0.299 N
ATOM     32  H5  UNL     1      10.845   4.361 -10.810  1.00  0.00     0.187 HD
HETATM   33  C15 UNL     1      10.394   6.936 -11.548  1.00  0.00     0.177 C
HETATM   34  C16 UNL     1      12.168   6.992  -9.769  1.00  0.00     0.053 A
HETATM   35  C17 UNL     1      12.251   8.475  -9.626  1.00  0.00     0.072 C
ENDBRANCH  25  27
ENDBRANCH   8  25
TORSDOF 5
ENDMDL