MODEL 2
REMARK VINA RESULT: -8.558467022      0.611      1.046
REMARK  8 active torsions:
REMARK  status: ('A' for Active; 'I' for Inactive)
REMARK    1  A    between atoms: C2_2  and  N1_5
REMARK    2  A    between atoms: N1_5  and  C5_7
REMARK    3  A    between atoms: C6_10  and  N3_11
REMARK    4  A    between atoms: N3_11  and  C7_13
REMARK    5  A    between atoms: C7_13  and  C8_14
REMARK    6  A    between atoms: C8_14  and  C9_15
REMARK    7  A    between atoms: C11_19  and  C12_20
REMARK    8  A    between atoms: C16_24  and  C17_25
ROOT
HETATM    1  C5  UNL     1      12.974   5.810  -6.212  1.00  0.00     0.680 A
HETATM    2  N2  UNL     1      12.635   5.014  -7.203  1.00  0.00    -0.176 N
ATOM      3  H2  UNL     1      12.787   4.013  -7.082  1.00  0.00     0.186 HD
HETATM    4  C6  UNL     1      12.085   5.447  -8.403  1.00  0.00     0.130 A
HETATM    5  C10 UNL     1      11.857   6.779  -8.629  1.00  0.00     0.043 A
HETATM    6  C11 UNL     1      11.335   7.305  -9.860  1.00  0.00    -0.027 A
HETATM    7  C16 UNL     1      11.257   8.722  -9.892  1.00  0.00    -0.042 A
HETATM    8  C21 UNL     1      11.646   9.465  -8.771  1.00  0.00     0.011 A
HETATM    9  C22 UNL     1      12.123   8.934  -7.622  1.00  0.00     0.031 A
HETATM   10  C23 UNL     1      12.235   7.589  -7.548  1.00  0.00     0.063 A
HETATM   11  N4  UNL     1      12.770   7.100  -6.390  1.00  0.00    -0.191 N
ATOM     12  H4  UNL     1      13.019   7.751  -5.644  1.00  0.00     0.184 HD
ENDROOT
BRANCH   4  13
HETATM   13  N3  UNL     1      11.897   4.552  -9.255  1.00  0.00    -0.375 N
ATOM     14  H3  UNL     1      11.236   4.713 -10.015  1.00  0.00     0.161 HD
BRANCH  13  15
HETATM   15  C7  UNL     1      12.599   3.298  -9.181  1.00  0.00     0.132 C
BRANCH  15  16
HETATM   16  C8  UNL     1      11.825   2.047  -9.069  1.00  0.00     0.132 C
BRANCH  16  17
HETATM   17  C9  UNL     1      10.948   1.721 -10.206  1.00  0.00     0.174 C
HETATM   18  O1  UNL     1      10.875   2.345 -11.288  1.00  0.00    -0.648 OA
HETATM   19  O2  UNL     1      10.093   0.606 -10.107  1.00  0.00    -0.648 OA
ENDBRANCH  16  17
ENDBRANCH  15  16
ENDBRANCH  13  15
ENDBRANCH   4  13
BRANCH   1  20
HETATM   20  N1  UNL     1      13.463   5.401  -5.143  1.00  0.00    -0.218 N
ATOM     21  H1  UNL     1      12.936   5.701  -4.322  1.00  0.00     0.178 HD
BRANCH  20  22
HETATM   22  C2  UNL     1      14.587   4.612  -4.820  1.00  0.00     0.036 C
HETATM   23  C1  UNL     1      14.295   3.122  -5.109  1.00  0.00     0.038 C
HETATM   24  C3  UNL     1      15.022   4.641  -3.378  1.00  0.00     0.038 C
HETATM   25  C4  UNL     1      15.735   4.959  -5.745  1.00  0.00     0.038 C
ENDBRANCH  20  22
ENDBRANCH   1  20
BRANCH   6  26
HETATM   26  C12 UNL     1      10.880   6.400 -10.818  1.00  0.00    -0.023 C
HETATM   27  C13 UNL     1      10.001   7.052 -11.919  1.00  0.00     0.019 C
HETATM   28  C14 UNL     1      11.632   5.624 -11.825  1.00  0.00     0.019 C
HETATM   29  C15 UNL     1       9.678   5.546 -10.301  1.00  0.00     0.019 C
ENDBRANCH   6  26
BRANCH   7  30
HETATM   30  C17 UNL     1      11.066   9.483 -11.091  1.00  0.00    -0.024 C
HETATM   31  C18 UNL     1      12.032   9.424 -12.242  1.00  0.00     0.019 C
HETATM   32  C19 UNL     1       9.745  10.121 -11.431  1.00  0.00     0.019 C
HETATM   33  C20 UNL     1      11.728  10.913 -10.639  1.00  0.00     0.019 C
ENDBRANCH   7  30
TORSDOF 8
ENDMDL