MODEL 2
REMARK VINA RESULT: -9.281187837      2.385     10.090
REMARK  6 active torsions:
REMARK  status: ('A' for Active; 'I' for Inactive)
REMARK    1  A    between atoms: C7_7  and  N1_8
REMARK       I    between atoms: N1_8  and  C8_10
REMARK       I    between atoms: C8_10  and  N2_12
REMARK    2  A    between atoms: N2_12  and  C9_14
REMARK    3  A    between atoms: C13_22  and  O2_23
REMARK    4  A    between atoms: C13_22  and  N5_25
REMARK    5  A    between atoms: N5_25  and  C14_26
REMARK    6  A    between atoms: N5_25  and  C17_29
ROOT
HETATM    1  C9  UNL     1      16.327   4.266  -5.761  1.00  0.00     0.111 A
HETATM    2  C10 UNL     1      15.400   5.119  -5.155  1.00  0.00     0.080 A
HETATM    3  C11 UNL     1      14.334   5.649  -5.847  1.00  0.00     0.065 A
HETATM    4  N3  UNL     1      13.327   6.464  -5.504  1.00  0.00    -0.299 N
ATOM      5  H3  UNL     1      13.187   6.861  -4.575  1.00  0.00     0.187 HD
HETATM    6  N4  UNL     1      12.562   6.672  -6.521  1.00  0.00    -0.295 N
ATOM      7  H4  UNL     1      11.731   7.263  -6.496  1.00  0.00     0.187 HD
HETATM    8  C12 UNL     1      12.980   6.033  -7.598  1.00  0.00     0.112 A
HETATM    9  C13 UNL     1      12.440   5.986  -8.913  1.00  0.00     0.169 C
HETATM   10  C21 UNL     1      14.141   5.351  -7.188  1.00  0.00     0.040 A
HETATM   11  C22 UNL     1      15.065   4.514  -7.752  1.00  0.00     0.106 A
HETATM   12  N6  UNL     1      16.121   3.994  -7.051  1.00  0.00    -0.351 N
ATOM     13  H6  UNL     1      16.773   3.375  -7.533  1.00  0.00     0.166 HD
ENDROOT
BRANCH   1  14
HETATM   14  N2  UNL     1      17.308   3.830  -5.049  1.00  0.00    -0.294 N
HETATM   15  C8  UNL     1      17.874   2.505  -5.203  1.00  0.00     0.326 C
HETATM   16  N1  UNL     1      17.077   1.391  -4.990  1.00  0.00    -0.309 N
HETATM   17  O1  UNL     1      19.087   2.405  -5.524  1.00  0.00    -0.247 OA
ATOM     18  H1  UNL     1      16.107   1.591  -4.744  1.00  0.00     0.170 HD
ATOM     19  H2  UNL     1      17.706   4.448  -4.342  1.00  0.00     0.172 HD
BRANCH  16  20
HETATM   20  C7  UNL     1      17.407   0.025  -5.063  1.00  0.00     0.037 A
HETATM   21  C6  UNL     1      18.111  -0.461  -6.180  1.00  0.00     0.036 A
HETATM   22  C4  UNL     1      18.452  -1.769  -6.352  1.00  0.00    -0.059 A
HETATM   23  C3  UNL     1      18.088  -2.666  -5.376  1.00  0.00     0.013 A
HETATM   24  C5  UNL     1      19.203  -2.202  -7.582  1.00  0.00     0.048 C
HETATM   25  C2  UNL     1      17.405  -2.250  -4.275  1.00  0.00    -0.059 A
HETATM   26  C1  UNL     1      16.997  -3.189  -3.212  1.00  0.00     0.048 C
HETATM   27  C23 UNL     1      17.071  -0.894  -4.132  1.00  0.00     0.036 A
ENDBRANCH  16  20
ENDBRANCH   1  14
BRANCH   9  28
HETATM   28  O2  UNL     1      13.177   5.238  -9.742  1.00  0.00    -0.344 OA
ATOM     29  H2  UNL     1      13.100   4.310  -9.557  1.00  0.00     0.219 HD
ENDBRANCH   9  28
BRANCH   9  30
HETATM   30  N5  UNL     1      11.322   6.537  -9.549  1.00  0.00    -0.348 N
BRANCH  30  31
HETATM   31  C14 UNL     1      11.334   8.018  -9.660  1.00  0.00     0.079 C
HETATM   32  C15 UNL     1      12.639   8.479 -10.261  1.00  0.00     0.032 C
HETATM   33  C16 UNL     1      10.902   8.728  -8.434  1.00  0.00     0.032 C
ENDBRANCH  30  31
BRANCH  30  34
HETATM   34  C17 UNL     1      10.260   5.780 -10.069  1.00  0.00     0.024 C
HETATM   35  C18 UNL     1      10.480   4.305  -9.887  1.00  0.00     0.037 C
HETATM   36  C19 UNL     1      10.088   6.089 -11.562  1.00  0.00     0.037 C
HETATM   37  C20 UNL     1       8.881   6.069  -9.499  1.00  0.00     0.037 C
ENDBRANCH  30  34
ENDBRANCH   9  30
TORSDOF 6
ENDMDL