MODEL 4
REMARK VINA RESULT: -9.253099680      1.319      6.422
REMARK  7 active torsions:
REMARK  status: ('A' for Active; 'I' for Inactive)
REMARK    1  A    between atoms: C2_2  and  C5_5
REMARK       I    between atoms: C5_5  and  N1_7
REMARK    2  A    between atoms: N1_7  and  C6_9
REMARK    3  A    between atoms: C6_9  and  N2_11
REMARK    4  A    between atoms: N2_11  and  C7_13
REMARK    5  A    between atoms: C7_13  and  C8_14
REMARK       I    between atoms: C8_14  and  N3_16
REMARK    6  A    between atoms: N3_16  and  C9_18
REMARK    7  A    between atoms: C16_25  and  C17_26
ROOT
HETATM    1  C7  UNL     1      11.741   8.048 -10.150  1.00  0.00     0.113 C
HETATM    2  C14 UNL     1      12.656   8.573 -11.203  1.00  0.00     0.041 C
HETATM    3  C15 UNL     1      11.965   9.860 -11.693  1.00  0.00     0.008 C
HETATM    4  C16 UNL     1      11.454  10.391 -10.401  1.00  0.00    -0.008 C
HETATM    5  C22 UNL     1      10.837   9.233  -9.724  1.00  0.00     0.046 C
ENDROOT
BRANCH   1   6
HETATM    6  N2  UNL     1      10.917   7.001 -10.682  1.00  0.00    -0.349 N
ATOM      7  H2  UNL     1      10.856   6.924 -11.697  1.00  0.00     0.163 HD
BRANCH   6   8
HETATM    8  C6  UNL     1      10.182   6.066  -9.915  1.00  0.00     0.175 C
HETATM    9  S1  UNL     1       9.002   6.501  -8.861  1.00  0.00    -0.041 SA
BRANCH   8  10
HETATM   10  N1  UNL     1      10.436   4.666 -10.008  1.00  0.00    -0.303 N
HETATM   11  C5  UNL     1      11.599   4.112 -10.589  1.00  0.00     0.231 C
HETATM   12  O1  UNL     1      12.500   4.844 -11.072  1.00  0.00    -0.272 OA
ATOM     13  H1  UNL     1       9.736   4.026  -9.631  1.00  0.00     0.171 HD
BRANCH  11  14
HETATM   14  C2  UNL     1      11.786   2.632 -10.645  1.00  0.00     0.030 C
HETATM   15  C1  UNL     1      11.440   2.031  -9.312  1.00  0.00     0.025 C
HETATM   16  C3  UNL     1      10.885   2.012 -11.689  1.00  0.00     0.025 C
HETATM   17  C4  UNL     1      13.249   2.375 -10.936  1.00  0.00     0.025 C
ENDBRANCH  11  14
ENDBRANCH   8  10
ENDBRANCH   6   8
ENDBRANCH   1   6
BRANCH   1  18
HETATM   18  C8  UNL     1      12.441   7.529  -8.937  1.00  0.00     0.246 C
HETATM   19  O2  UNL     1      12.128   8.002  -7.817  1.00  0.00    -0.271 OA
HETATM   20  N3  UNL     1      13.446   6.517  -9.029  1.00  0.00    -0.354 N
ATOM     21  H3  UNL     1      13.696   6.135  -9.941  1.00  0.00     0.162 HD
BRANCH  20  22
HETATM   22  C9  UNL     1      14.112   6.028  -7.840  1.00  0.00     0.084 C
HETATM   23  C10 UNL     1      13.294   4.988  -7.110  1.00  0.00     0.025 C
HETATM   24  C11 UNL     1      14.101   3.707  -7.153  1.00  0.00     0.002 C
HETATM   25  C12 UNL     1      15.518   4.245  -7.213  1.00  0.00     0.002 C
HETATM   26  C13 UNL     1      15.393   5.315  -8.275  1.00  0.00     0.025 C
ENDBRANCH  20  22
ENDBRANCH   1  18
BRANCH   4  27
HETATM   27  C17 UNL     1      10.517  11.551 -10.616  1.00  0.00    -0.010 C
HETATM   28  C18 UNL     1       9.992  11.664 -12.008  1.00  0.00     0.005 C
HETATM   29  C19 UNL     1       8.896  12.723 -11.824  1.00  0.00     0.000 C
HETATM   30  C20 UNL     1       8.415  12.558 -10.396  1.00  0.00     0.000 C
HETATM   31  C21 UNL     1       9.266  11.437  -9.795  1.00  0.00     0.005 C
ENDBRANCH   4  27
TORSDOF 7
ENDMDL