MODEL 5
REMARK VINA RESULT: -9.616395771      4.656     10.329
REMARK  2 active torsions:
REMARK  status: ('A' for Active; 'I' for Inactive)
REMARK    1  A    between atoms: C3_3  and  N1_4
REMARK    2  A    between atoms: N1_4  and  C4_6
ROOT
HETATM    1  C1  UNL     1      12.339   8.097  -7.850  1.00  0.00     0.014 C
HETATM    2  C2  UNL     1      11.672   6.819  -8.280  1.00  0.00     0.032 C
HETATM    3  C3  UNL     1      12.393   5.628  -7.722  1.00  0.00     0.083 C
HETATM    4  C14 UNL     1      13.287   5.209  -8.831  1.00  0.00     0.028 C
HETATM    5  C15 UNL     1      12.365   5.383 -10.057  1.00  0.00     0.034 C
HETATM    6  C16 UNL     1      11.635   6.679  -9.762  1.00  0.00     0.046 C
HETATM    7  C17 UNL     1      10.222   6.454 -10.213  1.00  0.00     0.134 C
HETATM    8  C18 UNL     1      10.130   6.507 -11.697  1.00  0.00     0.221 C
HETATM    9  O1  UNL     1       9.976   5.468 -12.346  1.00  0.00    -0.273 OA
HETATM   10  N2  UNL     1      10.217   7.739 -12.460  1.00  0.00    -0.343 N
ATOM     11  H2  UNL     1       9.888   7.707 -13.425  1.00  0.00     0.163 HD
HETATM   12  C19 UNL     1      10.726   9.007 -11.986  1.00  0.00     0.113 C
HETATM   13  C20 UNL     1       9.735   9.730 -11.092  1.00  0.00     0.041 C
HETATM   14  C21 UNL     1       9.973  11.246 -11.075  1.00  0.00     0.003 C
HETATM   15  C22 UNL     1       9.643  11.842 -12.417  1.00  0.00     0.000 C
HETATM   16  C23 UNL     1       9.767  10.765 -13.449  1.00  0.00     0.003 C
HETATM   17  C24 UNL     1      10.955   9.881 -13.201  1.00  0.00     0.041 C
HETATM   18  C25 UNL     1      11.999   8.815 -11.247  1.00  0.00     0.246 C
HETATM   19  O2  UNL     1      12.828   9.716 -11.366  1.00  0.00    -0.271 OA
HETATM   20  N3  UNL     1      12.347   7.729 -10.438  1.00  0.00    -0.349 N
ATOM     21  H3  UNL     1      13.354   7.665 -10.291  1.00  0.00     0.163 HD
ENDROOT
BRANCH   3  22
HETATM   22  N1  UNL     1      12.826   5.808  -6.468  1.00  0.00    -0.408 N
ATOM     23  H1  UNL     1      12.382   6.599  -6.002  1.00  0.00     0.154 HD
BRANCH  22  24
HETATM   24  C4  UNL     1      13.736   5.161  -5.678  1.00  0.00     0.027 C
HETATM   25  C5  UNL     1      13.601   5.316  -4.206  1.00  0.00     0.035 C
HETATM   26  C6  UNL     1      14.610   4.425  -3.455  1.00  0.00    -0.012 C
HETATM   27  C7  UNL     1      14.470   2.979  -3.804  1.00  0.00     0.009 C
HETATM   28  C11 UNL     1      15.989   4.873  -3.825  1.00  0.00     0.009 C
HETATM   29  C8  UNL     1      14.608   2.839  -5.307  1.00  0.00    -0.012 C
HETATM   30  C9  UNL     1      16.007   3.243  -5.732  1.00  0.00     0.009 C
HETATM   31  C13 UNL     1      13.637   3.688  -6.022  1.00  0.00     0.035 C
HETATM   32  C10 UNL     1      16.167   4.672  -5.324  1.00  0.00    -0.012 C
HETATM   33  C12 UNL     1      15.183   5.596  -5.985  1.00  0.00     0.035 C
ENDBRANCH  22  24
ENDBRANCH   3  22
TORSDOF 2
ENDMDL