MODEL 3
REMARK VINA RESULT: -8.024236732      3.218      7.563
REMARK  6 active torsions:
REMARK  status: ('A' for Active; 'I' for Inactive)
REMARK    1  A    between atoms: C2_2  and  N1_4
REMARK       I    between atoms: N1_4  and  C4_6
REMARK       I    between atoms: C4_6  and  N2_8
REMARK    2  A    between atoms: N2_8  and  C6_10
REMARK    3  A    between atoms: C16_21  and  N3_22
REMARK    4  A    between atoms: N3_22  and  C17_24
REMARK    5  A    between atoms: C17_24  and  N4_26
REMARK    6  A    between atoms: N4_26  and  C18_28
ROOT
HETATM    1  C6  UNL     1      11.014   7.940 -10.826  1.00  0.00     0.088 C
HETATM    2  C7  UNL     1      12.341   7.297 -10.551  1.00  0.00     0.028 C
HETATM    3  C8  UNL     1      12.201   5.791 -10.615  1.00  0.00     0.042 C
HETATM    4  C9  UNL     1      11.378   5.183  -9.558  1.00  0.00     0.081 C
HETATM    5  C10 UNL     1      10.334   6.240  -9.148  1.00  0.00     0.042 C
HETATM    6  C11 UNL     1       9.919   6.950 -10.413  1.00  0.00     0.028 C
HETATM    7  O2  UNL     1      10.561   4.135 -10.093  1.00  0.00    -0.378 OA
HETATM    8  C12 UNL     1      11.267   3.281 -10.891  1.00  0.00     0.168 C
HETATM    9  C13 UNL     1      11.516   1.980 -10.201  1.00  0.00     0.026 C
HETATM   10  C14 UNL     1      12.030   2.166  -8.816  1.00  0.00     0.004 C
HETATM   11  C15 UNL     1      12.883   3.412  -8.738  1.00  0.00     0.028 C
HETATM   12  C16 UNL     1      12.004   4.599  -8.350  1.00  0.00     0.118 C
ENDROOT
BRANCH  12  13
HETATM   13  N3  UNL     1      12.636   5.424  -7.411  1.00  0.00    -0.360 N
ATOM     14  H3  UNL     1      12.015   6.023  -6.866  1.00  0.00     0.162 HD
BRANCH  13  15
HETATM   15  C17 UNL     1      14.001   5.544  -7.114  1.00  0.00     0.168 C
HETATM   16  S1  UNL     1      15.203   5.576  -8.248  1.00  0.00    -0.041 SA
BRANCH  15  17
HETATM   17  N4  UNL     1      14.445   5.612  -5.734  1.00  0.00    -0.359 N
ATOM     18  H4  UNL     1      14.406   6.511  -5.255  1.00  0.00     0.162 HD
BRANCH  17  19
HETATM   19  C18 UNL     1      14.932   4.483  -5.019  1.00  0.00     0.021 C
HETATM   20  C19 UNL     1      14.160   3.213  -5.318  1.00  0.00     0.037 C
HETATM   21  C20 UNL     1      16.393   4.191  -5.285  1.00  0.00     0.037 C
HETATM   22  C21 UNL     1      14.793   4.730  -3.531  1.00  0.00     0.037 C
ENDBRANCH  17  19
ENDBRANCH  15  17
ENDBRANCH  13  15
ENDBRANCH  12  13
BRANCH   1  23
HETATM   23  N2  UNL     1      10.839   8.432 -12.153  1.00  0.00    -0.334 N
HETATM   24  C4  UNL     1      10.270   9.705 -12.394  1.00  0.00     0.318 C
HETATM   25  N1  UNL     1       9.818  10.632 -11.447  1.00  0.00    -0.339 N
HETATM   26  O1  UNL     1      10.137  10.092 -13.623  1.00  0.00    -0.247 OA
ATOM     27  H1  UNL     1       9.890  10.401 -10.456  1.00  0.00     0.164 HD
HETATM   28  C5  UNL     1      11.234   7.648 -13.335  1.00  0.00     0.154 C
BRANCH  25  29
HETATM   29  C2  UNL     1       9.253  11.906 -11.832  1.00  0.00     0.078 C
HETATM   30  C1  UNL     1      10.248  12.850 -12.434  1.00  0.00     0.032 C
HETATM   31  C3  UNL     1       8.633  12.613 -10.638  1.00  0.00     0.032 C
ENDBRANCH  25  29
ENDBRANCH   1  23
TORSDOF 6
ENDMDL