MODEL 3
REMARK VINA RESULT: -11.282439680      2.943      3.715
REMARK  3 active torsions:
REMARK  status: ('A' for Active; 'I' for Inactive)
REMARK    1  A    between atoms: C5_7  and  S1_8
REMARK    2  A    between atoms: S1_8  and  N2_11
REMARK    3  A    between atoms: N2_11  and  C6_13
ROOT
HETATM    1  N2  UNL     1      12.805   7.900  -9.406  1.00  0.00    -0.280 N
ATOM      2  H2  UNL     1      13.746   8.205  -9.156  1.00  0.00     0.179 HD
ENDROOT
BRANCH   1   3
HETATM    3  S1  UNL     1      12.339   6.309  -8.946  1.00  0.00     0.263 S
HETATM    4  O1  UNL     1      11.909   5.512 -10.164  1.00  0.00    -0.200 OA
HETATM    5  O2  UNL     1      11.156   6.328  -8.009  1.00  0.00    -0.200 OA
BRANCH   3   6
HETATM    6  C5  UNL     1      13.647   5.488  -8.136  1.00  0.00     0.082 A
HETATM    7  C4  UNL     1      13.324   4.779  -6.980  1.00  0.00     0.055 A
HETATM    8  C3  UNL     1      14.285   4.095  -6.252  1.00  0.00     0.044 A
HETATM    9  N1  UNL     1      14.225   3.353  -5.125  1.00  0.00    -0.359 N
HETATM   10  C20 UNL     1      15.590   4.132  -6.706  1.00  0.00    -0.002 A
HETATM   11  C2  UNL     1      15.454   2.891  -4.811  1.00  0.00     0.012 A
ATOM     12  H1  UNL     1      13.376   3.169  -4.590  1.00  0.00     0.166 HD
HETATM   13  C1  UNL     1      15.776   2.033  -3.628  1.00  0.00     0.068 C
HETATM   14  C21 UNL     1      16.299   3.369  -5.785  1.00  0.00    -0.027 A
HETATM   15  C22 UNL     1      17.749   3.116  -5.849  1.00  0.00     0.051 C
HETATM   16  C19 UNL     1      15.922   4.829  -7.847  1.00  0.00     0.016 A
HETATM   17  C18 UNL     1      14.950   5.509  -8.566  1.00  0.00     0.026 A
ENDBRANCH   3   6
ENDBRANCH   1   3
BRANCH   1  18
HETATM   18  C6  UNL     1      11.987   8.820 -10.103  1.00  0.00     0.050 A
HETATM   19  C7  UNL     1      11.846   8.774 -11.472  1.00  0.00     0.045 A
HETATM   20  C8  UNL     1      11.055   9.679 -12.158  1.00  0.00    -0.001 A
HETATM   21  C9  UNL     1      10.915   9.634 -13.533  1.00  0.00    -0.044 A
HETATM   22  C13 UNL     1      10.389  10.653 -11.455  1.00  0.00     0.052 A
HETATM   23  C10 UNL     1      11.643   8.575 -14.260  1.00  0.00     0.049 C
HETATM   24  C11 UNL     1      10.130  10.532 -14.224  1.00  0.00     0.082 A
HETATM   25  C12 UNL     1       9.484  11.490 -13.471  1.00  0.00     0.246 A
HETATM   26  O3  UNL     1       8.764  12.314 -14.094  1.00  0.00    -0.268 OA
HETATM   27  N3  UNL     1       9.618  11.540 -12.118  1.00  0.00    -0.322 N
ATOM     28  H3  UNL     1       9.125  12.262 -11.593  1.00  0.00     0.169 HD
HETATM   29  C14 UNL     1      10.537  10.695 -10.065  1.00  0.00    -0.026 A
HETATM   30  C15 UNL     1       9.801  11.756  -9.374  1.00  0.00     0.051 C
HETATM   31  C16 UNL     1      11.305   9.817  -9.386  1.00  0.00    -0.026 A
HETATM   32  C17 UNL     1      11.495   9.811  -7.943  1.00  0.00     0.051 C
ENDBRANCH   1  18
TORSDOF 3
ENDMDL