MODEL 2
REMARK VINA RESULT: -11.679084314      1.076      3.456
REMARK  4 active torsions:
REMARK  status: ('A' for Active; 'I' for Inactive)
REMARK    1  A    between atoms: C2_7  and  N3_8
REMARK    2  A    between atoms: N3_8  and  N4_9
REMARK    3  A    between atoms: N4_9  and  C3_11
REMARK    4  A    between atoms: C8_16  and  C9_17
ROOT
HETATM    1  O1  UNL     1      13.999   4.769  -2.835  1.00  0.00    -0.264 OA
HETATM    2  C1  UNL     1      13.879   5.119  -4.031  1.00  0.00     0.287 A
HETATM    3  N1  UNL     1      13.395   6.321  -4.322  1.00  0.00    -0.261 N
ATOM      4  H1  UNL     1      13.127   6.950  -3.565  1.00  0.00     0.190 HD
HETATM    5  N2  UNL     1      13.253   6.717  -5.579  1.00  0.00    -0.255 N
ATOM      6  H2  UNL     1      12.880   7.642  -5.793  1.00  0.00     0.191 HD
HETATM    7  C2  UNL     1      13.617   5.863  -6.583  1.00  0.00     0.296 A
HETATM    8  N5  UNL     1      14.125   4.613  -6.265  1.00  0.00    -0.308 N
ATOM      9  H5  UNL     1      14.400   3.991  -7.026  1.00  0.00     0.170 HD
HETATM   10  C15 UNL     1      14.272   4.191  -5.022  1.00  0.00     0.117 A
HETATM   11  C16 UNL     1      14.781   2.932  -4.522  1.00  0.00     0.007 A
HETATM   12  C17 UNL     1      13.902   2.207  -3.715  1.00  0.00     0.015 A
HETATM   13  C18 UNL     1      14.286   1.009  -3.109  1.00  0.00     0.002 A
HETATM   14  C19 UNL     1      15.571   0.540  -3.325  1.00  0.00     0.012 A
HETATM   15  C20 UNL     1      16.432   1.238  -4.113  1.00  0.00    -0.025 A
HETATM   16  C21 UNL     1      17.712   0.756  -4.324  1.00  0.00     0.012 A
HETATM   17  C22 UNL     1      18.559   1.480  -5.124  1.00  0.00     0.001 A
HETATM   18  C23 UNL     1      18.180   2.669  -5.722  1.00  0.00     0.001 A
HETATM   19  C24 UNL     1      16.902   3.162  -5.517  1.00  0.00     0.013 A
HETATM   20  C25 UNL     1      16.037   2.454  -4.724  1.00  0.00    -0.013 A
ENDROOT
BRANCH   7  21
HETATM   21  N3  UNL     1      13.459   6.221  -7.727  1.00  0.00    -0.286 NA
BRANCH  21  22
HETATM   22  N4  UNL     1      13.261   6.589  -8.963  1.00  0.00    -0.232 N
ATOM     23  H4  UNL     1      13.863   7.348  -9.281  1.00  0.00     0.202 HD
BRANCH  22  24
HETATM   24  C3  UNL     1      12.361   6.114  -9.926  1.00  0.00     0.072 A
HETATM   25  C4  UNL     1      12.301   4.767 -10.361  1.00  0.00     0.033 A
HETATM   26  C5  UNL     1      11.422   4.287 -11.239  1.00  0.00     0.002 A
HETATM   27  C6  UNL     1      10.442   5.130 -11.825  1.00  0.00     0.001 A
HETATM   28  C7  UNL     1      10.518   6.429 -11.395  1.00  0.00     0.014 A
HETATM   29  C8  UNL     1      11.402   6.962 -10.500  1.00  0.00     0.003 A
BRANCH  29  30
HETATM   30  C9  UNL     1      11.368   8.379 -10.234  1.00  0.00    -0.024 A
HETATM   31  C10 UNL     1      10.582   8.889  -9.187  1.00  0.00     0.012 A
HETATM   32  C11 UNL     1      10.392  10.220  -8.966  1.00  0.00     0.001 A
HETATM   33  C12 UNL     1      10.985  11.168  -9.784  1.00  0.00     0.000 A
HETATM   34  C13 UNL     1      11.769  10.674 -10.822  1.00  0.00     0.001 A
HETATM   35  C14 UNL     1      11.955   9.315 -11.038  1.00  0.00     0.012 A
ENDBRANCH  29  30
ENDBRANCH  22  24
ENDBRANCH  21  22
ENDBRANCH   7  21
TORSDOF 4
ENDMDL