MODEL 2
REMARK VINA RESULT: -10.597164910      2.659      3.878
REMARK  6 active torsions:
REMARK  status: ('A' for Active; 'I' for Inactive)
REMARK    1  A    between atoms: C7_7  and  N1_8
REMARK    2  A    between atoms: N1_8  and  C8_10
REMARK    3  A    between atoms: C8_10  and  N2_12
REMARK    4  A    between atoms: N2_12  and  N3_14
REMARK       I    between atoms: N3_14  and  C9_16
REMARK    5  A    between atoms: C9_16  and  C10_18
REMARK    6  A    between atoms: C10_18  and  C11_19
ROOT
HETATM    1  N3  UNL     1      12.531   8.077  -7.267  1.00  0.00    -0.268 N
ATOM      2  H3  UNL     1      13.475   8.466  -7.271  1.00  0.00     0.190 HD
HETATM    3  C9  UNL     1      11.434   8.823  -7.817  1.00  0.00     0.240 C
HETATM    4  O1  UNL     1      10.288   8.252  -7.761  1.00  0.00    -0.272 OA
ENDROOT
BRANCH   1   5
HETATM    5  N2  UNL     1      12.290   6.821  -6.729  1.00  0.00    -0.274 N
ATOM      6  H2  UNL     1      11.318   6.707  -6.443  1.00  0.00     0.189 HD
BRANCH   5   7
HETATM    7  C8  UNL     1      13.035   5.692  -6.485  1.00  0.00     0.191 C
HETATM    8  S1  UNL     1      13.337   4.862  -8.002  1.00  0.00    -0.039 SA
BRANCH   7   9
HETATM    9  N1  UNL     1      13.592   5.049  -5.402  1.00  0.00    -0.332 N
ATOM     10  H1  UNL     1      13.201   5.409  -4.531  1.00  0.00     0.168 HD
BRANCH   9  11
HETATM   11  C7  UNL     1      14.527   4.057  -5.143  1.00  0.00     0.035 A
HETATM   12  C6  UNL     1      14.221   3.037  -4.197  1.00  0.00     0.036 A
HETATM   13  C4  UNL     1      15.076   2.067  -3.836  1.00  0.00    -0.059 A
HETATM   14  C3  UNL     1      16.329   2.019  -4.385  1.00  0.00     0.013 A
HETATM   15  C5  UNL     1      14.684   1.046  -2.844  1.00  0.00     0.048 C
HETATM   16  C2  UNL     1      16.676   2.985  -5.305  1.00  0.00    -0.059 A
HETATM   17  C1  UNL     1      18.037   2.936  -5.899  1.00  0.00     0.048 C
HETATM   18  C23 UNL     1      15.783   3.968  -5.660  1.00  0.00     0.036 A
ENDBRANCH   9  11
ENDBRANCH   7   9
ENDBRANCH   5   7
ENDBRANCH   1   5
BRANCH   3  19
HETATM   19  C10 UNL     1      11.500  10.150  -8.426  1.00  0.00     0.146 C
BRANCH  19  20
HETATM   20  C11 UNL     1      11.240  10.033  -9.908  1.00  0.00    -0.015 A
HETATM   21  C12 UNL     1      11.821   9.147 -10.782  1.00  0.00     0.015 A
HETATM   22  C13 UNL     1      12.767   8.081 -10.425  1.00  0.00     0.069 C
HETATM   23  N4  UNL     1      11.377   9.407 -12.041  1.00  0.00    -0.353 N
HETATM   24  C14 UNL     1      11.760   8.711 -13.237  1.00  0.00     0.156 C
HETATM   25  C15 UNL     1      10.511  10.451 -12.002  1.00  0.00     0.051 A
HETATM   26  C16 UNL     1       9.793  11.103 -12.979  1.00  0.00    -0.034 A
HETATM   27  C22 UNL     1      10.426  10.840 -10.654  1.00  0.00     0.000 A
HETATM   28  C17 UNL     1       9.861  10.750 -14.405  1.00  0.00     0.050 C
HETATM   29  C18 UNL     1       8.988  12.154 -12.577  1.00  0.00     0.015 A
HETATM   30  C19 UNL     1       8.882  12.560 -11.270  1.00  0.00    -0.061 A
HETATM   31  C20 UNL     1       7.984  13.700 -10.959  1.00  0.00     0.048 C
HETATM   32  C21 UNL     1       9.606  11.897 -10.312  1.00  0.00     0.021 A
ENDBRANCH  19  20
ENDBRANCH   3  19
TORSDOF 6
ENDMDL