MODEL 4
REMARK VINA RESULT: -9.208948707      2.234      5.044
REMARK  7 active torsions:
REMARK  status: ('A' for Active; 'I' for Inactive)
REMARK    1  A    between atoms: O1_2  and  C2_3
REMARK    2  A    between atoms: C5_6  and  C6_7
REMARK    3  A    between atoms: C7_8  and  C8_9
REMARK    4  A    between atoms: C18_19  and  N1_20
REMARK    5  A    between atoms: N1_20  and  C19_22
REMARK    6  A    between atoms: C19_22  and  C20_23
REMARK    7  A    between atoms: C20_23  and  N2_24
ROOT
HETATM    1  C2  UNL     1      12.912   6.507  -7.113  1.00  0.00     0.104 A
HETATM    2  C3  UNL     1      12.285   7.375  -7.970  1.00  0.00    -0.007 A
HETATM    3  C4  UNL     1      11.652   8.591  -7.428  1.00  0.00     0.052 C
HETATM    4  C5  UNL     1      12.231   7.135  -9.335  1.00  0.00     0.027 A
HETATM    5  C16 UNL     1      12.824   5.988  -9.863  1.00  0.00     0.039 A
HETATM    6  C17 UNL     1      13.444   5.133  -9.010  1.00  0.00     0.041 A
HETATM    7  C18 UNL     1      14.104   3.935  -9.254  1.00  0.00     0.128 A
HETATM    8  N3  UNL     1      14.524   3.502  -8.057  1.00  0.00    -0.284 N
ATOM      9  H3  UNL     1      15.045   2.638  -7.904  1.00  0.00     0.188 HD
HETATM   10  N4  UNL     1      14.171   4.345  -7.098  1.00  0.00    -0.295 N
ATOM     11  H4  UNL     1      14.375   4.237  -6.105  1.00  0.00     0.187 HD
HETATM   12  C25 UNL     1      13.497   5.370  -7.654  1.00  0.00     0.096 A
ENDROOT
BRANCH   4  13
HETATM   13  C6  UNL     1      11.577   8.025 -10.251  1.00  0.00    -0.066 C
HETATM   14  C7  UNL     1      11.019   8.755 -11.035  1.00  0.00    -0.091 C
BRANCH  14  15
HETATM   15  C8  UNL     1      10.340   9.605 -11.982  1.00  0.00     0.097 C
HETATM   16  C9  UNL     1      10.104  10.988 -11.477  1.00  0.00    -0.071 C
HETATM   17  C10 UNL     1      10.443  11.429 -10.097  1.00  0.00     0.044 C
HETATM   18  C11 UNL     1       9.551  11.825 -12.381  1.00  0.00    -0.023 C
HETATM   19  C12 UNL     1       9.277  11.215 -13.714  1.00  0.00     0.028 C
HETATM   20  C13 UNL     1      10.473  10.497 -14.268  1.00  0.00     0.009 C
HETATM   21  C14 UNL     1      11.164   9.622 -13.252  1.00  0.00     0.001 C
HETATM   22  C15 UNL     1      11.256   8.222 -13.783  1.00  0.00     0.011 C
ENDBRANCH  14  15
ENDBRANCH   4  13
BRANCH   1  23
HETATM   23  O1  UNL     1      12.961   6.753  -5.755  1.00  0.00    -0.353 OA
HETATM   24  C1  UNL     1      13.759   6.059  -4.840  1.00  0.00     0.210 C
ENDBRANCH   1  23
BRANCH   7  25
HETATM   25  N1  UNL     1      14.248   3.403 -10.429  1.00  0.00    -0.373 N
ATOM     26  H1  UNL     1      15.150   3.423 -10.906  1.00  0.00     0.161 HD
BRANCH  25  27
HETATM   27  C19 UNL     1      13.101   2.784 -11.043  1.00  0.00     0.151 C
BRANCH  27  28
HETATM   28  C20 UNL     1      13.271   1.281 -11.169  1.00  0.00     0.292 C
BRANCH  28  29
HETATM   29  N2  UNL     1      11.974   0.628 -11.181  1.00  0.00     0.090 N
HETATM   30  C21 UNL     1      11.106   1.261 -12.186  1.00  0.00     0.272 C
HETATM   31  C22 UNL     1       9.747   0.740 -11.722  1.00  0.00     0.032 C
HETATM   32  C23 UNL     1       9.819   0.895 -10.239  1.00  0.00     0.032 C
HETATM   33  C24 UNL     1      11.298   0.908  -9.928  1.00  0.00     0.272 C
ENDBRANCH  28  29
ENDBRANCH  27  28
ENDBRANCH  25  27
ENDBRANCH   7  25
TORSDOF 7
ENDMDL