MODEL 1
REMARK VINA RESULT: -4.356502763      0.000      0.000
REMARK  3 active torsions:
REMARK  status: ('A' for Active; 'I' for Inactive)
REMARK    1  A    between atoms: C2_2  and  C3_3
REMARK    2  A    between atoms: C3_3  and  C5_5
REMARK       I    between atoms: C5_5  and  N1_7
REMARK    3  A    between atoms: N1_7  and  C6_9
ROOT
HETATM    1  C6  UNL     1      -1.893   7.923  33.326  1.00  0.00     0.168 A
HETATM    2  N2  UNL     1      -1.428   6.999  34.175  1.00  0.00    -0.278 N
ATOM      3  H2  UNL     1      -1.588   6.006  34.007  1.00  0.00     0.189 HD
HETATM    4  N3  UNL     1      -0.783   7.390  35.198  1.00  0.00    -0.286 N
ATOM      5  H3  UNL     1      -0.418   6.705  35.859  1.00  0.00     0.188 HD
HETATM    6  C7  UNL     1      -0.581   8.678  35.409  1.00  0.00     0.139 A
HETATM    7 BR1  UNL     1       0.354   9.518  36.867  1.00  0.00    -0.021 Br
HETATM    8  S1  UNL     1      -1.364   9.372  34.060  1.00  0.00    -0.026 SA
ENDROOT
BRANCH   1   9
HETATM    9  N1  UNL     1      -2.578   7.716  32.222  1.00  0.00    -0.306 N
HETATM   10  C5  UNL     1      -3.933   7.375  32.263  1.00  0.00     0.227 C
HETATM   11  O1  UNL     1      -4.820   8.241  32.433  1.00  0.00    -0.273 OA
ATOM     12  H1  UNL     1      -2.113   7.806  31.319  1.00  0.00     0.171 HD
BRANCH  10  13
HETATM   13  C3  UNL     1      -4.332   5.956  32.101  1.00  0.00     0.074 C
HETATM   14  C4  UNL     1      -4.802   5.358  33.408  1.00  0.00     0.020 C
BRANCH  13  15
HETATM   15  C2  UNL     1      -5.385   5.820  31.023  1.00  0.00     0.009 C
HETATM   16  C1  UNL     1      -4.832   5.122  29.814  1.00  0.00     0.006 C
ENDBRANCH  13  15
ENDBRANCH  10  13
ENDBRANCH   1   9
TORSDOF 3
ENDMDL