MODEL 3
REMARK VINA RESULT: -4.649066421      3.091      4.806
REMARK  5 active torsions:
REMARK  status: ('A' for Active; 'I' for Inactive)
REMARK    1  A    between atoms: C2_2  and  O1_3
REMARK    2  A    between atoms: C2_2  and  C3_5
REMARK    3  A    between atoms: C3_5  and  C5_7
REMARK    4  A    between atoms: N1_11  and  C9_12
REMARK    5  A    between atoms: N3_15  and  C10_16
ROOT
HETATM    1  C5  UNL     1      -2.116   7.537  34.053  1.00  0.00     0.040 C
HETATM    2  C6  UNL     1      -0.953   6.811  34.626  1.00  0.00     0.086 C
HETATM    3  C7  UNL     1      -0.174   7.835  35.460  1.00  0.00     0.112 C
HETATM    4  C8  UNL     1      -0.286   7.591  36.929  1.00  0.00     0.034 C
HETATM    5  N1  UNL     1      -0.853   9.104  35.120  1.00  0.00    -0.262 N
HETATM    6  N3  UNL     1      -2.180   8.762  34.836  1.00  0.00    -0.278 N
ENDROOT
BRANCH   1   7
HETATM    7  C3  UNL     1      -2.889   7.130  33.091  1.00  0.00    -0.009 C
HETATM    8  C4  UNL     1      -4.006   6.132  33.391  1.00  0.00     0.053 C
BRANCH   7   9
HETATM    9  C2  UNL     1      -2.838   7.552  31.709  1.00  0.00     0.047 C
HETATM   10  C1  UNL     1      -1.786   8.313  31.022  1.00  0.00     0.076 C
BRANCH   9  11
HETATM   11  O1  UNL     1      -3.878   7.199  30.995  1.00  0.00    -0.365 OA
ATOM     12  H1  UNL     1      -4.414   6.492  31.336  1.00  0.00     0.217 HD
ENDBRANCH   9  11
ENDBRANCH   7   9
ENDBRANCH   1   7
BRANCH   6  13
HETATM   13  C10 UNL     1      -3.358   9.441  35.220  1.00  0.00     0.263 C
HETATM   14 CL1  UNL     1      -3.518   9.686  36.992  1.00  0.00    -0.107 Cl
ENDBRANCH   6  13
BRANCH   5  15
HETATM   15  C9  UNL     1      -0.214  10.350  35.110  1.00  0.00     0.202 C
HETATM   16  N2  UNL     1       0.697  10.843  36.076  1.00  0.00    -0.068 NA
HETATM   17  S1  UNL     1      -0.542  11.368  33.836  1.00  0.00    -0.043 SA
ENDBRANCH   5  15
TORSDOF 5
ENDMDL