MODEL 4
REMARK VINA RESULT: -4.176212357      2.189      3.999
REMARK  4 active torsions:
REMARK  status: ('A' for Active; 'I' for Inactive)
REMARK    1  A    between atoms: C2_2  and  C3_4
REMARK    2  A    between atoms: C3_4  and  N1_5
REMARK    3  A    between atoms: C3_4  and  C4_9
REMARK    4  A    between atoms: N2_12  and  C6_13
ROOT
HETATM    1  C4  UNL     1      -4.074   7.858  33.504  1.00  0.00     0.170 C
HETATM    2  F1  UNL     1      -3.951   6.460  33.636  1.00  0.00    -0.237 F
HETATM    3  C5  UNL     1      -4.426   8.162  32.063  1.00  0.00     0.174 C
HETATM    4  N2  UNL     1      -3.152   8.635  31.496  1.00  0.00    -0.340 N
HETATM    5  C10 UNL     1      -2.435   9.231  32.563  1.00  0.00     0.232 C
HETATM    6  O2  UNL     1      -1.649  10.245  32.474  1.00  0.00    -0.272 OA
HETATM    7  C11 UNL     1      -2.758   8.470  33.794  1.00  0.00     0.074 C
HETATM    8  C12 UNL     1      -2.682   9.330  35.025  1.00  0.00     0.028 C
HETATM    9  C13 UNL     1      -1.657   7.413  33.900  1.00  0.00     0.028 C
ENDROOT
BRANCH   1  10
HETATM   10  C3  UNL     1      -5.176   8.236  34.466  1.00  0.00     0.294 C
BRANCH  10  11
HETATM   11  C2  UNL     1      -6.068   9.224  33.819  1.00  0.00     0.156 C
HETATM   12  C1  UNL     1      -7.408   8.799  33.353  1.00  0.00     0.093 C
HETATM   13  O1  UNL     1      -5.738  10.375  33.657  1.00  0.00    -0.296 OA
ENDBRANCH  10  11
BRANCH  10  14
HETATM   14  N1  UNL     1      -5.941   7.034  34.730  1.00  0.00    -0.065 N
ATOM     15  H13 UNL     1      -5.540   6.471  35.481  1.00  0.00     0.275 HD
ATOM     16  H12 UNL     1      -6.841   7.231  35.168  1.00  0.00     0.275 HD
ATOM     17  H11 UNL     1      -6.035   6.514  33.858  1.00  0.00     0.275 HD
ENDBRANCH  10  14
ENDBRANCH   1  10
BRANCH   4  18
HETATM   18  C6  UNL     1      -2.741   8.518  30.132  1.00  0.00     0.024 C
HETATM   19  C7  UNL     1      -3.644   9.199  29.135  1.00  0.00     0.037 C
HETATM   20  C8  UNL     1      -2.710   7.035  29.756  1.00  0.00     0.037 C
HETATM   21  C9  UNL     1      -1.344   9.041  29.909  1.00  0.00     0.037 C
ENDBRANCH   4  18
TORSDOF 4
ENDMDL