MODEL 2
REMARK VINA RESULT: -4.663689021      2.063      2.686
REMARK  4 active torsions:
REMARK  status: ('A' for Active; 'I' for Inactive)
REMARK    1  A    between atoms: C3_5  and  N2_6
REMARK       I    between atoms: N2_6  and  C4_8
REMARK    2  A    between atoms: C4_8  and  C5_10
REMARK    3  A    between atoms: C6_13  and  C7_14
REMARK    4  A    between atoms: C7_14  and  C8_16
ROOT
HETATM    1  C1  UNL     1      -5.871   7.895  34.258  1.00  0.00     0.070 C
HETATM    2  C2  UNL     1      -4.356   8.073  34.191  1.00  0.00     0.028 A
HETATM    3  N1  UNL     1      -3.699   8.897  34.959  1.00  0.00    -0.339 N
ATOM      4  H1  UNL     1      -4.190   9.465  35.650  1.00  0.00     0.168 HD
HETATM    5  C3  UNL     1      -2.378   8.985  34.829  1.00  0.00     0.152 A
HETATM    6  S1  UNL     1      -2.036   7.875  33.585  1.00  0.00    -0.048 SA
HETATM    7  C6  UNL     1      -3.634   7.342  33.287  1.00  0.00     0.077 A
ENDROOT
BRANCH   5   8
HETATM    8  N2  UNL     1      -1.549   9.750  35.507  1.00  0.00    -0.306 N
HETATM    9  C4  UNL     1      -1.452   9.689  36.901  1.00  0.00     0.237 C
HETATM   10  O1  UNL     1      -2.480   9.920  37.609  1.00  0.00    -0.272 OA
ATOM     11  H2  UNL     1      -0.959  10.409  35.000  1.00  0.00     0.171 HD
BRANCH   9  12
HETATM   12  C5  UNL     1      -0.202   9.364  37.636  1.00  0.00     0.217 C
HETATM   13 CL1  UNL     1       0.748   8.121  36.804  1.00  0.00    -0.121 Cl
ENDBRANCH   9  12
ENDBRANCH   5   8
BRANCH   7  14
HETATM   14  C7  UNL     1      -4.125   6.350  32.310  1.00  0.00     0.175 C
HETATM   15  O2  UNL     1      -4.399   5.198  32.711  1.00  0.00    -0.291 OA
BRANCH  14  16
HETATM   16  C8  UNL     1      -4.301   6.680  30.890  1.00  0.00     0.015 C
HETATM   17  C9  UNL     1      -4.909   5.489  30.140  1.00  0.00     0.023 C
HETATM   18  C10 UNL     1      -3.008   7.037  30.205  1.00  0.00     0.023 C
HETATM   19  C11 UNL     1      -5.276   7.821  30.712  1.00  0.00     0.023 C
ENDBRANCH  14  16
ENDBRANCH   7  14
TORSDOF 4
ENDMDL