MODEL 2
REMARK VINA RESULT: -4.870225162      2.769      6.032
REMARK  5 active torsions:
REMARK  status: ('A' for Active; 'I' for Inactive)
REMARK    1  A    between atoms: C2_2  and  O1_3
REMARK    2  A    between atoms: O1_3  and  C3_4
REMARK       I    between atoms: C3_4  and  N1_6
REMARK    3  A    between atoms: N2_9  and  C6_10
REMARK    4  A    between atoms: C6_10  and  N3_11
REMARK    5  A    between atoms: C6_10  and  C7_15
ROOT
HETATM    1  C3  UNL     1      -4.045   7.713  31.316  1.00  0.00     0.363 C
HETATM    2  O2  UNL     1      -4.341   6.518  31.055  1.00  0.00    -0.238 OA
HETATM    3  N1  UNL     1      -3.418   8.082  32.529  1.00  0.00    -0.319 N
HETATM    4  C4  UNL     1      -3.086   9.429  32.827  1.00  0.00     0.159 C
HETATM    5  C5  UNL     1      -1.994   9.656  33.826  1.00  0.00     0.303 C
HETATM    6  N2  UNL     1      -1.662   8.552  34.674  1.00  0.00     0.195 N
HETATM    7  C11 UNL     1      -1.632   7.356  33.871  1.00  0.00     0.457 C
HETATM    8  F1  UNL     1      -0.909   7.663  32.731  1.00  0.00    -0.171 F
HETATM    9  F2  UNL     1      -1.167   6.223  34.403  1.00  0.00    -0.171 F
HETATM   10  C12 UNL     1      -3.100   7.070  33.507  1.00  0.00     0.242 C
ENDROOT
BRANCH   6  11
HETATM   11  C6  UNL     1      -0.566   8.661  35.539  1.00  0.00     0.432 C
BRANCH  11  12
HETATM   12  N3  UNL     1      -0.403   7.361  36.241  1.00  0.00    -0.046 N
ATOM     13  H33 UNL     1      -1.254   6.800  36.234  1.00  0.00     0.276 HD
ATOM     14  H32 UNL     1       0.196   6.710  35.733  1.00  0.00     0.276 HD
ATOM     15  H31 UNL     1      -0.065   7.553  37.185  1.00  0.00     0.276 HD
ENDBRANCH  11  12
BRANCH  11  16
HETATM   16  C7  UNL     1      -0.583   9.647  36.653  1.00  0.00     0.006 C
HETATM   17  C8  UNL     1       0.198   9.018  37.854  1.00  0.00     0.018 C
HETATM   18  C9  UNL     1      -1.960   9.923  37.199  1.00  0.00     0.018 C
HETATM   19  C10 UNL     1       0.219  10.912  36.398  1.00  0.00     0.018 C
ENDBRANCH  11  16
ENDBRANCH   6  11
BRANCH   1  20
HETATM   20  O1  UNL     1      -4.371   8.654  30.343  1.00  0.00    -0.304 OA
BRANCH  20  21
HETATM   21  C2  UNL     1      -3.618   8.832  29.157  1.00  0.00     0.176 C
HETATM   22  C1  UNL     1      -2.130   8.826  29.437  1.00  0.00     0.034 C
ENDBRANCH  20  21
ENDBRANCH   1  20
TORSDOF 5
ENDMDL