MODEL 3
REMARK VINA RESULT: -4.216967367      2.929      5.511
REMARK  3 active torsions:
REMARK  status: ('A' for Active; 'I' for Inactive)
REMARK    1  A    between atoms: C2_2  and  N1_5
REMARK       I    between atoms: N1_5  and  C5_7
REMARK    2  A    between atoms: C5_7  and  C6_9
REMARK    3  A    between atoms: C6_9  and  N2_10
ROOT
HETATM    1  N1  UNL     1      -2.116   8.857  35.105  1.00  0.00    -0.352 N
ATOM      2  H1  UNL     1      -2.930   9.206  35.611  1.00  0.00     0.163 HD
HETATM    3  C5  UNL     1      -2.316   8.546  33.759  1.00  0.00     0.236 C
HETATM    4  O1  UNL     1      -1.364   8.114  33.075  1.00  0.00    -0.272 OA
ENDROOT
BRANCH   3   5
HETATM    5  C6  UNL     1      -3.634   8.710  33.119  1.00  0.00     0.233 C
BRANCH   5   6
HETATM    6  N2  UNL     1      -4.756   8.381  33.969  1.00  0.00    -0.327 N
HETATM    7  C7  UNL     1      -5.474   9.206  34.736  1.00  0.00     0.110 A
HETATM    8  C8  UNL     1      -6.456   8.519  35.407  1.00  0.00     0.107 A
HETATM    9  N3  UNL     1      -6.326   7.227  35.028  1.00  0.00    -0.345 N
HETATM   10  C9  UNL     1      -5.305   7.149  34.165  1.00  0.00     0.156 A
ATOM     11  H3  UNL     1      -6.904   6.448  35.345  1.00  0.00     0.167 HD
HETATM   12 BR1  UNL     1      -4.726   5.522  33.346  1.00  0.00    -0.010 Br
ENDBRANCH   5   6
ENDBRANCH   3   5
BRANCH   1  13
HETATM   13  C2  UNL     1      -0.910   8.746  35.856  1.00  0.00     0.022 C
HETATM   14  C1  UNL     1      -1.240   9.043  37.328  1.00  0.00     0.037 C
HETATM   15  C3  UNL     1       0.144   9.768  35.468  1.00  0.00     0.037 C
HETATM   16  C4  UNL     1      -0.327   7.350  35.836  1.00  0.00     0.037 C
ENDBRANCH   1  13
TORSDOF 3
ENDMDL