MODEL 1
REMARK VINA RESULT: -4.444850044      0.000      0.000
REMARK  3 active torsions:
REMARK  status: ('A' for Active; 'I' for Inactive)
REMARK    1  A    between atoms: N1_6  and  C4_7
REMARK    2  A    between atoms: C4_7  and  C5_8
REMARK       I    between atoms: C5_8  and  N2_10
REMARK    3  A    between atoms: N2_10  and  C6_12
ROOT
HETATM    1  C5  UNL     1      -2.790   7.855  33.235  1.00  0.00     0.238 C
HETATM    2  O2  UNL     1      -3.536   8.151  34.203  1.00  0.00    -0.272 OA
HETATM    3  N2  UNL     1      -3.305   7.009  32.219  1.00  0.00    -0.352 N
ATOM      4  H2  UNL     1      -2.702   6.768  31.432  1.00  0.00     0.163 HD
ENDROOT
BRANCH   1   5
HETATM    5  C4  UNL     1      -1.423   8.386  33.178  1.00  0.00     0.259 C
BRANCH   5   6
HETATM    6  N1  UNL     1      -1.049   8.961  34.455  1.00  0.00    -0.244 N
HETATM    7  C2  UNL     1      -0.532   8.461  35.600  1.00  0.00     0.075 A
HETATM    8  C1  UNL     1      -0.118   7.118  36.073  1.00  0.00     0.074 C
HETATM    9  C3  UNL     1      -0.541   9.716  36.172  1.00  0.00     0.169 A
HETATM   10 BR1  UNL     1      -0.035  10.424  37.866  1.00  0.00    -0.019 Br
HETATM   11  O1  UNL     1      -1.040  10.132  35.033  1.00  0.00    -0.225 OA
ENDBRANCH   5   6
ENDBRANCH   1   5
BRANCH   3  12
HETATM   12  C6  UNL     1      -4.647   6.474  32.253  1.00  0.00     0.022 C
HETATM   13  C7  UNL     1      -4.802   5.431  33.348  1.00  0.00     0.037 C
HETATM   14  C8  UNL     1      -4.923   5.773  30.943  1.00  0.00     0.037 C
HETATM   15  C9  UNL     1      -5.692   7.532  32.480  1.00  0.00     0.037 C
ENDBRANCH   3  12
TORSDOF 3
ENDMDL