MODEL 4
REMARK VINA RESULT: -4.129410526      1.669      1.811
REMARK  6 active torsions:
REMARK  status: ('A' for Active; 'I' for Inactive)
REMARK    1  A    between atoms: O1_2  and  C2_3
REMARK    2  A    between atoms: C2_3  and  C3_4
REMARK       I    between atoms: C3_4  and  N1_6
REMARK    3  A    between atoms: N1_6  and  C4_8
REMARK    4  A    between atoms: C6_10  and  C7_11
REMARK    5  A    between atoms: C8_12  and  C9_13
REMARK    6  A    between atoms: C9_13  and  C10_14
ROOT
HETATM    1  C4  UNL     1      -4.534   7.797  31.740  1.00  0.00     0.096 A
HETATM    2  C5  UNL     1      -3.470   8.034  32.567  1.00  0.00     0.078 A
HETATM    3  C6  UNL     1      -3.048   7.023  33.333  1.00  0.00     0.095 A
HETATM    4  N2  UNL     1      -3.694   5.858  33.235  1.00  0.00    -0.318 N
ATOM      5  H2  UNL     1      -3.510   4.991  33.739  1.00  0.00     0.175 HD
HETATM    6  S1  UNL     1      -4.882   6.162  32.087  1.00  0.00     0.004 SA
ENDROOT
BRANCH   1   7
HETATM    7  N1  UNL     1      -5.121   8.604  30.912  1.00  0.00    -0.318 N
HETATM    8  C3  UNL     1      -4.443   9.532  30.118  1.00  0.00     0.246 C
HETATM    9  O2  UNL     1      -4.580  10.754  30.304  1.00  0.00    -0.271 OA
ATOM     10  H1  UNL     1      -6.137   8.559  30.836  1.00  0.00     0.169 HD
BRANCH   8  11
HETATM   11  C2  UNL     1      -3.546   9.080  29.037  1.00  0.00     0.270 C
BRANCH  11  12
HETATM   12  O1  UNL     1      -2.415   9.885  29.052  1.00  0.00    -0.387 OA
HETATM   13  C1  UNL     1      -1.370   9.229  29.680  1.00  0.00     0.202 C
ENDBRANCH  11  12
ENDBRANCH   8  11
ENDBRANCH   1   7
BRANCH   3  14
HETATM   14  C7  UNL     1      -1.920   7.120  34.272  1.00  0.00    -0.048 C
HETATM   15  C8  UNL     1      -1.001   7.199  35.062  1.00  0.00    -0.099 C
BRANCH  15  16
HETATM   16  C9  UNL     1       0.085   7.276  36.021  1.00  0.00     0.109 C
BRANCH  16  17
HETATM   17  C10 UNL     1      -0.256   8.418  36.983  1.00  0.00     0.126 C
HETATM   18 CL1  UNL     1       0.527   9.887  36.367  1.00  0.00    -0.130 Cl
ENDBRANCH  16  17
ENDBRANCH  15  16
ENDBRANCH   3  14
TORSDOF 6
ENDMDL