MODEL 5
REMARK VINA RESULT: -4.425428065      1.586      2.281
REMARK  3 active torsions:
REMARK  status: ('A' for Active; 'I' for Inactive)
REMARK    1  A    between atoms: N2_5  and  C3_6
REMARK    2  A    between atoms: C3_6  and  C4_7
REMARK    3  A    between atoms: C4_7  and  C5_9
ROOT
HETATM    1  C1  UNL     1      -2.157   8.130  29.773  1.00  0.00     0.071 C
HETATM    2  C2  UNL     1      -2.551   7.972  31.192  1.00  0.00     0.045 A
HETATM    3  N1  UNL     1      -2.012   8.565  32.287  1.00  0.00    -0.298 N
ATOM      4  H1  UNL     1      -1.234   9.225  32.266  1.00  0.00     0.187 HD
HETATM    5  N2  UNL     1      -2.634   8.170  33.383  1.00  0.00    -0.249 N
HETATM    6  C8  UNL     1      -3.621   7.289  33.065  1.00  0.00     0.281 A
HETATM    7  O2  UNL     1      -4.421   6.706  33.866  1.00  0.00    -0.265 OA
HETATM    8  C9  UNL     1      -3.564   7.169  31.693  1.00  0.00     0.103 A
HETATM    9 BR1  UNL     1      -4.697   6.067  30.604  1.00  0.00    -0.043 Br
ENDROOT
BRANCH   5  10
HETATM   10  C3  UNL     1      -2.357   8.575  34.760  1.00  0.00     0.231 C
BRANCH  10  11
HETATM   11  C4  UNL     1      -0.966   9.068  34.902  1.00  0.00     0.150 C
HETATM   12  O1  UNL     1      -0.657  10.047  34.241  1.00  0.00    -0.296 OA
BRANCH  11  13
HETATM   13  C5  UNL     1       0.037   8.436  35.788  1.00  0.00     0.049 C
HETATM   14  C6  UNL     1       0.093   9.098  37.148  1.00  0.00     0.017 C
HETATM   15  C7  UNL     1      -0.281   6.965  35.957  1.00  0.00     0.017 C
ENDBRANCH  11  13
ENDBRANCH  10  11
ENDBRANCH   5  10
TORSDOF 3
ENDMDL