MODEL 1
REMARK VINA RESULT: -4.338975152      0.000      0.000
REMARK  2 active torsions:
REMARK  status: ('A' for Active; 'I' for Inactive)
REMARK    1  A    between atoms: O1_2  and  C2_3
REMARK    2  A    between atoms: C2_3  and  C3_5
ROOT
HETATM    1  C3  UNL     1      -1.722   8.658  33.603  1.00  0.00     0.117 A
HETATM    2  N1  UNL     1      -1.716  10.007  33.751  1.00  0.00    -0.317 N
ATOM      3  H1  UNL     1      -2.110  10.594  33.015  1.00  0.00     0.169 HD
HETATM    4  C4  UNL     1      -1.201  10.585  34.848  1.00  0.00     0.264 A
HETATM    5  O3  UNL     1      -1.195  11.834  34.986  1.00  0.00    -0.267 OA
HETATM    6  C5  UNL     1      -0.656   9.822  35.869  1.00  0.00     0.085 A
HETATM    7 BR1  UNL     1       0.085  10.603  37.440  1.00  0.00    -0.045 Br
HETATM    8  C6  UNL     1      -0.641   8.462  35.762  1.00  0.00    -0.031 A
HETATM    9  C7  UNL     1      -0.080   7.563  36.803  1.00  0.00     0.050 C
HETATM   10  C8  UNL     1      -1.185   7.890  34.609  1.00  0.00    -0.022 A
HETATM   11  C9  UNL     1      -1.195   6.421  34.443  1.00  0.00     0.051 C
ENDROOT
BRANCH   1  12
HETATM   12  C2  UNL     1      -2.286   8.060  32.407  1.00  0.00     0.310 C
HETATM   13  O2  UNL     1      -3.453   7.625  32.297  1.00  0.00    -0.258 OA
BRANCH  12  14
HETATM   14  O1  UNL     1      -1.501   7.934  31.246  1.00  0.00    -0.321 OA
HETATM   15  C1  UNL     1      -1.638   8.824  30.151  1.00  0.00     0.213 C
ENDBRANCH  12  14
ENDBRANCH   1  12
TORSDOF 2
ENDMDL