MODEL 4
REMARK VINA RESULT: -6.684790059      2.859      3.651
REMARK  4 active torsions:
REMARK  status: ('A' for Active; 'I' for Inactive)
REMARK    1  A    between atoms: C2_2  and  C7_13
REMARK    2  A    between atoms: N1_3  and  N2_5
REMARK       I    between atoms: N2_5  and  C3_7
REMARK    3  A    between atoms: C3_7  and  C4_9
REMARK    4  A    between atoms: C10_16  and  N3_17
ROOT
HETATM    1  C7  UNL     1      14.727  -0.888  54.530  1.00  0.00    -0.011 A
HETATM    2  C8  UNL     1      16.070  -1.085  54.281  1.00  0.00     0.016 A
HETATM    3  C9  UNL     1      16.564  -1.397  53.036  1.00  0.00     0.032 A
HETATM    4  C10 UNL     1      15.715  -1.537  51.924  1.00  0.00     0.051 A
HETATM    5  C12 UNL     1      14.386  -1.344  52.154  1.00  0.00     0.038 A
HETATM    6 BR2  UNL     1      13.118  -1.422  50.736  1.00  0.00    -0.049 Br
HETATM    7  C13 UNL     1      13.910  -1.033  53.406  1.00  0.00     0.034 A
ENDROOT
BRANCH   1   8
HETATM    8  C2  UNL     1      14.182  -0.560  55.829  1.00  0.00     0.032 C
HETATM    9  C1  UNL     1      15.191  -0.018  56.837  1.00  0.00     0.070 C
HETATM   10  N1  UNL     1      13.023  -0.655  56.234  1.00  0.00    -0.302 N
ATOM     11  H1  UNL     1      12.951  -0.342  57.203  1.00  0.00     0.186 HD
BRANCH  10  12
HETATM   12  N2  UNL     1      11.817  -1.055  55.769  1.00  0.00    -0.269 N
HETATM   13  C3  UNL     1      10.906  -0.158  55.152  1.00  0.00     0.254 C
HETATM   14  O1  UNL     1      11.200   1.051  55.025  1.00  0.00    -0.270 OA
ATOM     15  H2  UNL     1      11.554  -2.036  55.865  1.00  0.00     0.190 HD
BRANCH  13  16
HETATM   16  C4  UNL     1       9.607  -0.636  54.651  1.00  0.00     0.093 C
HETATM   17  C5  UNL     1       9.849  -1.211  53.264  1.00  0.00     0.037 C
HETATM   18  C6  UNL     1       8.587   0.482  54.586  1.00  0.00     0.037 C
HETATM   19 BR1  UNL     1       8.948  -2.077  55.749  1.00  0.00    -0.076 Br
ENDBRANCH  13  16
ENDBRANCH  10  12
ENDBRANCH   1   8
BRANCH   4  20
HETATM   20  N3  UNL     1      16.275  -1.910  50.690  1.00  0.00    -0.332 N
HETATM   21  C11 UNL     1      16.501  -3.089  50.290  1.00  0.00     0.201 C
HETATM   22  N4  UNL     1      17.083  -3.329  48.985  1.00  0.00    -0.066 NA
HETATM   23  N5  UNL     1      16.238  -4.205  51.122  1.00  0.00    -0.066 NA
ATOM     24  H3  UNL     1      16.525  -1.154  50.052  1.00  0.00     0.168 HD
ENDBRANCH   4  20
TORSDOF 4
ENDMDL