MODEL 5
REMARK VINA RESULT: -6.642681824      1.150      1.199
REMARK  5 active torsions:
REMARK  status: ('A' for Active; 'I' for Inactive)
REMARK    1  A    between atoms: N1_1  and  C1_4
REMARK    2  A    between atoms: C2_7  and  C3_8
REMARK    3  A    between atoms: C4_10  and  C5_11
REMARK    4  A    between atoms: N3_14  and  C7_16
REMARK    5  A    between atoms: C7_16  and  C8_17
ROOT
HETATM    1  C1  UNL     1      16.316  -0.099  49.579  1.00  0.00     0.677 A
HETATM    2  N2  UNL     1      15.000  -0.082  49.354  1.00  0.00    -0.194 N
ATOM      3  H2  UNL     1      14.600   0.470  48.595  1.00  0.00     0.184 HD
HETATM    4  C2  UNL     1      14.227  -0.815  50.158  1.00  0.00     0.057 A
HETATM    5  C4  UNL     1      14.796  -1.564  51.188  1.00  0.00     0.070 A
HETATM    6  C6  UNL     1      16.161  -1.569  51.407  1.00  0.00     0.136 A
HETATM    7  N3  UNL     1      16.738  -2.206  52.322  1.00  0.00    -0.350 N
ATOM      8  H3  UNL     1      17.749  -2.068  52.302  1.00  0.00     0.166 HD
HETATM    9  N4  UNL     1      16.906  -0.790  50.542  1.00  0.00    -0.176 N
ATOM     10  H4  UNL     1      17.920  -0.748  50.647  1.00  0.00     0.186 HD
ENDROOT
BRANCH   5  11
HETATM   11  C5  UNL     1      13.866  -2.320  52.001  1.00  0.00     0.275 C
HETATM   12  O1  UNL     1      13.644  -3.534  51.881  1.00  0.00    -0.301 OA
ENDBRANCH   5  11
BRANCH   7  13
HETATM   13  C7  UNL     1      16.350  -3.053  53.358  1.00  0.00     0.102 C
BRANCH  13  14
HETATM   14  C8  UNL     1      16.778  -4.474  53.146  1.00  0.00    -0.003 A
HETATM   15  C9  UNL     1      17.201  -4.851  51.897  1.00  0.00     0.015 A
HETATM   16  C10 UNL     1      17.614  -6.165  51.640  1.00  0.00     0.020 A
HETATM   17  C11 UNL     1      17.585  -7.075  52.675  1.00  0.00     0.012 A
HETATM   18 BR1  UNL     1      18.149  -8.894  52.356  1.00  0.00    -0.051 Br
HETATM   19  C12 UNL     1      17.163  -6.706  53.929  1.00  0.00     0.039 A
HETATM   20  C13 UNL     1      16.757  -5.391  54.159  1.00  0.00     0.023 A
HETATM   21 BR2  UNL     1      16.161  -4.832  55.891  1.00  0.00    -0.050 Br
ENDBRANCH  13  14
ENDBRANCH   7  13
BRANCH   4  22
HETATM   22  C3  UNL     1      12.743  -0.860  49.979  1.00  0.00     0.173 C
HETATM   23 CL1  UNL     1      12.237  -0.364  48.361  1.00  0.00    -0.124 Cl
ENDBRANCH   4  22
BRANCH   1  24
HETATM   24  N1  UNL     1      17.047   0.625  48.781  1.00  0.00    -0.234 N
ATOM     25  H12 UNL     1      16.842   0.620  47.781  1.00  0.00     0.174 HD
ATOM     26  H11 UNL     1      17.794   1.163  49.217  1.00  0.00     0.174 HD
ENDBRANCH   1  24
TORSDOF 5
ENDMDL