MODEL 2
REMARK VINA RESULT: -6.878838816      1.735      2.009
REMARK  5 active torsions:
REMARK  status: ('A' for Active; 'I' for Inactive)
REMARK    1  A    between atoms: C2_2  and  N1_4
REMARK    2  A    between atoms: C2_2  and  C5_10
REMARK    3  A    between atoms: N1_4  and  S1_6
REMARK    4  A    between atoms: C5_10  and  N2_13
REMARK       I    between atoms: N2_13  and  C7_15
REMARK       I    between atoms: C7_15  and  N3_17
REMARK    5  A    between atoms: N3_17  and  C8_19
ROOT
HETATM    1  N2  UNL     1      13.960  -1.517  50.422  1.00  0.00    -0.309 N
ATOM      2  H2  UNL     1      13.486  -2.098  49.730  1.00  0.00     0.170 HD
HETATM    3  C7  UNL     1      13.384  -1.509  51.728  1.00  0.00     0.325 C
HETATM    4  O2  UNL     1      13.958  -0.809  52.577  1.00  0.00    -0.247 OA
HETATM    5  N3  UNL     1      12.239  -2.243  52.046  1.00  0.00    -0.306 N
ATOM      6  H3  UNL     1      11.845  -2.786  51.277  1.00  0.00     0.171 HD
ENDROOT
BRANCH   1   7
HETATM    7  C5  UNL     1      15.086  -0.834  49.972  1.00  0.00     0.052 C
HETATM    8  C6  UNL     1      14.869   0.390  49.464  1.00  0.00     0.112 C
HETATM    9 CL1  UNL     1      13.226   1.029  49.388  1.00  0.00    -0.095 Cl
BRANCH   7  10
HETATM   10  C2  UNL     1      16.495  -1.320  50.011  1.00  0.00     0.074 C
HETATM   11  C1  UNL     1      16.525  -2.663  49.308  1.00  0.00     0.045 C
HETATM   12  C3  UNL     1      17.334  -0.305  49.298  1.00  0.00     0.045 C
BRANCH  10  13
HETATM   13  N1  UNL     1      16.904  -1.425  51.376  1.00  0.00    -0.328 N
ATOM     14  H1  UNL     1      17.095  -0.590  51.929  1.00  0.00     0.171 HD
BRANCH  13  15
HETATM   15  S1  UNL     1      17.064  -2.952  52.046  1.00  0.00     0.084 S
HETATM   16  C4  UNL     1      18.091  -4.100  51.234  1.00  0.00     0.149 C
HETATM   17  O1  UNL     1      15.701  -3.609  52.222  1.00  0.00    -0.238 OA
HETATM   18  S2  UNL     1      17.672  -2.766  53.656  1.00  0.00     0.029 SA
ENDBRANCH  13  15
ENDBRANCH  10  13
ENDBRANCH   7  10
ENDBRANCH   1   7
BRANCH   5  19
HETATM   19  C8  UNL     1      11.546  -2.348  53.266  1.00  0.00     0.076 A
HETATM   20  C9  UNL     1      10.447  -1.601  53.598  1.00  0.00     0.052 A
HETATM   21  C10 UNL     1       9.827  -1.771  54.825  1.00  0.00     0.013 A
HETATM   22 BR1  UNL     1       8.291  -0.711  55.260  1.00  0.00    -0.051 Br
HETATM   23  C11 UNL     1      10.284  -2.684  55.746  1.00  0.00     0.022 A
HETATM   24  C12 UNL     1      11.385  -3.449  55.443  1.00  0.00     0.046 A
HETATM   25  C13 UNL     1      11.989  -3.273  54.229  1.00  0.00     0.143 A
HETATM   26  F1  UNL     1      13.085  -4.056  53.966  1.00  0.00    -0.204 F
ENDBRANCH   5  19
TORSDOF 5
ENDMDL