MODEL 3
REMARK VINA RESULT: -8.066337479      0.221      1.266
REMARK  6 active torsions:
REMARK  status: ('A' for Active; 'I' for Inactive)
REMARK    1  A    between atoms: N1_1  and  C1_5
REMARK    2  A    between atoms: C1_5  and  C2_6
REMARK    3  A    between atoms: C2_6  and  C3_7
REMARK    4  A    between atoms: C6_10  and  N2_11
REMARK       I    between atoms: N2_11  and  C7_13
REMARK    5  A    between atoms: C7_13  and  C8_15
REMARK    6  A    between atoms: C18_25  and  C19_26
ROOT
HETATM    1  C3  UNL     1      12.576  -1.028  52.903  1.00  0.00    -0.002 C
HETATM    2  C4  UNL     1      13.804  -1.038  53.726  1.00  0.00     0.007 C
HETATM    3  C5  UNL     1      15.027  -1.647  53.195  1.00  0.00     0.026 C
HETATM    4  C6  UNL     1      15.050  -2.350  51.907  1.00  0.00     0.097 C
HETATM    5  C18 UNL     1      13.812  -2.150  51.084  1.00  0.00     0.116 C
HETATM    6  C20 UNL     1      12.566  -2.098  51.899  1.00  0.00     0.021 C
ENDROOT
BRANCH   4   7
HETATM    7  N2  UNL     1      15.307  -3.774  52.129  1.00  0.00    -0.355 N
HETATM    8  C7  UNL     1      16.579  -4.348  52.165  1.00  0.00     0.226 C
HETATM    9  O1  UNL     1      17.588  -3.627  51.996  1.00  0.00    -0.273 OA
ATOM     10  H2  UNL     1      14.504  -4.388  52.265  1.00  0.00     0.162 HD
BRANCH   8  11
HETATM   11  C8  UNL     1      16.765  -5.797  52.406  1.00  0.00     0.042 C
HETATM   12  C9  UNL     1      18.229  -6.141  52.639  1.00  0.00     0.024 C
HETATM   13  C10 UNL     1      18.336  -7.566  53.072  1.00  0.00    -0.013 C
HETATM   14  C11 UNL     1      17.580  -7.833  54.360  1.00  0.00     0.009 C
HETATM   15  C15 UNL     1      17.815  -8.488  52.020  1.00  0.00     0.009 C
HETATM   16  C12 UNL     1      16.123  -7.558  54.069  1.00  0.00    -0.013 C
HETATM   17  C13 UNL     1      15.572  -8.433  52.962  1.00  0.00     0.009 C
HETATM   18  C17 UNL     1      15.975  -6.131  53.664  1.00  0.00     0.024 C
HETATM   19  C14 UNL     1      16.382  -8.123  51.710  1.00  0.00    -0.013 C
HETATM   20  C16 UNL     1      16.243  -6.670  51.308  1.00  0.00     0.024 C
ENDBRANCH   8  11
ENDBRANCH   4   7
BRANCH   5  21
HETATM   21  C19 UNL     1      13.904  -1.029  50.082  1.00  0.00     0.393 C
HETATM   22  F1  UNL     1      12.653  -0.764  49.559  1.00  0.00    -0.171 F
HETATM   23  F2  UNL     1      14.421   0.142  50.571  1.00  0.00    -0.171 F
HETATM   24  F3  UNL     1      14.781  -1.401  49.046  1.00  0.00    -0.171 F
ENDBRANCH   5  21
BRANCH   1  25
HETATM   25  C2  UNL     1      11.297  -0.960  53.710  1.00  0.00     0.011 C
HETATM   26  C21 UNL     1      10.067  -0.994  52.834  1.00  0.00     0.015 C
HETATM   27  C22 UNL     1       8.797  -0.828  53.665  1.00  0.00     0.028 C
HETATM   28  C23 UNL     1       8.860   0.293  54.636  1.00  0.00     0.232 C
HETATM   29  N3  UNL     1      10.080   0.386  55.357  1.00  0.00    -0.074 N
HETATM   30  C24 UNL     1      11.260   0.349  54.524  1.00  0.00     0.243 C
ATOM     31  H32 UNL     1      10.085   1.218  55.948  1.00  0.00     0.277 HD
ATOM     32  H31 UNL     1      10.127  -0.336  56.077  1.00  0.00     0.277 HD
BRANCH  25  33
HETATM   33  C1  UNL     1      11.178  -2.043  54.742  1.00  0.00     0.241 C
BRANCH  33  34
HETATM   34  N1  UNL     1      10.555  -3.247  54.349  1.00  0.00    -0.079 N
ATOM     35  H13 UNL     1      11.130  -3.713  53.647  1.00  0.00     0.274 HD
ATOM     36  H12 UNL     1      10.606  -3.919  55.114  1.00  0.00     0.274 HD
ATOM     37  H11 UNL     1       9.593  -3.189  54.014  1.00  0.00     0.274 HD
ENDBRANCH  33  34
ENDBRANCH  25  33
ENDBRANCH   1  25
TORSDOF 6
ENDMDL