MODEL 1
REMARK VINA RESULT: -7.195978226      0.000      0.000
REMARK  6 active torsions:
REMARK  status: ('A' for Active; 'I' for Inactive)
REMARK    1  A    between atoms: N1_2  and  C2_4
REMARK    2  A    between atoms: C5_9  and  C6_10
REMARK    3  A    between atoms: C6_10  and  C7_12
REMARK    4  A    between atoms: C8_17  and  N5_18
REMARK    5  A    between atoms: N5_18  and  C9_20
REMARK    6  A    between atoms: C9_20  and  C10_21
ROOT
HETATM    1  C2  UNL     1      16.890  -1.720  52.538  1.00  0.00     0.146 A
HETATM    2  N2  UNL     1      17.227  -1.422  51.283  1.00  0.00    -0.341 N
ATOM      3  H2  UNL     1      18.181  -1.634  50.990  1.00  0.00     0.167 HD
HETATM    4  C3  UNL     1      16.407  -0.862  50.370  1.00  0.00     0.035 A
HETATM    5  C4  UNL     1      16.944  -0.530  49.040  1.00  0.00     0.070 C
HETATM    6  C5  UNL     1      15.087  -0.564  50.757  1.00  0.00     0.079 A
HETATM    7  N4  UNL     1      14.778  -0.875  52.035  1.00  0.00    -0.336 N
ATOM      8  H4  UNL     1      13.830  -0.669  52.351  1.00  0.00     0.168 HD
HETATM    9  C8  UNL     1      15.619  -1.435  52.926  1.00  0.00     0.150 A
ENDROOT
BRANCH   9  10
HETATM   10  N5  UNL     1      15.195  -1.660  54.092  1.00  0.00    -0.348 N
ATOM     11  H5  UNL     1      15.934  -1.818  54.778  1.00  0.00     0.167 HD
BRANCH  10  12
HETATM   12  C9  UNL     1      13.894  -1.735  54.624  1.00  0.00     0.101 C
BRANCH  12  13
HETATM   13  C10 UNL     1      13.636  -0.561  55.536  1.00  0.00    -0.013 A
HETATM   14  C11 UNL     1      14.489  -0.289  56.563  1.00  0.00     0.032 A
HETATM   15  C12 UNL     1      14.258   0.800  57.380  1.00  0.00     0.011 A
HETATM   16 BR1  UNL     1      15.437   1.208  58.820  1.00  0.00    -0.051 Br
HETATM   17  C13 UNL     1      13.171   1.599  57.156  1.00  0.00     0.019 A
HETATM   18  C14 UNL     1      12.324   1.302  56.113  1.00  0.00     0.009 A
HETATM   19  C15 UNL     1      12.545   0.224  55.292  1.00  0.00    -0.050 A
HETATM   20  C16 UNL     1      11.596  -0.065  54.178  1.00  0.00     0.049 C
ENDBRANCH  12  13
ENDBRANCH  10  12
ENDBRANCH   9  10
BRANCH   1  21
HETATM   21  N1  UNL     1      17.721  -2.289  53.358  1.00  0.00    -0.378 N
HETATM   22  C1  UNL     1      18.202  -3.621  53.047  1.00  0.00     0.148 C
ATOM     23  H1  UNL     1      18.029  -1.809  54.203  1.00  0.00     0.160 HD
ENDBRANCH   1  21
BRANCH   6  24
HETATM   24  C6  UNL     1      14.079  -0.081  49.822  1.00  0.00     0.085 C
HETATM   25  N3  UNL     1      13.979   1.328  49.687  1.00  0.00    -0.102 NA
BRANCH  24  26
HETATM   26  C7  UNL     1      12.881  -0.895  49.510  1.00  0.00     0.227 C
HETATM   27 CL1  UNL     1      11.605  -0.456  50.743  1.00  0.00    -0.102 Cl
HETATM   28 CL2  UNL     1      12.054  -0.399  47.968  1.00  0.00    -0.102 Cl
ENDBRANCH  24  26
ENDBRANCH   6  24
TORSDOF 6
ENDMDL