MODEL 1
REMARK VINA RESULT: -6.617020825      0.000      0.000
REMARK  6 active torsions:
REMARK  status: ('A' for Active; 'I' for Inactive)
REMARK    1  A    between atoms: O1_1  and  C1_3
REMARK    2  A    between atoms: C2_5  and  C3_6
REMARK    3  A    between atoms: C9_16  and  N2_17
REMARK    4  A    between atoms: N2_17  and  C10_19
REMARK    5  A    between atoms: C10_19  and  C11_21
REMARK    6  A    between atoms: C11_21  and  C12_22
ROOT
HETATM    1  C1  UNL     1      11.680  -0.415  55.074  1.00  0.00     0.280 C
HETATM    2  O2  UNL     1      12.420  -0.204  53.941  1.00  0.00    -0.348 OA
HETATM    3  C2  UNL     1      13.221  -1.218  53.530  1.00  0.00     0.174 C
HETATM    4  C7  UNL     1      12.586  -2.584  53.513  1.00  0.00     0.040 C
HETATM    5  C8  UNL     1      11.992  -2.809  54.898  1.00  0.00     0.033 C
HETATM    6  C9  UNL     1      10.909  -1.728  55.020  1.00  0.00     0.137 C
ENDROOT
BRANCH   3   7
HETATM    7  C3  UNL     1      13.614  -0.920  52.113  1.00  0.00     0.040 A
HETATM    8  C4  UNL     1      12.703  -0.698  51.103  1.00  0.00     0.049 A
HETATM    9  C5  UNL     1      13.407  -0.458  49.947  1.00  0.00     0.047 A
HETATM   10 BR1  UNL     1      12.725  -0.081  48.199  1.00  0.00    -0.048 Br
HETATM   11  C6  UNL     1      14.751  -0.540  50.287  1.00  0.00     0.097 A
HETATM   12 BR2  UNL     1      16.183  -0.289  49.055  1.00  0.00    -0.030 Br
HETATM   13  N1  UNL     1      14.849  -0.818  51.589  1.00  0.00    -0.350 N
ATOM     14  H1  UNL     1      15.721  -0.934  52.104  1.00  0.00     0.166 HD
ENDBRANCH   3   7
BRANCH   1  15
HETATM   15  O1  UNL     1      12.408  -0.315  56.255  1.00  0.00    -0.369 OA
ATOM     16  H1  UNL     1      12.076   0.336  56.862  1.00  0.00     0.212 HD
ENDBRANCH   1  15
BRANCH   6  17
HETATM   17  N2  UNL     1      10.218  -1.934  56.243  1.00  0.00    -0.375 N
ATOM     18  H2  UNL     1      10.677  -1.693  57.122  1.00  0.00     0.160 HD
BRANCH  17  19
HETATM   19  C10 UNL     1       8.907  -2.464  56.271  1.00  0.00     0.074 C
HETATM   20  S1  UNL     1       8.658  -4.094  56.428  1.00  0.00    -0.066 SA
BRANCH  19  21
HETATM   21  C11 UNL     1       7.676  -1.642  56.151  1.00  0.00     0.084 C
BRANCH  21  22
HETATM   22  C12 UNL     1       6.490  -2.419  55.672  1.00  0.00     0.121 C
HETATM   23 CL1  UNL     1       5.321  -2.836  56.899  1.00  0.00    -0.130 Cl
ENDBRANCH  21  22
ENDBRANCH  19  21
ENDBRANCH  17  19
ENDBRANCH   6  17
TORSDOF 6
ENDMDL