MODEL 2
REMARK VINA RESULT: -7.056770301      1.308      1.432
REMARK  5 active torsions:
REMARK  status: ('A' for Active; 'I' for Inactive)
REMARK    1  A    between atoms: O1_2  and  C2_3
REMARK    2  A    between atoms: C2_3  and  N2_7
REMARK    3  A    between atoms: N2_7  and  C3_9
REMARK    4  A    between atoms: C3_9  and  C4_10
REMARK    5  A    between atoms: C4_10  and  C5_11
ROOT
HETATM    1  C4  UNL     1      16.387  -4.058  53.452  1.00  0.00     0.079 A
HETATM    2  C8  UNL     1      15.096  -3.392  53.181  1.00  0.00     0.010 A
HETATM    3  C9  UNL     1      14.937  -2.484  52.227  1.00  0.00     0.012 A
HETATM    4  C10 UNL     1      13.700  -1.905  52.033  1.00  0.00     0.053 A
HETATM    5 CL1  UNL     1      12.346  -2.361  53.040  1.00  0.00    -0.083 Cl
HETATM    6  C11 UNL     1      13.502  -0.963  51.053  1.00  0.00    -0.020 A
HETATM    7  C12 UNL     1      12.158  -0.350  50.860  1.00  0.00     0.051 C
HETATM    8  C13 UNL     1      14.526  -0.556  50.222  1.00  0.00     0.042 A
HETATM    9 BR1  UNL     1      14.283   0.748  48.853  1.00  0.00    -0.049 Br
HETATM   10  C14 UNL     1      15.764  -1.146  50.427  1.00  0.00     0.079 A
HETATM   11 CL2  UNL     1      17.073  -0.623  49.362  1.00  0.00    -0.080 Cl
HETATM   12  C15 UNL     1      15.968  -2.084  51.401  1.00  0.00     0.070 A
HETATM   13  N3  UNL     1      17.154  -2.585  51.522  1.00  0.00    -0.324 N
ATOM     14  H3  UNL     1      17.899  -2.273  50.899  1.00  0.00     0.169 HD
HETATM   15  C16 UNL     1      17.427  -3.562  52.508  1.00  0.00     0.236 A
HETATM   16  O2  UNL     1      18.591  -4.033  52.596  1.00  0.00    -0.272 OA
ENDROOT
BRANCH   1  17
HETATM   17  C3  UNL     1      16.233  -5.530  53.279  1.00  0.00     0.147 C
BRANCH  17  18
HETATM   18  N2  UNL     1      16.328  -5.986  51.917  1.00  0.00    -0.355 N
ATOM     19  H2  UNL     1      16.524  -5.343  51.150  1.00  0.00     0.163 HD
BRANCH  18  20
HETATM   20  C2  UNL     1      16.138  -7.379  51.692  1.00  0.00     0.212 C
HETATM   21  N1  UNL     1      16.864  -7.935  50.782  1.00  0.00    -0.366 N
ATOM     22  H12 UNL     1      16.728  -8.933  50.621  1.00  0.00     0.159 HD
ATOM     23  H11 UNL     1      17.530  -7.350  50.277  1.00  0.00     0.159 HD
BRANCH  20  24
HETATM   24  O1  UNL     1      15.244  -8.165  52.370  1.00  0.00    -0.328 OA
HETATM   25  C1  UNL     1      15.609  -9.236  53.218  1.00  0.00     0.213 C
ENDBRANCH  20  24
ENDBRANCH  18  20
ENDBRANCH  17  18
ENDBRANCH   1  17
BRANCH   1  26
HETATM   26  C5  UNL     1      16.840  -3.827  54.900  1.00  0.00     0.001 C
HETATM   27  C6  UNL     1      15.993  -4.619  55.840  1.00  0.00     0.011 C
HETATM   28  C7  UNL     1      16.860  -2.354  55.223  1.00  0.00     0.011 C
ENDBRANCH   1  26
TORSDOF 5
ENDMDL