MODEL 1
REMARK VINA RESULT: -8.607013459      0.000      0.000
REMARK  5 active torsions:
REMARK  status: ('A' for Active; 'I' for Inactive)
REMARK    1  A    between atoms: C3_4  and  N2_5
REMARK       I    between atoms: N2_5  and  C4_7
REMARK       I    between atoms: C4_7  and  N4_14
REMARK    2  A    between atoms: N3_8  and  C5_10
REMARK       I    between atoms: C9_16  and  N5_17
REMARK       I    between atoms: C9_16  and  N6_25
REMARK    3  A    between atoms: N5_17  and  C10_19
REMARK    4  A    between atoms: N6_25  and  N7_27
REMARK    5  A    between atoms: C18_32  and  C19_33
ROOT
HETATM    1  N2  UNL     1      11.722   0.109  54.549  1.00  0.00    -0.190 N
ATOM      2  H2  UNL     1      11.764   0.750  53.756  1.00  0.00     0.184 HD
HETATM    3  C4  UNL     1      12.945  -0.151  55.244  1.00  0.00     0.693 C
HETATM    4  N3  UNL     1      13.112   0.490  56.291  1.00  0.00    -0.217 N
ATOM      5  H3  UNL     1      12.295   1.085  56.425  1.00  0.00     0.178 HD
HETATM    6  N4  UNL     1      13.860  -1.082  54.738  1.00  0.00    -0.021 N
ATOM      7  H4  UNL     1      14.410  -1.581  55.437  1.00  0.00     0.203 HD
HETATM    8  C9  UNL     1      14.097  -1.389  53.549  1.00  0.00     0.716 C
HETATM    9  N5  UNL     1      15.059  -2.363  53.184  1.00  0.00    -0.190 N
ATOM     10  H5  UNL     1      15.263  -3.129  53.825  1.00  0.00     0.184 HD
HETATM   11  N6  UNL     1      13.386  -0.762  52.484  1.00  0.00    -0.071 N
ATOM     12  H6  UNL     1      13.486   0.241  52.327  1.00  0.00     0.212 HD
ENDROOT
BRANCH   1  13
HETATM   13  C3  UNL     1      10.457  -0.444  54.865  1.00  0.00     0.064 A
HETATM   14  C2  UNL     1      10.344  -1.761  55.301  1.00  0.00     0.120 A
HETATM   15  N1  UNL     1       9.170  -2.332  55.639  1.00  0.00    -0.355 N
HETATM   16  C1  UNL     1       9.243  -3.722  56.049  1.00  0.00     0.156 C
HETATM   17  C18 UNL     1       8.014  -1.648  55.571  1.00  0.00     0.118 A
HETATM   18  C17 UNL     1       8.079  -0.342  55.141  1.00  0.00     0.037 A
HETATM   19  C16 UNL     1       9.296   0.273  54.788  1.00  0.00     0.034 A
BRANCH  17  20
HETATM   20  C19 UNL     1       6.721  -2.286  55.953  1.00  0.00     0.432 C
HETATM   21  F1  UNL     1       6.847  -3.119  57.046  1.00  0.00    -0.165 F
HETATM   22  F2  UNL     1       5.803  -1.315  56.337  1.00  0.00    -0.165 F
HETATM   23  F3  UNL     1       6.117  -2.921  54.868  1.00  0.00    -0.165 F
ENDBRANCH  17  20
ENDBRANCH   1  13
BRANCH   4  24
HETATM   24  C5  UNL     1      13.966   0.712  57.341  1.00  0.00     0.036 C
HETATM   25  C6  UNL     1      13.835   2.042  58.017  1.00  0.00     0.038 C
HETATM   26  C7  UNL     1      13.622  -0.346  58.443  1.00  0.00     0.038 C
HETATM   27  C8  UNL     1      15.462   0.525  57.082  1.00  0.00     0.038 C
ENDBRANCH   4  24
BRANCH   9  28
HETATM   28  C10 UNL     1      15.752  -2.292  51.927  1.00  0.00     0.049 A
HETATM   29  C11 UNL     1      15.897  -3.436  51.185  1.00  0.00     0.030 A
HETATM   30  C12 UNL     1      16.544  -3.393  49.953  1.00  0.00     0.002 A
HETATM   31  C13 UNL     1      17.033  -2.216  49.483  1.00  0.00     0.000 A
HETATM   32  C14 UNL     1      16.903  -1.057  50.204  1.00  0.00     0.002 A
HETATM   33  C15 UNL     1      16.249  -1.116  51.441  1.00  0.00     0.030 A
ENDBRANCH   9  28
BRANCH  11  34
HETATM   34  N7  UNL     1      12.540  -1.527  51.643  1.00  0.00    -0.024 N
HETATM   35  O1  UNL     1      12.074  -1.024  50.590  1.00  0.00    -0.516 OA
HETATM   36  O2  UNL     1      12.227  -2.805  51.980  1.00  0.00    -0.516 OA
ENDBRANCH  11  34
TORSDOF 5
ENDMDL