MODEL 4
REMARK VINA RESULT: -9.331932192      1.959      4.153
REMARK  5 active torsions:
REMARK  status: ('A' for Active; 'I' for Inactive)
REMARK    1  A    between atoms: C3_3  and  N1_4
REMARK       I    between atoms: N1_4  and  C4_6
REMARK    2  A    between atoms: C4_6  and  C5_8
REMARK    3  A    between atoms: C6_9  and  C7_10
REMARK       I    between atoms: C7_10  and  N2_12
REMARK    4  A    between atoms: N2_12  and  C8_14
REMARK    5  A    between atoms: C11_17  and  C12_18
ROOT
HETATM    1  C1  UNL     1      17.657  -5.221  51.026  1.00  0.00     0.014 C
HETATM    2  C2  UNL     1      17.645  -4.294  50.258  1.00  0.00    -0.098 C
HETATM    3  C3  UNL     1      17.641  -3.193  49.317  1.00  0.00     0.216 C
ENDROOT
BRANCH   3   4
HETATM    4  N1  UNL     1      16.305  -2.682  49.116  1.00  0.00    -0.350 N
HETATM    5  C4  UNL     1      15.641  -1.838  50.039  1.00  0.00     0.223 C
HETATM    6  O1  UNL     1      16.281  -1.540  51.074  1.00  0.00    -0.273 OA
ATOM      7  H1  UNL     1      15.813  -2.944  48.262  1.00  0.00     0.163 HD
BRANCH   5   8
HETATM    8  C5  UNL     1      14.278  -1.381  49.722  1.00  0.00     0.097 C
HETATM    9  C6  UNL     1      13.623  -0.553  50.745  1.00  0.00     0.096 C
HETATM   10  C16 UNL     1      12.946   0.553  49.919  1.00  0.00     0.009 C
HETATM   11  C17 UNL     1      14.054   1.532  49.640  1.00  0.00     0.026 C
HETATM   12  C21 UNL     1      12.747  -0.090  48.566  1.00  0.00    -0.037 C
HETATM   13  C18 UNL     1      14.847   0.806  48.571  1.00  0.00     0.099 C
HETATM   14  C19 UNL     1      16.255   0.853  48.772  1.00  0.00     0.064 C
HETATM   15  C20 UNL     1      14.219  -0.557  48.460  1.00  0.00     0.025 C
HETATM   16  N4  UNL     1      17.396   0.906  48.917  1.00  0.00    -0.197 NA
HETATM   17  C22 UNL     1      11.763  -1.165  48.465  1.00  0.00     0.015 C
HETATM   18  C23 UNL     1      12.433   0.909  47.476  1.00  0.00     0.015 C
BRANCH   9  19
HETATM   19  C7  UNL     1      12.620  -1.219  51.623  1.00  0.00     0.227 C
HETATM   20  O2  UNL     1      12.640  -2.461  51.635  1.00  0.00    -0.273 OA
HETATM   21  N2  UNL     1      11.703  -0.514  52.393  1.00  0.00    -0.327 N
ATOM     22  H2  UNL     1      11.784   0.499  52.302  1.00  0.00     0.169 HD
BRANCH  21  23
HETATM   23  C8  UNL     1      10.693  -0.922  53.267  1.00  0.00     0.036 A
HETATM   24  C9  UNL     1       9.347  -0.630  53.032  1.00  0.00     0.030 A
HETATM   25  C10 UNL     1       8.373  -1.049  53.903  1.00  0.00     0.020 A
HETATM   26  C11 UNL     1       8.664  -1.770  55.041  1.00  0.00     0.068 A
HETATM   27  C13 UNL     1       9.968  -2.066  55.292  1.00  0.00     0.061 A
HETATM   28  C14 UNL     1      10.296  -2.812  56.466  1.00  0.00     0.100 C
HETATM   29  C15 UNL     1      10.964  -1.637  54.399  1.00  0.00     0.053 A
HETATM   30  N3  UNL     1      10.548  -3.423  57.407  1.00  0.00    -0.191 NA
BRANCH  26  31
HETATM   31  C12 UNL     1       7.580  -2.198  55.950  1.00  0.00     0.418 C
HETATM   32  F1  UNL     1       6.344  -1.925  55.391  1.00  0.00    -0.166 F
HETATM   33  F2  UNL     1       7.630  -1.566  57.159  1.00  0.00    -0.166 F
HETATM   34  F3  UNL     1       7.644  -3.585  56.118  1.00  0.00    -0.166 F
ENDBRANCH  26  31
ENDBRANCH  21  23
ENDBRANCH   9  19
ENDBRANCH   5   8
ENDBRANCH   3   4
TORSDOF 5
ENDMDL