MODEL 3
REMARK VINA RESULT: -8.655531109      3.570      8.197
REMARK  7 active torsions:
REMARK  status: ('A' for Active; 'I' for Inactive)
REMARK    1  A    between atoms: C2_2  and  N1_3
REMARK    2  A    between atoms: N1_3  and  C3_5
REMARK    3  A    between atoms: C5_9  and  C6_10
REMARK    4  A    between atoms: C7_11  and  C8_12
REMARK    5  A    between atoms: C12_16  and  C13_17
REMARK    6  A    between atoms: C22_34  and  C23_35
REMARK    7  A    between atoms: C23_35  and  O1_36
ROOT
HETATM    1  C3  UNL     1      14.484  -0.475  49.598  1.00  0.00     0.114 A
HETATM    2  N2  UNL     1      13.439   0.360  49.769  1.00  0.00    -0.350 N
ATOM      3  H2  UNL     1      13.328   1.181  49.173  1.00  0.00     0.166 HD
HETATM    4  C4  UNL     1      12.553   0.097  50.728  1.00  0.00     0.112 A
HETATM    5  C5  UNL     1      12.664  -1.002  51.556  1.00  0.00     0.061 A
HETATM    6  C16 UNL     1      13.728  -1.862  51.391  1.00  0.00     0.067 A
HETATM    7  N3  UNL     1      14.085  -2.984  52.034  1.00  0.00    -0.355 N
ATOM      8  H3  UNL     1      13.581  -3.411  52.811  1.00  0.00     0.166 HD
HETATM    9  C17 UNL     1      15.212  -3.449  51.484  1.00  0.00     0.050 A
HETATM   10  C18 UNL     1      15.601  -2.595  50.444  1.00  0.00    -0.015 A
HETATM   11  C19 UNL     1      14.661  -1.596  50.390  1.00  0.00     0.044 A
HETATM   12  C20 UNL     1      16.800  -2.814  49.628  1.00  0.00     0.069 C
HETATM   13  C21 UNL     1      17.795  -3.759  50.245  1.00  0.00     0.238 C
HETATM   14  N4  UNL     1      17.451  -4.124  51.601  1.00  0.00    -0.063 N
ATOM     15  H41 UNL     1      17.607  -3.345  52.242  1.00  0.00     0.278 HD
ATOM     16  H42 UNL     1      18.124  -4.788  51.985  1.00  0.00     0.278 HD
HETATM   17  C22 UNL     1      16.117  -4.621  51.711  1.00  0.00     0.259 C
ENDROOT
BRANCH   5  18
HETATM   18  C6  UNL     1      11.676  -1.241  52.582  1.00  0.00    -0.058 C
HETATM   19  C7  UNL     1      10.843  -1.464  53.438  1.00  0.00    -0.058 C
BRANCH  19  20
HETATM   20  C8  UNL     1       9.856  -1.750  54.443  1.00  0.00     0.057 A
HETATM   21  C9  UNL     1       8.948  -0.775  54.802  1.00  0.00     0.024 A
HETATM   22  C10 UNL     1       7.984  -1.020  55.766  1.00  0.00     0.002 A
HETATM   23  C11 UNL     1       7.927  -2.257  56.381  1.00  0.00     0.016 A
HETATM   24  C12 UNL     1       8.816  -3.250  56.048  1.00  0.00     0.052 A
HETATM   25  C15 UNL     1       9.771  -2.972  55.075  1.00  0.00     0.147 A
HETATM   26  F3  UNL     1      10.646  -3.967  54.756  1.00  0.00    -0.204 F
BRANCH  24  27
HETATM   27  C13 UNL     1       8.796  -4.596  56.679  1.00  0.00     0.270 C
HETATM   28  C14 UNL     1      10.003  -4.752  57.564  1.00  0.00     0.096 C
HETATM   29  F1  UNL     1       7.640  -4.752  57.432  1.00  0.00    -0.201 F
HETATM   30  F2  UNL     1       8.811  -5.602  55.734  1.00  0.00    -0.201 F
ENDBRANCH  24  27
ENDBRANCH  19  20
ENDBRANCH   5  18
BRANCH   1  31
HETATM   31  N1  UNL     1      15.350  -0.249  48.685  1.00  0.00    -0.376 N
ATOM     32  H1  UNL     1      15.303  -0.746  47.796  1.00  0.00     0.161 HD
BRANCH  31  33
HETATM   33  C2  UNL     1      16.393   0.714  48.923  1.00  0.00     0.116 C
HETATM   34  C1  UNL     1      16.186   1.997  48.173  1.00  0.00     0.026 C
ENDBRANCH  31  33
ENDBRANCH   1  31
BRANCH  17  35
HETATM   35  C23 UNL     1      15.811  -5.348  52.957  1.00  0.00     0.206 C
BRANCH  35  36
HETATM   36  O1  UNL     1      15.471  -6.643  52.788  1.00  0.00    -0.394 OA
HETATM   37  C24 UNL     1      16.186  -7.458  51.963  1.00  0.00     0.201 C
ENDBRANCH  35  36
ENDBRANCH  17  35
TORSDOF 7
ENDMDL