MODEL 1
REMARK VINA RESULT: -9.317776030      0.000      0.000
REMARK  10 active torsions:
REMARK  status: ('A' for Active; 'I' for Inactive)
REMARK    1  A    between atoms: C5_5  and  C6_6
REMARK       I    between atoms: C6_6  and  N1_8
REMARK    2  A    between atoms: N1_8  and  C7_10
REMARK    3  A    between atoms: C10_13  and  C11_14
REMARK    4  A    between atoms: C11_14  and  N2_15
REMARK    5  A    between atoms: N2_15  and  C13_17
REMARK    6  A    between atoms: C13_17  and  C14_18
REMARK    7  A    between atoms: C19_25  and  N3_26
REMARK       I    between atoms: N3_26  and  C20_28
REMARK       I    between atoms: C20_28  and  N4_30
REMARK    8  A    between atoms: N4_30  and  C21_32
REMARK    9  A    between atoms: C21_32  and  C22_33
REMARK   10  A    between atoms: C21_32  and  C25_36
ROOT
HETATM    1  C1  UNL     1       2.929  -3.883  16.421  1.00  0.00     0.018 C
HETATM    2  C2  UNL     1       3.550  -2.998  16.927  1.00  0.00    -0.073 C
HETATM    3  C3  UNL     1       4.300  -1.945  17.555  1.00  0.00     0.071 A
HETATM    4  C4  UNL     1       5.198  -1.090  16.903  1.00  0.00     0.068 A
HETATM    5  C5  UNL     1       5.678  -0.252  17.880  1.00  0.00     0.146 A
HETATM    6  O2  UNL     1       5.124  -0.567  19.021  1.00  0.00    -0.286 OA
HETATM    7  C19 UNL     1       4.298  -1.567  18.882  1.00  0.00     0.171 A
ENDROOT
BRANCH   7   8
HETATM    8  N3  UNL     1       3.541  -2.148  19.929  1.00  0.00    -0.288 N
HETATM    9  C20 UNL     1       4.204  -2.895  20.939  1.00  0.00     0.322 C
HETATM   10  O3  UNL     1       5.460  -3.051  20.935  1.00  0.00    -0.247 OA
HETATM   11  N4  UNL     1       3.436  -3.481  21.977  1.00  0.00    -0.329 N
ATOM     12  H4  UNL     1       2.423  -3.364  21.987  1.00  0.00     0.165 HD
ATOM     13  H3  UNL     1       2.528  -2.030  19.959  1.00  0.00     0.172 HD
BRANCH  11  14
HETATM   14  C21 UNL     1       4.078  -4.235  23.012  1.00  0.00     0.197 C
BRANCH  14  15
HETATM   15  C22 UNL     1       3.726  -3.756  24.401  1.00  0.00     0.009 C
HETATM   16  C23 UNL     1       2.365  -3.145  24.464  1.00  0.00     0.012 C
HETATM   17  C24 UNL     1       4.746  -2.699  24.813  1.00  0.00     0.012 C
ENDBRANCH  14  15
BRANCH  14  18
HETATM   18  C25 UNL     1       3.751  -5.728  22.907  1.00  0.00     0.407 C
HETATM   19  F1  UNL     1       2.461  -5.866  22.417  1.00  0.00    -0.169 F
HETATM   20  F2  UNL     1       3.783  -6.332  24.141  1.00  0.00    -0.169 F
HETATM   21  F3  UNL     1       4.672  -6.285  22.062  1.00  0.00    -0.169 F
ENDBRANCH  14  18
ENDBRANCH  11  14
ENDBRANCH   7   8
BRANCH   5  22
HETATM   22  C6  UNL     1       6.664   0.824  17.650  1.00  0.00     0.275 C
HETATM   23  O1  UNL     1       6.499   1.660  16.750  1.00  0.00    -0.265 OA
HETATM   24  N1  UNL     1       7.804   0.874  18.484  1.00  0.00    -0.351 N
ATOM     25  H1  UNL     1       7.917   0.171  19.216  1.00  0.00     0.163 HD
BRANCH  24  26
HETATM   26  C7  UNL     1       8.812   1.894  18.325  1.00  0.00     0.084 C
HETATM   27  C8  UNL     1      10.160   1.288  18.605  1.00  0.00     0.026 C
HETATM   28  C9  UNL     1      11.277   2.284  18.286  1.00  0.00     0.008 C
HETATM   29  C10 UNL     1      10.822   3.689  18.711  1.00  0.00     0.014 C
HETATM   30  C17 UNL     1       9.877   3.481  19.853  1.00  0.00     0.008 C
HETATM   31  C18 UNL     1       8.538   3.030  19.253  1.00  0.00     0.026 C
BRANCH  29  32
HETATM   32  C11 UNL     1      12.038   4.463  19.107  1.00  0.00     0.276 C
BRANCH  32  33
HETATM   33  N2  UNL     1      12.874   3.712  20.052  1.00  0.00     0.086 N
HETATM   34  C12 UNL     1      14.213   3.614  19.595  1.00  0.00     0.310 C
BRANCH  33  35
HETATM   35  C13 UNL     1      12.624   4.085  21.387  1.00  0.00     0.296 C
BRANCH  35  36
HETATM   36  C14 UNL     1      12.533   2.946  22.347  1.00  0.00     0.056 C
HETATM   37  C15 UNL     1      11.883   3.411  23.664  1.00  0.00     0.034 C
HETATM   38  C16 UNL     1      11.626   1.855  21.805  1.00  0.00     0.034 C
HETATM   39 CL1  UNL     1      14.065   2.209  22.809  1.00  0.00    -0.118 Cl
ENDBRANCH  35  36
ENDBRANCH  33  35
ENDBRANCH  32  33
ENDBRANCH  29  32
ENDBRANCH  24  26
ENDBRANCH   5  22
TORSDOF 10
ENDMDL