MODEL 1
REMARK VINA RESULT: -10.128397646      0.000      0.000
REMARK  11 active torsions:
REMARK  status: ('A' for Active; 'I' for Inactive)
REMARK    1  A    between atoms: C3_3  and  C4_4
REMARK    2  A    between atoms: C4_4  and  C5_5
REMARK    3  A    between atoms: C8_8  and  O1_9
REMARK    4  A    between atoms: C9_11  and  O2_12
REMARK    5  A    between atoms: N1_17  and  C13_18
REMARK    6  A    between atoms: C13_18  and  C14_19
REMARK    7  A    between atoms: C14_19  and  C15_20
REMARK    8  A    between atoms: C15_20  and  N2_21
REMARK    9  A    between atoms: N2_21  and  S1_23
REMARK   10  A    between atoms: S1_23  and  C16_26
REMARK   11  A    between atoms: C17_27  and  C18_29
ROOT
HETATM    1  C1  UNL     1      11.194   1.715  18.351  1.00  0.00     0.021 C
HETATM    2  C2  UNL     1      10.494   2.346  19.222  1.00  0.00    -0.029 C
HETATM    3  C3  UNL     1      10.865   2.969  20.460  1.00  0.00    -0.048 C
HETATM    4  C11 UNL     1      10.325   2.017  21.547  1.00  0.00     0.069 C
HETATM    5  C12 UNL     1       9.150   1.248  21.084  1.00  0.00     0.278 C
HETATM    6  N1  UNL     1       8.316   1.781  20.073  1.00  0.00     0.097 N
HETATM    7  C19 UNL     1       8.988   2.425  18.966  1.00  0.00     0.251 C
HETATM    8  C20 UNL     1       8.601   1.977  17.614  1.00  0.00     0.048 C
ENDROOT
BRANCH   6   9
HETATM    9  C13 UNL     1       7.542   0.644  19.531  1.00  0.00     0.275 C
BRANCH   9  10
HETATM   10  C14 UNL     1       6.404   0.303  20.468  1.00  0.00     0.050 C
BRANCH  10  11
HETATM   11  C15 UNL     1       5.115   0.337  19.685  1.00  0.00     0.134 C
BRANCH  11  12
HETATM   12  N2  UNL     1       5.270   0.812  18.347  1.00  0.00    -0.316 N
ATOM     13  H2  UNL     1       6.119   1.203  17.938  1.00  0.00     0.172 HD
BRANCH  12  14
HETATM   14  S1  UNL     1       3.745   0.598  17.547  1.00  0.00     0.250 S
HETATM   15  O3  UNL     1       3.894  -0.529  16.575  1.00  0.00    -0.201 OA
HETATM   16  O4  UNL     1       2.693   0.255  18.564  1.00  0.00    -0.201 OA
BRANCH  14  17
HETATM   17  C16 UNL     1       3.345   2.106  16.768  1.00  0.00     0.155 C
HETATM   18  C17 UNL     1       4.138   2.635  15.850  1.00  0.00     0.078 C
HETATM   19 CL1  UNL     1       5.608   1.837  15.392  1.00  0.00    -0.084 Cl
BRANCH  18  20
HETATM   20  C18 UNL     1       3.793   3.923  15.189  1.00  0.00     0.227 C
HETATM   21 CL2  UNL     1       4.046   5.250  16.365  1.00  0.00    -0.077 Cl
HETATM   22 CL3  UNL     1       2.114   3.850  14.625  1.00  0.00    -0.077 Cl
HETATM   23 CL4  UNL     1       4.903   4.136  13.803  1.00  0.00    -0.077 Cl
ENDBRANCH  18  20
ENDBRANCH  14  17
ENDBRANCH  12  14
ENDBRANCH  11  12
ENDBRANCH  10  11
ENDBRANCH   9  10
ENDBRANCH   6   9
BRANCH   3  24
HETATM   24  C4  UNL     1      12.142   3.564  20.778  1.00  0.00     0.019 C
BRANCH  24  25
HETATM   25  C5  UNL     1      12.937   4.348  19.877  1.00  0.00    -0.033 A
HETATM   26  C6  UNL     1      14.305   4.280  19.823  1.00  0.00     0.014 A
HETATM   27  C7  UNL     1      15.073   5.013  18.970  1.00  0.00     0.040 A
HETATM   28  C8  UNL     1      14.479   5.898  18.079  1.00  0.00     0.098 A
HETATM   29  C9  UNL     1      13.120   6.003  18.092  1.00  0.00     0.099 A
HETATM   30  C10 UNL     1      12.355   5.236  18.981  1.00  0.00     0.051 A
BRANCH  28  31
HETATM   31  O1  UNL     1      15.317   6.628  17.222  1.00  0.00    -0.358 OA
ATOM     32  H1  UNL     1      15.299   6.416  16.296  1.00  0.00     0.217 HD
ENDBRANCH  28  31
BRANCH  29  33
HETATM   33  O2  UNL     1      12.490   6.874  17.221  1.00  0.00    -0.358 OA
ATOM     34  H2  UNL     1      12.719   7.796  17.228  1.00  0.00     0.217 HD
ENDBRANCH  29  33
ENDBRANCH  24  25
ENDBRANCH   3  24
TORSDOF 11
ENDMDL