MODEL 2
REMARK VINA RESULT: -9.504561466      0.921      1.030
REMARK  8 active torsions:
REMARK  status: ('A' for Active; 'I' for Inactive)
REMARK    1  A    between atoms: C1_2  and  C2_3
REMARK       I    between atoms: C1_2  and  N2_16
REMARK    2  A    between atoms: C2_3  and  C3_4
REMARK    3  A    between atoms: C3_4  and  N1_5
REMARK       I    between atoms: N1_5  and  C4_7
REMARK    4  A    between atoms: C4_7  and  C5_9
REMARK    5  A    between atoms: N2_16  and  C9_18
REMARK    6  A    between atoms: C14_25  and  S2_26
REMARK    7  A    between atoms: S2_26  and  N3_29
REMARK    8  A    between atoms: N3_29  and  C15_31
ROOT
HETATM    1  O1  UNL     1       7.908   2.597  18.863  1.00  0.00    -0.273 OA
HETATM    2  C1  UNL     1       8.042   1.555  18.219  1.00  0.00     0.223 C
HETATM    3  N2  UNL     1       7.268   1.182  17.114  1.00  0.00    -0.326 N
ATOM      4  H2  UNL     1       7.502   0.285  16.688  1.00  0.00     0.169 HD
ENDROOT
BRANCH   3   5
HETATM    5  C9  UNL     1       6.191   1.898  16.505  1.00  0.00     0.060 A
HETATM    6  C10 UNL     1       6.389   2.979  15.691  1.00  0.00     0.033 A
HETATM    7  C11 UNL     1       5.306   3.609  15.095  1.00  0.00     0.028 A
HETATM    8  C12 UNL     1       4.025   3.173  15.304  1.00  0.00     0.057 A
HETATM    9 CL3  UNL     1       2.673   3.970  14.550  1.00  0.00    -0.083 Cl
HETATM   10  C13 UNL     1       3.837   2.085  16.127  1.00  0.00     0.081 A
HETATM   11 CL4  UNL     1       2.164   1.550  16.420  1.00  0.00    -0.081 Cl
HETATM   12  C14 UNL     1       4.891   1.446  16.725  1.00  0.00     0.129 A
BRANCH  12  13
HETATM   13  S2  UNL     1       4.584   0.110  17.810  1.00  0.00     0.263 S
HETATM   14  O3  UNL     1       3.190   0.363  18.412  1.00  0.00    -0.200 OA
HETATM   15  O4  UNL     1       5.492   0.092  19.000  1.00  0.00    -0.200 OA
BRANCH  13  16
HETATM   16  N3  UNL     1       4.492  -1.403  17.062  1.00  0.00    -0.310 N
ATOM     17  H3  UNL     1       5.187  -1.689  16.372  1.00  0.00     0.172 HD
BRANCH  16  18
HETATM   18  C15 UNL     1       3.426  -2.263  17.420  1.00  0.00     0.093 A
HETATM   19  C16 UNL     1       3.746  -3.702  17.623  1.00  0.00     0.028 A
HETATM   20  C17 UNL     1       3.013  -3.342  16.400  1.00  0.00     0.028 A
ENDBRANCH  16  18
ENDBRANCH  13  16
ENDBRANCH  12  13
ENDBRANCH   3   5
BRANCH   2  21
HETATM   21  C2  UNL     1       9.134   0.614  18.669  1.00  0.00     0.123 C
BRANCH  21  22
HETATM   22  C3  UNL     1       9.807   1.229  19.857  1.00  0.00     0.132 C
BRANCH  22  23
HETATM   23  N1  UNL     1      10.938   2.039  19.525  1.00  0.00    -0.356 N
HETATM   24  C4  UNL     1      11.424   3.092  20.333  1.00  0.00     0.253 C
HETATM   25  O2  UNL     1      10.843   3.352  21.411  1.00  0.00    -0.268 OA
ATOM     26  H1  UNL     1      11.426   1.845  18.650  1.00  0.00     0.162 HD
BRANCH  24  27
HETATM   27  C5  UNL     1      12.617   3.869  19.884  1.00  0.00     0.062 A
HETATM   28  C6  UNL     1      12.582   4.694  18.822  1.00  0.00     0.050 A
HETATM   29  C7  UNL     1      13.738   5.354  18.503  1.00  0.00     0.077 A
HETATM   30 CL1  UNL     1      13.984   6.496  17.167  1.00  0.00    -0.076 Cl
HETATM   31  S1  UNL     1      14.834   4.812  19.685  1.00  0.00    -0.065 SA
HETATM   32  C8  UNL     1      13.810   3.766  20.551  1.00  0.00     0.091 A
HETATM   33 CL2  UNL     1      14.157   2.765  21.976  1.00  0.00    -0.075 Cl
ENDBRANCH  24  27
ENDBRANCH  22  23
ENDBRANCH  21  22
ENDBRANCH   2  21
TORSDOF 8
ENDMDL