MODEL 5
REMARK VINA RESULT: -8.319228862      3.373      6.507
REMARK  12 active torsions:
REMARK  status: ('A' for Active; 'I' for Inactive)
REMARK    1  A    between atoms: C2_2  and  C3_3
REMARK    2  A    between atoms: C3_3  and  C4_4
REMARK    3  A    between atoms: C4_4  and  C5_5
REMARK       I    between atoms: C5_5  and  N1_7
REMARK    4  A    between atoms: N1_7  and  N2_9
REMARK    5  A    between atoms: N2_9  and  C6_11
REMARK    6  A    between atoms: C14_19  and  C15_20
REMARK    7  A    between atoms: C15_20  and  O3_22
REMARK    8  A    between atoms: O3_22  and  C16_23
REMARK    9  A    between atoms: C18_25  and  C19_26
REMARK   10  A    between atoms: C23_35  and  O4_36
REMARK   11  A    between atoms: C23_35  and  N4_38
REMARK   12  A    between atoms: N4_38  and  C24_40
ROOT
HETATM    1  C4  UNL     1       6.164   0.030  18.864  1.00  0.00     0.110 C
HETATM    2  C14 UNL     1       5.292   0.563  17.748  1.00  0.00     0.071 C
HETATM    3  C18 UNL     1       4.008   0.745  17.893  1.00  0.00     0.131 C
HETATM    4  N3  UNL     1       3.408   0.626  19.194  1.00  0.00    -0.355 N
ATOM      5  H3  UNL     1       2.400   0.753  19.284  1.00  0.00     0.166 HD
HETATM    6  C20 UNL     1       4.083   0.370  20.231  1.00  0.00     0.018 C
HETATM    7  C21 UNL     1       3.416   0.240  21.543  1.00  0.00     0.069 C
HETATM    8  C22 UNL     1       5.579   0.354  20.211  1.00  0.00     0.037 C
HETATM    9  C23 UNL     1       6.243  -0.101  21.400  1.00  0.00     0.145 C
ENDROOT
BRANCH   1  10
HETATM   10  C3  UNL     1       6.574  -1.356  18.606  1.00  0.00     0.029 C
BRANCH  10  11
HETATM   11  C2  UNL     1       5.710  -2.445  18.222  1.00  0.00    -0.003 C
HETATM   12  C1  UNL     1       4.944  -3.225  19.225  1.00  0.00     0.005 C
ENDBRANCH  10  11
ENDBRANCH   1  10
BRANCH   1  13
HETATM   13  C5  UNL     1       7.450   0.796  18.905  1.00  0.00     0.254 C
HETATM   14  O1  UNL     1       8.544   0.246  18.511  1.00  0.00    -0.270 OA
HETATM   15  N1  UNL     1       7.608   2.120  19.358  1.00  0.00    -0.273 N
ATOM     16  H1  UNL     1       6.785   2.636  19.668  1.00  0.00     0.189 HD
BRANCH  15  17
HETATM   17  N2  UNL     1       8.834   2.742  19.397  1.00  0.00    -0.329 N
ATOM     18  H2  UNL     1       8.946   3.714  19.107  1.00  0.00     0.180 HD
BRANCH  17  19
HETATM   19  C6  UNL     1       9.954   1.964  19.863  1.00  0.00     0.103 C
HETATM   20  C7  UNL     1      11.194   2.631  19.685  1.00  0.00     0.027 C
HETATM   21  C8  UNL     1      12.265   3.266  19.042  1.00  0.00     0.006 C
HETATM   22  C9  UNL     1      13.262   3.565  20.220  1.00  0.00     0.027 C
HETATM   23  C10 UNL     1      12.628   3.834  21.519  1.00  0.00    -0.027 C
HETATM   24  C11 UNL     1      12.025   2.906  22.434  1.00  0.00    -0.008 C
HETATM   25  C12 UNL     1      11.152   1.771  22.132  1.00  0.00    -0.025 C
HETATM   26  C13 UNL     1       9.873   1.811  21.424  1.00  0.00     0.053 C
ENDBRANCH  17  19
ENDBRANCH  15  17
ENDBRANCH   1  13
BRANCH   2  27
HETATM   27  C15 UNL     1       5.934   0.899  16.495  1.00  0.00     0.293 C
HETATM   28  O2  UNL     1       5.949   0.018  15.540  1.00  0.00    -0.259 OA
BRANCH  27  29
HETATM   29  O3  UNL     1       6.566   2.051  16.119  1.00  0.00    -0.318 OA
BRANCH  29  30
HETATM   30  C16 UNL     1       6.732   2.551  14.825  1.00  0.00     0.174 C
HETATM   31  C17 UNL     1       5.900   3.787  14.575  1.00  0.00     0.034 C
ENDBRANCH  29  30
ENDBRANCH  27  29
ENDBRANCH   2  27
BRANCH   3  32
HETATM   32  C19 UNL     1       3.060   1.244  16.854  1.00  0.00     0.433 C
HETATM   33  F1  UNL     1       2.396   2.402  17.356  1.00  0.00    -0.165 F
HETATM   34  F2  UNL     1       1.972   0.406  16.656  1.00  0.00    -0.165 F
HETATM   35  F3  UNL     1       3.655   1.692  15.711  1.00  0.00    -0.165 F
ENDBRANCH   3  32
BRANCH   9  36
HETATM   36  O4  UNL     1       6.893   0.762  22.143  1.00  0.00    -0.346 OA
ATOM     37  H4  UNL     1       6.412   1.455  22.582  1.00  0.00     0.219 HD
ENDBRANCH   9  36
BRANCH   9  38
HETATM   38  N4  UNL     1       6.292  -1.412  21.899  1.00  0.00    -0.371 N
ATOM     39  H4  UNL     1       6.671  -2.147  21.303  1.00  0.00     0.161 HD
BRANCH  38  40
HETATM   40  C24 UNL     1       5.821  -1.771  23.246  1.00  0.00     0.117 C
HETATM   41  C25 UNL     1       4.887  -2.932  23.150  1.00  0.00     0.026 C
ENDBRANCH  38  40
ENDBRANCH   9  38
TORSDOF 12
ENDMDL