MODEL 1
REMARK VINA RESULT: -9.370452067      0.000      0.000
REMARK  9 active torsions:
REMARK  status: ('A' for Active; 'I' for Inactive)
REMARK    1  A    between atoms: C2_2  and  N1_4
REMARK    2  A    between atoms: N1_4  and  C4_6
REMARK    3  A    between atoms: C9_12  and  S1_13
REMARK    4  A    between atoms: S1_13  and  N2_16
REMARK    5  A    between atoms: N2_16  and  C10_18
REMARK    6  A    between atoms: C10_18  and  C11_20
REMARK    7  A    between atoms: C11_20  and  C12_21
REMARK    8  A    between atoms: C12_21  and  C13_22
REMARK       I    between atoms: C13_22  and  N3_24
REMARK    9  A    between atoms: N3_24  and  C14_26
ROOT
HETATM    1  N2  UNL     1       7.210   2.119  18.635  1.00  0.00    -0.297 N
ATOM      2  H2  UNL     1       6.905   3.018  19.005  1.00  0.00     0.174 HD
ENDROOT
BRANCH   1   3
HETATM    3  S1  UNL     1       6.914   1.779  17.046  1.00  0.00     0.262 S
HETATM    4  O1  UNL     1       8.053   2.146  16.112  1.00  0.00    -0.200 OA
HETATM    5  O2  UNL     1       6.799   0.253  16.919  1.00  0.00    -0.200 OA
BRANCH   3   6
HETATM    6  C9  UNL     1       5.472   2.412  16.327  1.00  0.00     0.105 A
HETATM    7  C4  UNL     1       4.223   1.874  16.675  1.00  0.00     0.053 A
HETATM    8  C5  UNL     1       3.051   2.362  16.105  1.00  0.00     0.054 A
HETATM    9  C6  UNL     1       3.085   3.386  15.184  1.00  0.00     0.036 A
HETATM   10 CL1  UNL     1       1.596   3.993  14.471  1.00  0.00    -0.084 Cl
HETATM   11  C7  UNL     1       4.310   3.912  14.846  1.00  0.00     0.025 A
HETATM   12  C8  UNL     1       5.480   3.425  15.415  1.00  0.00     0.029 A
BRANCH   7  13
HETATM   13  N1  UNL     1       4.064   0.845  17.634  1.00  0.00    -0.385 N
ATOM     14  H1  UNL     1       4.596   0.913  18.502  1.00  0.00     0.160 HD
BRANCH  13  15
HETATM   15  C2  UNL     1       3.197  -0.295  17.462  1.00  0.00     0.073 C
HETATM   16  C1  UNL     1       3.874  -1.515  16.914  1.00  0.00     0.031 C
HETATM   17  C3  UNL     1       2.520  -0.690  18.758  1.00  0.00     0.031 C
ENDBRANCH  13  15
ENDBRANCH   7  13
ENDBRANCH   3   6
ENDBRANCH   1   3
BRANCH   1  18
HETATM   18  C10 UNL     1       7.871   1.216  19.507  1.00  0.00     0.190 C
HETATM   19 CL2  UNL     1       9.256   0.411  18.826  1.00  0.00    -0.102 Cl
BRANCH  18  20
HETATM   20  C11 UNL     1       8.189   1.827  20.848  1.00  0.00     0.051 C
BRANCH  20  21
HETATM   21  C12 UNL     1       9.616   1.639  21.208  1.00  0.00     0.106 C
BRANCH  21  22
HETATM   22  C13 UNL     1      10.528   2.765  20.963  1.00  0.00     0.223 C
HETATM   23  O3  UNL     1      11.189   3.228  21.927  1.00  0.00    -0.273 OA
HETATM   24  N3  UNL     1      10.730   3.377  19.696  1.00  0.00    -0.307 N
ATOM     25  H3  UNL     1       9.978   3.400  19.007  1.00  0.00     0.171 HD
BRANCH  24  26
HETATM   26  C14 UNL     1      11.904   3.915  19.424  1.00  0.00     0.153 A
HETATM   27  N4  UNL     1      13.092   3.547  19.898  1.00  0.00    -0.325 N
HETATM   28  C15 UNL     1      14.143   4.206  19.511  1.00  0.00     0.134 A
ATOM     29  H4  UNL     1      13.175   2.767  20.550  1.00  0.00     0.169 HD
HETATM   30 CL3  UNL     1      15.796   3.808  20.075  1.00  0.00    -0.062 Cl
HETATM   31  C16 UNL     1      13.968   5.244  18.636  1.00  0.00     0.116 A
HETATM   32 CL4  UNL     1      15.190   6.322  17.931  1.00  0.00    -0.073 Cl
HETATM   33  S2  UNL     1      12.277   5.230  18.403  1.00  0.00    -0.038 SA
ENDBRANCH  24  26
ENDBRANCH  21  22
ENDBRANCH  20  21
ENDBRANCH  18  20
ENDBRANCH   1  18
TORSDOF 9
ENDMDL