MODEL 3
REMARK VINA RESULT: -9.392818982      0.801      1.145
REMARK  12 active torsions:
REMARK  status: ('A' for Active; 'I' for Inactive)
REMARK    1  A    between atoms: C2_2  and  C3_3
REMARK    2  A    between atoms: C3_3  and  C4_4
REMARK    3  A    between atoms: C4_4  and  C5_5
REMARK    4  A    between atoms: C6_6  and  C7_7
REMARK    5  A    between atoms: C8_8  and  N1_9
REMARK    6  A    between atoms: N1_9  and  C9_11
REMARK    7  A    between atoms: C11_13  and  C12_14
REMARK    8  A    between atoms: C12_14  and  C13_15
REMARK    9  A    between atoms: C20_30  and  C21_31
REMARK   10  A    between atoms: C22_36  and  N7_37
REMARK   11  A    between atoms: N7_37  and  C23_39
REMARK   12  A    between atoms: C23_39  and  C25_41
ROOT
HETATM    1  C7  UNL     1       4.834  -1.930  18.449  1.00  0.00     0.092 A
HETATM    2  C8  UNL     1       4.995  -3.299  18.744  1.00  0.00     0.129 A
HETATM    3  N3  UNL     1       4.323  -4.221  18.027  1.00  0.00    -0.337 N
ATOM      4  H3  UNL     1       4.443  -5.211  18.243  1.00  0.00     0.168 HD
HETATM    5  C19 UNL     1       3.494  -3.857  17.028  1.00  0.00     0.182 A
HETATM    6  N4  UNL     1       3.332  -2.584  16.739  1.00  0.00    -0.348 N
ATOM      7  H4  UNL     1       2.703  -2.321  15.981  1.00  0.00     0.167 HD
HETATM    8  C20 UNL     1       4.000  -1.590  17.444  1.00  0.00     0.102 A
ENDROOT
BRANCH   2   9
HETATM    9  N1  UNL     1       5.858  -3.727  19.788  1.00  0.00    -0.327 N
ATOM     10  H1  UNL     1       6.864  -3.808  19.637  1.00  0.00     0.169 HD
BRANCH   9  11
HETATM   11  C9  UNL     1       5.331  -4.012  20.938  1.00  0.00     0.107 A
HETATM   12  C10 UNL     1       5.114  -3.054  21.914  1.00  0.00     0.058 A
HETATM   13  C11 UNL     1       4.544  -3.380  23.156  1.00  0.00    -0.020 A
HETATM   14  C17 UNL     1       4.198  -4.701  23.385  1.00  0.00     0.056 A
HETATM   15 CL1  UNL     1       3.500  -5.140  24.911  1.00  0.00    -0.082 Cl
HETATM   16  C18 UNL     1       4.428  -5.624  22.390  1.00  0.00     0.114 A
HETATM   17  N2  UNL     1       4.976  -5.286  21.213  1.00  0.00    -0.351 N
ATOM     18  H2  UNL     1       5.127  -6.008  20.509  1.00  0.00     0.166 HD
BRANCH  13  19
HETATM   19  C12 UNL     1       4.302  -2.344  24.140  1.00  0.00     0.023 A
HETATM   20  C14 UNL     1       3.571  -1.052  23.771  1.00  0.00     0.007 A
HETATM   21  C15 UNL     1       2.909  -0.421  24.966  1.00  0.00     0.012 A
HETATM   22  C16 UNL     1       3.039  -1.964  24.730  1.00  0.00     0.007 A
BRANCH  19  23
HETATM   23  C13 UNL     1       5.478  -2.067  25.097  1.00  0.00     0.237 C
HETATM   24  F1  UNL     1       5.509  -2.972  26.136  1.00  0.00    -0.254 F
ENDBRANCH  19  23
ENDBRANCH  13  19
ENDBRANCH   9  11
ENDBRANCH   2   9
BRANCH   1  25
HETATM   25  C6  UNL     1       5.572  -1.025  19.247  1.00  0.00    -0.061 C
HETATM   26  C5  UNL     1       6.211  -0.245  19.889  1.00  0.00    -0.101 C
BRANCH  26  27
HETATM   27  C4  UNL     1       7.007   0.688  20.684  1.00  0.00     0.094 C
BRANCH  27  28
HETATM   28  C3  UNL     1       7.722   1.631  19.743  1.00  0.00     0.012 C
BRANCH  28  29
HETATM   29  C2  UNL     1       8.553   0.772  18.810  1.00  0.00    -0.004 C
HETATM   30  C1  UNL     1      10.014   1.113  18.841  1.00  0.00     0.005 C
ENDBRANCH  28  29
ENDBRANCH  27  28
ENDBRANCH  26  27
ENDBRANCH   1  25
BRANCH   8  31
HETATM   31  C21 UNL     1       3.724  -0.227  17.018  1.00  0.00     0.164 A
HETATM   32  N5  UNL     1       2.502   0.380  17.258  1.00  0.00    -0.269 N
HETATM   33  N6  UNL     1       2.484   1.598  16.787  1.00  0.00    -0.131 N
ATOM     34  H5  UNL     1       1.720  -0.065  17.737  1.00  0.00     0.189 HD
HETATM   35  C22 UNL     1       3.661   1.863  16.221  1.00  0.00     0.695 A
ATOM     36  H6  UNL     1       1.695   2.242  16.843  1.00  0.00     0.205 HD
HETATM   37  N8  UNL     1       4.405   0.704  16.385  1.00  0.00    -0.172 N
ATOM     38  H8  UNL     1       5.363   0.588  16.055  1.00  0.00     0.186 HD
BRANCH  35  39
HETATM   39  N7  UNL     1       4.106   2.913  15.633  1.00  0.00    -0.215 N
ATOM     40  H7  UNL     1       5.042   2.908  15.226  1.00  0.00     0.178 HD
BRANCH  39  41
HETATM   41  C23 UNL     1       3.302   4.086  15.546  1.00  0.00     0.160 C
HETATM   42  C24 UNL     1       2.526   4.123  14.232  1.00  0.00     0.038 C
BRANCH  41  43
HETATM   43  C25 UNL     1       4.162   5.352  15.543  1.00  0.00     0.375 C
HETATM   44  F2  UNL     1       4.341   5.695  16.888  1.00  0.00    -0.212 F
HETATM   45  F3  UNL     1       5.422   5.078  15.050  1.00  0.00    -0.212 F
ENDBRANCH  41  43
ENDBRANCH  39  41
ENDBRANCH  35  39
ENDBRANCH   8  31
TORSDOF 12
ENDMDL