MODEL 3
REMARK VINA RESULT: -9.754969609      1.609      2.118
REMARK  9 active torsions:
REMARK  status: ('A' for Active; 'I' for Inactive)
REMARK    1  A    between atoms: C2_2  and  N1_3
REMARK    2  A    between atoms: C2_2  and  C10_16
REMARK    3  A    between atoms: N1_3  and  O1_5
REMARK    4  A    between atoms: O1_5  and  C3_6
REMARK    5  A    between atoms: C3_6  and  C4_7
REMARK    6  A    between atoms: C4_7  and  C5_9
REMARK    7  A    between atoms: N2_10  and  C6_12
REMARK    8  A    between atoms: C14_20  and  N3_21
REMARK       I    between atoms: N3_21  and  C15_23
REMARK    9  A    between atoms: C15_23  and  C16_25
ROOT
HETATM    1  C10 UNL     1       5.134   2.353  15.923  1.00  0.00     0.106 C
HETATM    2  C11 UNL     1       4.425   3.208  14.892  1.00  0.00     0.074 C
HETATM    3  C12 UNL     1       3.846   3.703  16.208  1.00  0.00     0.127 C
HETATM    4  C13 UNL     1       2.970   2.551  16.591  1.00  0.00     0.060 C
HETATM    5  C14 UNL     1       4.059   1.453  16.425  1.00  0.00     0.124 C
HETATM    6  O4  UNL     1       5.106   3.457  16.760  1.00  0.00    -0.370 OA
ENDROOT
BRANCH   1   7
HETATM    7  C2  UNL     1       6.482   1.810  15.584  1.00  0.00     0.138 C
HETATM    8  C1  UNL     1       7.000   2.695  14.430  1.00  0.00     0.037 C
BRANCH   7   9
HETATM    9  N1  UNL     1       7.365   1.950  16.660  1.00  0.00    -0.295 N
ATOM     10  H1  UNL     1       8.069   2.688  16.660  1.00  0.00     0.188 HD
BRANCH   9  11
HETATM   11  O1  UNL     1       7.273   1.107  17.678  1.00  0.00    -0.277 OA
BRANCH  11  12
HETATM   12  C3  UNL     1       7.734   1.737  18.846  1.00  0.00     0.285 C
BRANCH  12  13
HETATM   13  C4  UNL     1       9.117   1.339  19.260  1.00  0.00     0.190 C
HETATM   14  O2  UNL     1       9.710   0.533  18.602  1.00  0.00    -0.289 OA
BRANCH  13  15
HETATM   15  C5  UNL     1       9.704   1.963  20.467  1.00  0.00     0.136 C
HETATM   16  N2  UNL     1      11.003   2.338  20.548  1.00  0.00    -0.388 N
ATOM     17  H2  UNL     1      11.563   1.796  21.206  1.00  0.00     0.159 HD
BRANCH  16  18
HETATM   18  C6  UNL     1      11.694   3.334  19.885  1.00  0.00     0.018 C
HETATM   19  C7  UNL     1      12.871   3.792  20.778  1.00  0.00     0.037 C
HETATM   20  C8  UNL     1      10.835   4.580  19.652  1.00  0.00     0.037 C
HETATM   21  C9  UNL     1      12.321   3.005  18.559  1.00  0.00     0.037 C
ENDBRANCH  16  18
ENDBRANCH  13  15
ENDBRANCH  12  13
ENDBRANCH  11  12
ENDBRANCH   9  11
ENDBRANCH   7   9
ENDBRANCH   1   7
BRANCH   5  22
HETATM   22  N3  UNL     1       4.243   0.739  17.632  1.00  0.00    -0.349 N
HETATM   23  C15 UNL     1       3.544  -0.338  18.172  1.00  0.00     0.255 C
HETATM   24  O3  UNL     1       2.543  -0.742  17.463  1.00  0.00    -0.268 OA
ATOM     25  H3  UNL     1       5.020   1.068  18.204  1.00  0.00     0.163 HD
BRANCH  23  26
HETATM   26  C16 UNL     1       3.737  -1.085  19.383  1.00  0.00     0.077 A
HETATM   27  C17 UNL     1       3.147  -0.597  20.563  1.00  0.00     0.053 A
HETATM   28 CL1  UNL     1       2.195   0.889  20.546  1.00  0.00    -0.083 Cl
HETATM   29  C18 UNL     1       3.277  -1.246  21.773  1.00  0.00     0.050 A
HETATM   30  C19 UNL     1       4.004  -2.415  21.864  1.00  0.00     0.059 A
HETATM   31 CL2  UNL     1       4.187  -3.263  23.397  1.00  0.00    -0.082 Cl
HETATM   32  C20 UNL     1       4.575  -2.899  20.740  1.00  0.00     0.078 A
HETATM   33 CL3  UNL     1       5.489  -4.393  20.866  1.00  0.00    -0.081 Cl
HETATM   34  C21 UNL     1       4.442  -2.239  19.514  1.00  0.00     0.074 A
HETATM   35 CL4  UNL     1       5.270  -2.982  18.187  1.00  0.00    -0.081 Cl
ENDBRANCH  23  26
ENDBRANCH   5  22
TORSDOF 9
ENDMDL