MODEL 1
REMARK VINA RESULT: -11.237789074      0.000      0.000
REMARK  9 active torsions:
REMARK  status: ('A' for Active; 'I' for Inactive)
REMARK       I    between atoms: C1_2  and  N1_3
REMARK       I    between atoms: C1_2  and  N3_15
REMARK    1  A    between atoms: N1_3  and  C2_5
REMARK    2  A    between atoms: C4_7  and  C5_8
REMARK    3  A    between atoms: C5_8  and  C6_10
REMARK    4  A    between atoms: N3_15  and  C7_17
REMARK    5  A    between atoms: C9_19  and  O4_20
REMARK    6  A    between atoms: O4_20  and  C10_21
REMARK    7  A    between atoms: C10_21  and  C11_22
REMARK    8  A    between atoms: C17_31  and  C18_32
REMARK    9  A    between atoms: C19_35  and  C20_36
ROOT
HETATM    1  C7  UNL     1       7.603   0.641  18.805  1.00  0.00     0.039 A
HETATM    2  C8  UNL     1       7.193   0.926  17.539  1.00  0.00     0.067 A
HETATM    3  C9  UNL     1       6.079   0.276  16.982  1.00  0.00     0.088 A
HETATM    4  C17 UNL     1       5.374  -0.662  17.688  1.00  0.00     0.080 A
HETATM    5  C19 UNL     1       5.767  -0.970  18.967  1.00  0.00    -0.032 A
HETATM    6  C23 UNL     1       6.851  -0.330  19.496  1.00  0.00     0.038 A
ENDROOT
BRANCH   1   7
HETATM    7  N3  UNL     1       8.692   1.238  19.467  1.00  0.00    -0.309 N
HETATM    8  C1  UNL     1       8.685   1.926  20.675  1.00  0.00     0.326 C
HETATM    9  O1  UNL     1       7.643   2.093  21.343  1.00  0.00    -0.247 OA
HETATM   10  N1  UNL     1       9.925   2.479  21.202  1.00  0.00    -0.293 N
ATOM     11  H1  UNL     1      10.205   2.232  22.150  1.00  0.00     0.172 HD
ATOM     12  H3  UNL     1       9.597   1.157  19.003  1.00  0.00     0.170 HD
BRANCH  10  13
HETATM   13  C2  UNL     1      10.674   3.256  20.531  1.00  0.00     0.132 A
HETATM   14  C3  UNL     1      11.984   3.053  20.089  1.00  0.00     0.093 A
HETATM   15  C4  UNL     1      12.364   4.189  19.406  1.00  0.00     0.149 A
HETATM   16  O3  UNL     1      11.338   5.009  19.445  1.00  0.00    -0.232 OA
HETATM   17  N2  UNL     1      10.356   4.487  20.088  1.00  0.00    -0.244 N
ATOM     18  H2  UNL     1       9.457   4.944  20.243  1.00  0.00     0.196 HD
BRANCH  15  19
HETATM   19  C5  UNL     1      13.656   4.414  18.774  1.00  0.00     0.198 C
HETATM   20  O2  UNL     1      13.745   4.459  17.517  1.00  0.00    -0.289 OA
BRANCH  19  21
HETATM   21  C6  UNL     1      14.897   4.595  19.568  1.00  0.00     0.200 C
HETATM   22 CL1  UNL     1      15.651   6.142  19.222  1.00  0.00    -0.122 Cl
ENDBRANCH  19  21
ENDBRANCH  15  19
ENDBRANCH  10  13
ENDBRANCH   1   7
BRANCH   3  23
HETATM   23  O4  UNL     1       5.710   0.610  15.694  1.00  0.00    -0.349 OA
BRANCH  23  24
HETATM   24  C10 UNL     1       6.056   1.852  15.168  1.00  0.00     0.183 C
BRANCH  24  25
HETATM   25  C11 UNL     1       4.765   2.589  14.829  1.00  0.00     0.044 C
HETATM   26  C12 UNL     1       5.109   3.799  14.027  1.00  0.00     0.015 C
HETATM   27  C13 UNL     1       5.364   5.032  14.868  1.00  0.00     0.079 C
HETATM   28  C14 UNL     1       4.167   5.407  15.687  1.00  0.00     0.246 C
HETATM   29  F1  UNL     1       3.455   6.398  15.040  1.00  0.00    -0.206 F
HETATM   30  F2  UNL     1       4.646   5.926  16.889  1.00  0.00    -0.206 F
HETATM   31  C15 UNL     1       3.287   4.209  16.002  1.00  0.00     0.116 C
HETATM   32  C16 UNL     1       4.092   2.961  16.152  1.00  0.00     0.181 C
HETATM   33  F3  UNL     1       5.036   3.056  17.158  1.00  0.00    -0.249 F
ENDBRANCH  24  25
ENDBRANCH  23  24
ENDBRANCH   3  23
BRANCH   5  34
HETATM   34  C20 UNL     1       5.014  -1.961  19.701  1.00  0.00     0.020 A
HETATM   35  C21 UNL     1       5.536  -3.385  19.723  1.00  0.00     0.010 A
HETATM   36  C22 UNL     1       5.459  -2.559  20.976  1.00  0.00     0.010 A
ENDBRANCH   5  34
BRANCH   4  37
HETATM   37  C18 UNL     1       4.240  -1.322  17.109  1.00  0.00     0.212 C
HETATM   38  O5  UNL     1       4.389  -2.402  16.506  1.00  0.00    -0.644 OA
HETATM   39  O6  UNL     1       2.975  -0.791  17.201  1.00  0.00    -0.644 OA
ENDBRANCH   4  37
TORSDOF 9
ENDMDL