MODEL 3
REMARK VINA RESULT: -9.127121901      1.506      1.645
REMARK  10 active torsions:
REMARK  status: ('A' for Active; 'I' for Inactive)
REMARK    1  A    between atoms: C4_4  and  N1_5
REMARK       I    between atoms: N1_5  and  C5_7
REMARK    2  A    between atoms: C5_7  and  C6_9
REMARK    3  A    between atoms: C6_9  and  N2_10
REMARK    4  A    between atoms: C10_14  and  C11_15
REMARK    5  A    between atoms: C11_15  and  N3_16
REMARK       I    between atoms: N3_16  and  C12_18
REMARK    6  A    between atoms: C12_18  and  C13_20
REMARK    7  A    between atoms: C13_20  and  C14_21
REMARK    8  A    between atoms: C14_21  and  N4_22
REMARK    9  A    between atoms: C14_21  and  C15_26
REMARK   10  A    between atoms: C16_30  and  C17_31
ROOT
HETATM    1  C17 UNL     1       5.016  -1.149  16.277  1.00  0.00     0.181 C
HETATM    2  C18 UNL     1       6.072  -1.260  17.312  1.00  0.00     0.065 C
HETATM    3  N5  UNL     1       6.889  -1.353  18.129  1.00  0.00    -0.197 NA
ENDROOT
BRANCH   1   4
HETATM    4  C16 UNL     1       4.458   0.242  16.414  1.00  0.00     0.033 A
HETATM    5  N2  UNL     1       4.931   1.411  15.980  1.00  0.00    -0.344 N
HETATM    6  C7  UNL     1       4.056   2.412  16.332  1.00  0.00     0.009 A
HETATM    7  C8  UNL     1       4.224   3.836  16.031  1.00  0.00     0.068 C
HETATM    8  C9  UNL     1       3.028   1.791  17.004  1.00  0.00     0.035 A
HETATM    9  C10 UNL     1       3.253   0.461  17.067  1.00  0.00    -0.015 A
BRANCH   5  10
HETATM   10  C6  UNL     1       6.146   1.568  15.244  1.00  0.00     0.232 C
BRANCH  10  11
HETATM   11  C5  UNL     1       7.321   2.013  16.005  1.00  0.00     0.240 C
HETATM   12  N1  UNL     1       7.582   1.637  17.325  1.00  0.00    -0.325 N
ATOM     13  H1  UNL     1       6.888   1.016  17.743  1.00  0.00     0.169 HD
HETATM   14  O1  UNL     1       8.108   2.768  15.401  1.00  0.00    -0.271 OA
BRANCH  12  15
HETATM   15  C4  UNL     1       8.654   1.982  18.167  1.00  0.00     0.041 A
HETATM   16  C3  UNL     1       9.863   2.441  17.719  1.00  0.00     0.038 A
HETATM   17  C2  UNL     1      10.920   2.772  18.580  1.00  0.00    -0.038 A
HETATM   18  C1  UNL     1      12.224   3.270  18.082  1.00  0.00     0.050 C
HETATM   19  C22 UNL     1      10.684   2.613  19.922  1.00  0.00     0.040 A
HETATM   20  C21 UNL     1       9.481   2.155  20.400  1.00  0.00     0.033 A
HETATM   21 CL4  UNL     1      11.962   3.008  21.066  1.00  0.00    -0.084 Cl
HETATM   22  C19 UNL     1       8.455   1.834  19.546  1.00  0.00    -0.034 A
HETATM   23  C20 UNL     1       7.143   1.338  20.094  1.00  0.00     0.050 C
ENDBRANCH  12  15
ENDBRANCH  10  11
ENDBRANCH   5  10
BRANCH   9  24
HETATM   24  C11 UNL     1       2.383  -0.585  17.677  1.00  0.00     0.163 C
BRANCH  24  25
HETATM   25  N3  UNL     1       2.066  -0.275  19.053  1.00  0.00    -0.357 N
HETATM   26  C12 UNL     1       2.844  -0.734  20.141  1.00  0.00     0.220 C
HETATM   27  O2  UNL     1       3.846  -1.442  19.936  1.00  0.00    -0.274 OA
ATOM     28  H3  UNL     1       1.246   0.300  19.247  1.00  0.00     0.162 HD
BRANCH  26  29
HETATM   29  C13 UNL     1       2.467  -0.371  21.516  1.00  0.00     0.140 C
BRANCH  29  30
HETATM   30  C14 UNL     1       3.663   0.110  22.313  1.00  0.00     0.246 C
BRANCH  30  31
HETATM   31  N4  UNL     1       4.132  -0.933  23.224  1.00  0.00    -0.070 N
ATOM     32  H43 UNL     1       3.579  -1.786  23.139  1.00  0.00     0.274 HD
ATOM     33  H42 UNL     1       5.037  -1.307  22.936  1.00  0.00     0.274 HD
ATOM     34  H41 UNL     1       4.154  -0.592  24.185  1.00  0.00     0.274 HD
ENDBRANCH  30  31
BRANCH  30  35
HETATM   35  C15 UNL     1       3.225   1.271  23.176  1.00  0.00     0.216 C
HETATM   36 CL1  UNL     1       4.534   2.413  23.493  1.00  0.00    -0.082 Cl
HETATM   37 CL2  UNL     1       2.589   0.700  24.739  1.00  0.00    -0.082 Cl
HETATM   38 CL3  UNL     1       1.918   2.188  22.350  1.00  0.00    -0.082 Cl
ENDBRANCH  30  35
ENDBRANCH  29  30
ENDBRANCH  26  29
ENDBRANCH  24  25
ENDBRANCH   9  24
ENDBRANCH   1   4
TORSDOF 10
ENDMDL