MODEL 1
REMARK VINA RESULT: -9.557991155      0.000      0.000
REMARK  10 active torsions:
REMARK  status: ('A' for Active; 'I' for Inactive)
REMARK    1  A    between atoms: O1_2  and  C2_3
REMARK    2  A    between atoms: C6_8  and  C7_9
REMARK    3  A    between atoms: C19_22  and  C20_23
REMARK    4  A    between atoms: C22_27  and  C23_28
REMARK    5  A    between atoms: C23_28  and  C24_29
REMARK    6  A    between atoms: C24_29  and  O3_30
REMARK    7  A    between atoms: C24_29  and  C25_32
REMARK    8  A    between atoms: C25_32  and  O4_33
REMARK    9  A    between atoms: C25_32  and  C26_35
REMARK   10  A    between atoms: C26_35  and  O5_36
ROOT
HETATM    1  C7  UNL     1       6.495   0.489  18.070  1.00  0.00     0.102 C
HETATM    2  C8  UNL     1       5.935  -0.871  17.794  1.00  0.00     0.054 C
HETATM    3  C9  UNL     1       4.771  -1.410  18.515  1.00  0.00    -0.032 C
HETATM    4  C10 UNL     1       3.535  -1.536  17.608  1.00  0.00     0.016 C
HETATM    5  C11 UNL     1       4.851  -2.591  19.362  1.00  0.00     0.008 C
HETATM    6  C12 UNL     1       5.468  -3.695  18.461  1.00  0.00     0.012 C
HETATM    7  C13 UNL     1       5.479  -2.731  20.639  1.00  0.00     0.086 C
HETATM    8 CL1  UNL     1       4.981  -4.381  21.230  1.00  0.00    -0.125 Cl
HETATM    9  C14 UNL     1       5.267  -1.865  21.808  1.00  0.00     0.021 C
HETATM   10  C15 UNL     1       5.678  -0.391  21.606  1.00  0.00     0.007 C
HETATM   11  C16 UNL     1       5.651  -0.172  20.194  1.00  0.00    -0.002 C
HETATM   12  C17 UNL     1       6.345   0.985  19.499  1.00  0.00     0.034 C
HETATM   13  C18 UNL     1       7.583   1.294  20.231  1.00  0.00     0.047 C
HETATM   14  C19 UNL     1       8.681   1.891  19.429  1.00  0.00    -0.029 C
HETATM   15  C21 UNL     1       8.836   1.329  18.234  1.00  0.00     0.141 C
HETATM   16  O2  UNL     1       7.942   0.310  17.986  1.00  0.00    -0.346 OA
HETATM   17  C22 UNL     1       4.383  -0.273  19.513  1.00  0.00     0.001 C
ENDROOT
BRANCH   1  18
HETATM   18  C6  UNL     1       6.242   1.496  17.031  1.00  0.00     0.019 A
HETATM   19  C5  UNL     1       7.098   1.909  16.049  1.00  0.00     0.016 A
HETATM   20  C4  UNL     1       6.789   2.883  15.107  1.00  0.00     0.046 A
HETATM   21  C3  UNL     1       5.571   3.482  15.138  1.00  0.00     0.152 A
HETATM   22  C2  UNL     1       4.681   3.102  16.101  1.00  0.00     0.146 A
HETATM   23  F1  UNL     1       5.290   4.438  14.202  1.00  0.00    -0.203 F
HETATM   24  C27 UNL     1       5.007   2.117  17.044  1.00  0.00     0.162 A
HETATM   25  F3  UNL     1       3.993   1.832  17.909  1.00  0.00    -0.202 F
BRANCH  22  26
HETATM   26  O1  UNL     1       3.438   3.717  16.127  1.00  0.00    -0.350 OA
HETATM   27  C1  UNL     1       2.459   3.521  15.144  1.00  0.00     0.210 C
ENDBRANCH  22  26
ENDBRANCH   1  18
BRANCH  17  28
HETATM   28  C23 UNL     1       3.072  -0.521  20.086  1.00  0.00     0.040 C
BRANCH  28  29
HETATM   29  C24 UNL     1       2.435   0.519  20.956  1.00  0.00     0.149 C
BRANCH  29  30
HETATM   30  O3  UNL     1       1.725   1.458  20.164  1.00  0.00    -0.393 OA
ATOM     31  H3  UNL     1       1.703   2.304  20.596  1.00  0.00     0.210 HD
ENDBRANCH  29  30
BRANCH  29  32
HETATM   32  C25 UNL     1       1.424  -0.126  21.918  1.00  0.00     0.170 C
BRANCH  32  33
HETATM   33  O4  UNL     1       2.158  -0.689  22.949  1.00  0.00    -0.391 OA
ATOM     34  H4  UNL     1       2.695   0.004  23.314  1.00  0.00     0.210 HD
ENDBRANCH  32  33
BRANCH  32  35
HETATM   35  C26 UNL     1       0.379   0.793  22.416  1.00  0.00     0.198 C
BRANCH  35  36
HETATM   36  O5  UNL     1      -0.624   1.012  21.435  1.00  0.00    -0.398 OA
ATOM     37  H5  UNL     1      -1.150   1.774  21.644  1.00  0.00     0.209 HD
ENDBRANCH  35  36
ENDBRANCH  32  35
ENDBRANCH  29  32
ENDBRANCH  28  29
ENDBRANCH  17  28
BRANCH  14  38
HETATM   38  C20 UNL     1       9.507   2.991  19.911  1.00  0.00     0.258 C
HETATM   39  F2  UNL     1       9.273   3.122  21.284  1.00  0.00    -0.251 F
ENDBRANCH  14  38
TORSDOF 10
ENDMDL