MODEL 3
REMARK VINA RESULT: -9.269896017      1.435      4.057
REMARK  12 active torsions:
REMARK  status: ('A' for Active; 'I' for Inactive)
REMARK    1  A    between atoms: C2_2  and  C3_3
REMARK    2  A    between atoms: C3_3  and  N1_4
REMARK       I    between atoms: N1_4  and  C4_6
REMARK    3  A    between atoms: C4_6  and  C5_8
REMARK    4  A    between atoms: C5_8  and  C6_9
REMARK    5  A    between atoms: C5_8  and  N3_26
REMARK    6  A    between atoms: C6_9  and  C7_10
REMARK    7  A    between atoms: C7_10  and  C9_12
REMARK    8  A    between atoms: C9_12  and  N2_13
REMARK    9  A    between atoms: C13_17  and  C14_18
REMARK   10  A    between atoms: C14_18  and  O2_19
REMARK       I    between atoms: N3_26  and  C20_28
REMARK   11  A    between atoms: C20_28  and  O4_30
REMARK   12  A    between atoms: O4_30  and  C21_31
ROOT
HETATM    1  C5  UNL     1       7.257  -1.064  18.310  1.00  0.00     0.179 C
ENDROOT
BRANCH   1   2
HETATM    2  C4  UNL     1       6.928  -2.519  18.278  1.00  0.00     0.240 C
HETATM    3  N1  UNL     1       5.589  -2.978  18.353  1.00  0.00    -0.359 N
ATOM      4  H1  UNL     1       4.831  -2.301  18.439  1.00  0.00     0.162 HD
HETATM    5  O1  UNL     1       7.843  -3.380  18.179  1.00  0.00    -0.271 OA
BRANCH   3   6
HETATM    6  C3  UNL     1       5.281  -4.372  18.311  1.00  0.00     0.122 C
BRANCH   6   7
HETATM    7  C2  UNL     1       4.140  -4.759  17.431  1.00  0.00     0.015 C
HETATM    8  C1  UNL     1       3.407  -3.483  17.046  1.00  0.00     0.006 C
ENDBRANCH   6   7
ENDBRANCH   3   6
ENDBRANCH   1   2
BRANCH   1   9
HETATM    9  C6  UNL     1       6.543  -0.384  19.476  1.00  0.00     0.044 C
BRANCH   9  10
HETATM   10  C7  UNL     1       7.500  -0.318  20.633  1.00  0.00     0.022 C
HETATM   11  C8  UNL     1       7.069  -1.190  21.768  1.00  0.00     0.015 C
BRANCH  10  12
HETATM   12  C9  UNL     1       7.899   1.058  21.010  1.00  0.00     0.067 C
BRANCH  12  13
HETATM   13  N2  UNL     1       9.249   1.434  20.944  1.00  0.00    -0.373 N
HETATM   14  C10 UNL     1      10.251   0.480  20.696  1.00  0.00     0.067 C
HETATM   15  C11 UNL     1      10.840   0.591  19.291  1.00  0.00     0.079 C
HETATM   16  C12 UNL     1      11.516   1.909  19.254  1.00  0.00    -0.071 C
HETATM   17  C13 UNL     1      12.663   2.035  18.654  1.00  0.00     0.040 C
HETATM   18  C18 UNL     1      10.833   3.042  19.909  1.00  0.00     0.055 C
HETATM   19  C19 UNL     1       9.406   2.629  20.195  1.00  0.00     0.131 C
BRANCH  17  20
HETATM   20  C14 UNL     1      13.460   3.238  18.523  1.00  0.00     0.067 C
HETATM   21  C15 UNL     1      14.479   3.436  19.364  1.00  0.00    -0.054 C
HETATM   22  C16 UNL     1      14.805   2.441  20.425  1.00  0.00     0.046 C
HETATM   23  C17 UNL     1      15.287   4.660  19.222  1.00  0.00     0.046 C
BRANCH  20  24
HETATM   24  O2  UNL     1      13.202   4.197  17.554  1.00  0.00    -0.360 OA
ATOM     25  H2  UNL     1      12.473   4.802  17.620  1.00  0.00     0.217 HD
ENDBRANCH  20  24
ENDBRANCH  17  20
ENDBRANCH  12  13
ENDBRANCH  10  12
ENDBRANCH   9  10
ENDBRANCH   1   9
BRANCH   1  26
HETATM   26  N3  UNL     1       7.034  -0.452  17.042  1.00  0.00    -0.324 N
HETATM   27  C20 UNL     1       7.695   0.702  16.598  1.00  0.00     0.362 C
HETATM   28  O3  UNL     1       8.538   1.281  17.312  1.00  0.00    -0.238 OA
ATOM     29  H3  UNL     1       6.350  -0.879  16.418  1.00  0.00     0.165 HD
BRANCH  27  30
HETATM   30  O4  UNL     1       7.425   1.226  15.352  1.00  0.00    -0.294 OA
BRANCH  30  31
HETATM   31  C21 UNL     1       6.176   1.684  14.925  1.00  0.00     0.061 C
HETATM   32  C22 UNL     1       5.734   2.945  15.627  1.00  0.00     0.046 C
HETATM   33  C23 UNL     1       5.164   0.595  15.274  1.00  0.00     0.046 C
HETATM   34  C24 UNL     1       6.105   1.937  13.450  1.00  0.00     0.046 C
ENDBRANCH  30  31
ENDBRANCH  27  30
ENDBRANCH   1  26
TORSDOF 12
ENDMDL