MODEL 4
REMARK VINA RESULT: -7.908933417      2.584      6.479
REMARK  11 active torsions:
REMARK  status: ('A' for Active; 'I' for Inactive)
REMARK    1  A    between atoms: N1_2  and  C2_3
REMARK    2  A    between atoms: N1_2  and  C7_12
REMARK    3  A    between atoms: C2_3  and  C3_4
REMARK    4  A    between atoms: C3_4  and  C4_5
REMARK    5  A    between atoms: C4_5  and  C5_6
REMARK    6  A    between atoms: C5_6  and  C6_7
REMARK    7  A    between atoms: C6_7  and  N2_8
REMARK    8  A    between atoms: C7_12  and  C8_13
REMARK    9  A    between atoms: C8_13  and  N3_14
REMARK   10  A    between atoms: C12_18  and  O1_19
REMARK   11  A    between atoms: C19_27  and  O2_28
ROOT
HETATM    1  N3  UNL     1       5.084  -1.726  18.213  1.00  0.00    -0.375 N
HETATM    2  C9  UNL     1       5.103  -3.096  18.572  1.00  0.00     0.091 C
HETATM    3  C10 UNL     1       4.247  -3.906  17.639  1.00  0.00     0.028 C
HETATM    4  C11 UNL     1       3.068  -3.156  17.106  1.00  0.00     0.036 C
HETATM    5  C12 UNL     1       2.642  -2.027  18.011  1.00  0.00     0.146 C
HETATM    6  C13 UNL     1       3.819  -1.088  18.196  1.00  0.00     0.054 C
HETATM    7  C14 UNL     1       3.629  -0.035  17.120  1.00  0.00     0.041 C
HETATM    8  C15 UNL     1       3.688  -0.341  19.502  1.00  0.00     0.034 C
HETATM    9  C16 UNL     1       3.568  -1.258  20.693  1.00  0.00     0.008 C
HETATM   10  C17 UNL     1       4.793  -2.117  20.892  1.00  0.00     0.003 C
HETATM   11  C18 UNL     1       4.767  -3.369  20.023  1.00  0.00     0.042 C
HETATM   12  C19 UNL     1       5.811  -4.356  20.530  1.00  0.00     0.125 C
HETATM   13  C20 UNL     1       5.586  -4.826  21.918  1.00  0.00     0.037 C
HETATM   14  C21 UNL     1       4.864  -3.824  22.761  1.00  0.00    -0.004 C
HETATM   15  C22 UNL     1       3.436  -4.150  23.002  1.00  0.00     0.005 C
HETATM   16  C23 UNL     1       2.992  -3.330  24.223  1.00  0.00     0.000 C
HETATM   17  C24 UNL     1       3.123  -1.885  23.792  1.00  0.00     0.001 C
HETATM   18  C25 UNL     1       4.495  -1.532  23.353  1.00  0.00     0.010 C
HETATM   19  C26 UNL     1       5.118  -2.393  22.310  1.00  0.00    -0.036 C
HETATM   20  C27 UNL     1       6.642  -2.205  22.469  1.00  0.00     0.016 C
ENDROOT
BRANCH   1  21
HETATM   21  C8  UNL     1       6.109  -1.235  17.418  1.00  0.00     0.089 C
BRANCH  21  22
HETATM   22  C7  UNL     1       7.254  -0.501  18.012  1.00  0.00     0.316 C
BRANCH  22  23
HETATM   23  N1  UNL     1       7.852   0.444  17.102  1.00  0.00     0.088 N
HETATM   24  C1  UNL     1       8.913   1.151  17.822  1.00  0.00     0.310 C
BRANCH  23  25
HETATM   25  C2  UNL     1       6.910   1.414  16.576  1.00  0.00     0.272 C
BRANCH  25  26
HETATM   26  C3  UNL     1       6.918   1.502  15.093  1.00  0.00     0.030 C
BRANCH  26  27
HETATM   27  C4  UNL     1       5.586   1.937  14.493  1.00  0.00     0.003 C
BRANCH  27  28
HETATM   28  C5  UNL     1       4.863   2.906  15.402  1.00  0.00     0.027 C
BRANCH  28  29
HETATM   29  C6  UNL     1       4.443   4.173  14.731  1.00  0.00     0.229 C
BRANCH  29  30
HETATM   30  N2  UNL     1       4.828   4.183  13.334  1.00  0.00    -0.079 N
ATOM     31  H23 UNL     1       5.578   3.517  13.148  1.00  0.00     0.274 HD
ATOM     32  H22 UNL     1       4.104   3.774  12.744  1.00  0.00     0.274 HD
ATOM     33  H21 UNL     1       5.077   5.123  13.023  1.00  0.00     0.274 HD
ENDBRANCH  29  30
ENDBRANCH  28  29
ENDBRANCH  27  28
ENDBRANCH  26  27
ENDBRANCH  25  26
ENDBRANCH  23  25
ENDBRANCH  22  23
ENDBRANCH  21  22
ENDBRANCH   1  21
BRANCH   5  34
HETATM   34  O1  UNL     1       1.564  -1.379  17.364  1.00  0.00    -0.393 OA
ATOM     35  H1  UNL     1       1.319  -1.930  16.631  1.00  0.00     0.210 HD
ENDBRANCH   5  34
BRANCH  12  36
HETATM   36  O2  UNL     1       5.796  -5.471  19.690  1.00  0.00    -0.395 OA
ATOM     37  H2  UNL     1       6.307  -6.157  20.103  1.00  0.00     0.210 HD
ENDBRANCH  12  36
TORSDOF 11
ENDMDL