MODEL 2
REMARK VINA RESULT: -8.707538609      1.328      2.345
REMARK  10 active torsions:
REMARK  status: ('A' for Active; 'I' for Inactive)
REMARK    1  A    between atoms: S1_2  and  C2_3
REMARK    2  A    between atoms: C2_3  and  C3_4
REMARK    3  A    between atoms: C3_4  and  C4_5
REMARK    4  A    between atoms: C4_5  and  N1_6
REMARK    5  A    between atoms: C4_5  and  C13_20
REMARK       I    between atoms: N1_6  and  C5_8
REMARK    6  A    between atoms: C5_8  and  C6_10
REMARK    7  A    between atoms: C6_10  and  N2_11
REMARK    8  A    between atoms: C6_10  and  C9_16
REMARK       I    between atoms: N2_11  and  C7_13
REMARK    9  A    between atoms: C13_20  and  N3_22
REMARK   10  A    between atoms: N3_22  and  C14_24
ROOT
HETATM    1  C4  UNL     1       8.304   0.852  18.642  1.00  0.00     0.146 C
ENDROOT
BRANCH   1   2
HETATM    2  C3  UNL     1       8.107   0.907  17.137  1.00  0.00     0.042 C
BRANCH   2   3
HETATM    3  C2  UNL     1       6.899   1.713  16.735  1.00  0.00     0.076 C
BRANCH   3   4
HETATM    4  S1  UNL     1       7.008   1.997  14.948  1.00  0.00    -0.173 SA
HETATM    5  C1  UNL     1       5.444   2.680  14.335  1.00  0.00     0.089 C
ENDBRANCH   3   4
ENDBRANCH   2   3
ENDBRANCH   1   2
BRANCH   1   6
HETATM    6  N1  UNL     1       9.702   0.880  19.000  1.00  0.00    -0.348 N
HETATM    7  C5  UNL     1      10.223   1.876  19.849  1.00  0.00     0.241 C
HETATM    8  O1  UNL     1       9.349   2.734  20.263  1.00  0.00    -0.271 OA
ATOM      9  H1  UNL     1      10.325   0.162  18.631  1.00  0.00     0.163 HD
BRANCH   7  10
HETATM   10  C6  UNL     1      11.619   2.048  20.300  1.00  0.00     0.184 C
BRANCH  10  11
HETATM   11  N2  UNL     1      12.052   3.432  20.013  1.00  0.00    -0.347 N
HETATM   12  C7  UNL     1      12.521   3.792  18.726  1.00  0.00     0.214 C
HETATM   13  C8  UNL     1      12.957   5.170  18.422  1.00  0.00     0.117 C
HETATM   14  O2  UNL     1      12.562   2.925  17.838  1.00  0.00    -0.274 OA
ATOM     15  H2  UNL     1      12.013   4.136  20.751  1.00  0.00     0.163 HD
ENDBRANCH  10  11
BRANCH  10  16
HETATM   16  C9  UNL     1      11.917   1.695  21.707  1.00  0.00    -0.022 C
HETATM   17  C10 UNL     1      11.413   0.359  22.096  1.00  0.00     0.017 C
HETATM   18  C11 UNL     1      11.359   2.698  22.700  1.00  0.00     0.017 C
HETATM   19  C12 UNL     1      13.448   1.688  21.845  1.00  0.00     0.017 C
ENDBRANCH  10  16
ENDBRANCH   7  10
ENDBRANCH   1   6
BRANCH   1  20
HETATM   20  C13 UNL     1       7.589  -0.286  19.234  1.00  0.00     0.096 C
HETATM   21  S2  UNL     1       7.195  -0.243  20.804  1.00  0.00    -0.063 SA
BRANCH  20  22
HETATM   22  N3  UNL     1       7.287  -1.411  18.442  1.00  0.00    -0.378 N
ATOM     23  H3  UNL     1       8.029  -1.853  17.900  1.00  0.00     0.160 HD
BRANCH  22  24
HETATM   24  C14 UNL     1       5.967  -1.946  18.380  1.00  0.00     0.086 C
HETATM   25  C15 UNL     1       5.969  -3.434  18.044  1.00  0.00     0.034 C
HETATM   26  C16 UNL     1       4.574  -3.946  18.323  1.00  0.00    -0.046 C
HETATM   27  C17 UNL     1       4.520  -4.739  19.631  1.00  0.00     0.015 C
HETATM   28  C18 UNL     1       4.101  -4.891  17.240  1.00  0.00     0.015 C
HETATM   29  C19 UNL     1       3.556  -2.841  18.452  1.00  0.00     0.009 C
HETATM   30  C20 UNL     1       3.733  -1.758  17.428  1.00  0.00     0.007 C
HETATM   31  C21 UNL     1       5.151  -1.303  17.261  1.00  0.00     0.004 C
HETATM   32  C22 UNL     1       5.724  -1.659  15.902  1.00  0.00     0.012 C
ENDBRANCH  22  24
ENDBRANCH  20  22
ENDBRANCH   1  20
TORSDOF 10
ENDMDL