MODEL 4
REMARK VINA RESULT: -9.767963117      2.431      8.229
REMARK  12 active torsions:
REMARK  status: ('A' for Active; 'I' for Inactive)
REMARK    1  A    between atoms: C11_11  and  C12_12
REMARK    2  A    between atoms: C12_12  and  C13_13
REMARK    3  A    between atoms: C13_13  and  C14_14
REMARK    4  A    between atoms: C14_14  and  O1_15
REMARK    5  A    between atoms: C14_14  and  N1_17
REMARK    6  A    between atoms: N1_17  and  C15_19
REMARK    7  A    between atoms: C15_19  and  C16_20
REMARK    8  A    between atoms: C16_20  and  C17_21
REMARK    9  A    between atoms: C17_21  and  C18_22
REMARK   10  A    between atoms: C18_22  and  C19_23
REMARK   11  A    between atoms: C19_23  and  C20_24
REMARK   12  A    between atoms: C26_33  and  O5_34
ROOT
HETATM    1  C1  UNL     1      15.624   4.954  18.210  1.00  0.00     0.014 C
HETATM    2  C2  UNL     1      14.626   4.272  18.703  1.00  0.00    -0.084 C
HETATM    3  C3  UNL     1      14.393   3.928  20.118  1.00  0.00     0.041 C
HETATM    4  C4  UNL     1      13.874   2.485  20.005  1.00  0.00     0.024 C
HETATM    5  C5  UNL     1      13.270   2.306  18.681  1.00  0.00     0.005 C
HETATM    6  C6  UNL     1      13.467   3.662  17.982  1.00  0.00     0.019 C
HETATM    7  C7  UNL     1      12.244   4.462  18.332  1.00  0.00     0.010 C
HETATM    8  C8  UNL     1      11.149   3.382  18.344  1.00  0.00     0.006 C
HETATM    9  C9  UNL     1      11.789   2.089  18.627  1.00  0.00    -0.003 C
HETATM   10  C10 UNL     1      11.299   1.269  19.768  1.00  0.00     0.015 C
HETATM   11  C11 UNL     1       9.872   0.831  19.700  1.00  0.00     0.083 C
HETATM   12  C21 UNL     1       8.955   1.755  20.473  1.00  0.00     0.135 C
HETATM   13  O4  UNL     1       7.853   1.961  19.995  1.00  0.00    -0.297 OA
HETATM   14  C22 UNL     1       9.395   2.362  21.734  1.00  0.00     0.080 C
HETATM   15  C23 UNL     1      10.811   2.816  21.713  1.00  0.00     0.019 C
HETATM   16  C24 UNL     1      11.700   1.753  21.117  1.00  0.00    -0.012 C
HETATM   17  C25 UNL     1      11.492   0.551  22.067  1.00  0.00     0.018 C
HETATM   18  C26 UNL     1      13.150   2.090  21.217  1.00  0.00     0.131 C
ENDROOT
BRANCH  11  19
HETATM   19  C12 UNL     1       9.406   0.624  18.340  1.00  0.00    -0.010 C
BRANCH  19  20
HETATM   20  C13 UNL     1       8.263   0.751  17.769  1.00  0.00     0.052 C
BRANCH  20  21
HETATM   21  C14 UNL     1       7.775   0.732  16.438  1.00  0.00     0.135 C
BRANCH  21  22
HETATM   22  O1  UNL     1       8.159   1.751  15.699  1.00  0.00    -0.346 OA
ATOM     23  H1  UNL     1       7.680   2.556  15.856  1.00  0.00     0.219 HD
ENDBRANCH  21  22
BRANCH  21  24
HETATM   24  N1  UNL     1       6.960  -0.153  15.723  1.00  0.00    -0.371 N
ATOM     25  H1  UNL     1       7.071  -0.197  14.710  1.00  0.00     0.161 HD
BRANCH  24  26
HETATM   26  C15 UNL     1       5.965  -1.013  16.343  1.00  0.00     0.121 C
BRANCH  26  27
HETATM   27  C16 UNL     1       4.548  -0.564  16.143  1.00  0.00     0.020 C
BRANCH  27  28
HETATM   28  C17 UNL     1       4.138   0.526  17.078  1.00  0.00     0.002 C
BRANCH  28  29
HETATM   29  C18 UNL     1       3.692   1.727  16.302  1.00  0.00     0.010 C
BRANCH  29  30
HETATM   30  C19 UNL     1       4.726   2.778  16.085  1.00  0.00     0.113 C
BRANCH  30  31
HETATM   31  C20 UNL     1       5.013   2.923  14.617  1.00  0.00     0.172 C
HETATM   32  O2  UNL     1       5.792   2.191  13.992  1.00  0.00    -0.648 OA
HETATM   33  O3  UNL     1       4.360   3.942  13.920  1.00  0.00    -0.648 OA
ENDBRANCH  30  31
ENDBRANCH  29  30
ENDBRANCH  28  29
ENDBRANCH  27  28
ENDBRANCH  26  27
ENDBRANCH  24  26
ENDBRANCH  21  24
ENDBRANCH  20  21
ENDBRANCH  19  20
ENDBRANCH  11  19
BRANCH  18  34
HETATM   34  O5  UNL     1      13.226   3.166  22.138  1.00  0.00    -0.394 OA
ATOM     35  H5  UNL     1      14.104   3.178  22.498  1.00  0.00     0.210 HD
ENDBRANCH  18  34
TORSDOF 12
ENDMDL