MODEL 1
REMARK VINA RESULT: -10.023948988      0.000      0.000
REMARK  11 active torsions:
REMARK  status: ('A' for Active; 'I' for Inactive)
REMARK    1  A    between atoms: C2_2  and  C3_3
REMARK    2  A    between atoms: C4_4  and  C5_5
REMARK    3  A    between atoms: C11_11  and  O1_12
REMARK    4  A    between atoms: C12_14  and  N1_15
REMARK       I    between atoms: N1_15  and  C13_17
REMARK       I    between atoms: C13_17  and  N2_19
REMARK    5  A    between atoms: N2_19  and  C14_21
REMARK    6  A    between atoms: C14_21  and  C15_22
REMARK    7  A    between atoms: C15_22  and  C16_23
REMARK    8  A    between atoms: C16_23  and  C17_24
REMARK    9  A    between atoms: C17_24  and  N3_25
REMARK       I    between atoms: N3_25  and  C19_27
REMARK   10  A    between atoms: C19_27  and  O4_29
REMARK   11  A    between atoms: O4_29  and  C20_30
ROOT
HETATM    1  C5  UNL     1       5.073   0.902  16.791  1.00  0.00     0.024 C
HETATM    2  C6  UNL     1       5.062  -0.585  17.209  1.00  0.00     0.004 C
HETATM    3  C7  UNL     1       5.581  -1.216  15.930  1.00  0.00     0.007 C
HETATM    4  C8  UNL     1       6.623  -0.271  15.378  1.00  0.00     0.013 C
HETATM    5  C9  UNL     1       6.421   0.990  16.197  1.00  0.00    -0.009 C
HETATM    6  C10 UNL     1       6.723   2.240  15.418  1.00  0.00     0.018 C
HETATM    7  C11 UNL     1       7.425   0.940  17.326  1.00  0.00     0.150 C
HETATM    8  C12 UNL     1       7.300  -0.178  18.274  1.00  0.00     0.123 C
HETATM    9  C22 UNL     1       5.940  -0.795  18.384  1.00  0.00    -0.020 C
HETATM   10  C23 UNL     1       6.063  -2.307  18.598  1.00  0.00     0.017 C
HETATM   11  C24 UNL     1       5.223  -0.261  19.607  1.00  0.00     0.017 C
ENDROOT
BRANCH   8  12
HETATM   12  N1  UNL     1       7.771   0.169  19.599  1.00  0.00    -0.335 N
HETATM   13  C13 UNL     1       9.145   0.053  19.991  1.00  0.00     0.316 C
HETATM   14  O2  UNL     1       9.936  -0.378  19.096  1.00  0.00    -0.247 OA
HETATM   15  N2  UNL     1       9.584   0.397  21.290  1.00  0.00    -0.343 N
ATOM     16  H2  UNL     1       8.916   0.739  21.981  1.00  0.00     0.164 HD
ATOM     17  H1  UNL     1       7.096   0.510  20.282  1.00  0.00     0.164 HD
BRANCH  15  18
HETATM   18  C14 UNL     1      10.958   0.265  21.634  1.00  0.00     0.124 C
BRANCH  18  19
HETATM   19  C15 UNL     1      11.455   1.391  22.526  1.00  0.00     0.021 C
BRANCH  19  20
HETATM   20  C16 UNL     1      12.278   2.383  21.797  1.00  0.00     0.022 C
BRANCH  20  21
HETATM   21  C17 UNL     1      12.261   2.137  20.324  1.00  0.00     0.127 C
BRANCH  21  22
HETATM   22  N3  UNL     1      13.328   2.701  19.569  1.00  0.00    -0.332 N
HETATM   23  C18 UNL     1      14.690   2.685  20.114  1.00  0.00     0.155 C
HETATM   24  C19 UNL     1      13.105   3.278  18.306  1.00  0.00     0.362 C
HETATM   25  O3  UNL     1      11.979   3.364  17.772  1.00  0.00    -0.238 OA
BRANCH  24  26
HETATM   26  O4  UNL     1      14.172   3.785  17.592  1.00  0.00    -0.304 OA
BRANCH  26  27
HETATM   27  C20 UNL     1      14.428   5.177  17.500  1.00  0.00     0.176 C
HETATM   28  C21 UNL     1      15.485   5.641  18.453  1.00  0.00     0.034 C
ENDBRANCH  26  27
ENDBRANCH  24  26
ENDBRANCH  21  22
ENDBRANCH  20  21
ENDBRANCH  19  20
ENDBRANCH  18  19
ENDBRANCH  15  18
ENDBRANCH   8  12
BRANCH   7  29
HETATM   29  O1  UNL     1       8.695   1.045  16.741  1.00  0.00    -0.393 OA
ATOM     30  H1  UNL     1       8.685   1.827  16.203  1.00  0.00     0.210 HD
ENDBRANCH   7  29
BRANCH   1  31
HETATM   31  C4  UNL     1       3.913   1.061  15.922  1.00  0.00    -0.021 C
HETATM   32  C3  UNL     1       2.909   1.868  15.994  1.00  0.00    -0.004 C
BRANCH  32  33
HETATM   33  C2  UNL     1       1.861   1.835  14.991  1.00  0.00    -0.011 C
HETATM   34  C1  UNL     1       1.842   2.761  14.054  1.00  0.00     0.011 C
ENDBRANCH  32  33
ENDBRANCH   1  31
TORSDOF 11
ENDMDL