MODEL 1
REMARK VINA RESULT: -9.135374396      0.000      0.000
REMARK  11 active torsions:
REMARK  status: ('A' for Active; 'I' for Inactive)
REMARK    1  A    between atoms: C2_2  and  C3_3
REMARK    2  A    between atoms: C2_2  and  C26_32
REMARK    3  A    between atoms: C3_3  and  C4_4
REMARK    4  A    between atoms: C4_4  and  C5_5
REMARK    5  A    between atoms: C5_5  and  C6_6
REMARK    6  A    between atoms: C6_6  and  C8_8
REMARK    7  A    between atoms: C11_11  and  C12_12
REMARK    8  A    between atoms: C15_15  and  O1_16
REMARK    9  A    between atoms: C20_22  and  O2_23
REMARK   10  A    between atoms: C24_28  and  C25_29
REMARK   11  A    between atoms: C25_29  and  O3_30
ROOT
HETATM    1  C8  UNL     1       7.856   0.196  19.106  1.00  0.00     0.000 C
HETATM    2  C9  UNL     1       7.293   1.519  19.419  1.00  0.00     0.006 C
HETATM    3  C10 UNL     1       6.814   2.122  18.089  1.00  0.00     0.006 C
HETATM    4  C11 UNL     1       6.106   1.067  17.283  1.00  0.00    -0.005 C
HETATM    5  C18 UNL     1       5.645  -0.139  18.076  1.00  0.00     0.008 C
HETATM    6  C19 UNL     1       4.875  -1.050  17.202  1.00  0.00     0.026 A
HETATM    7  C20 UNL     1       5.436  -1.662  15.954  1.00  0.00     0.127 A
HETATM    8  C21 UNL     1       5.136  -2.458  17.141  1.00  0.00     0.022 A
HETATM    9  C22 UNL     1       6.280  -3.025  17.894  1.00  0.00     0.008 C
HETATM   10  C23 UNL     1       7.279  -2.043  18.387  1.00  0.00     0.013 C
HETATM   11  C24 UNL     1       6.697  -0.767  18.951  1.00  0.00    -0.011 C
ENDROOT
BRANCH   1  12
HETATM   12  C6  UNL     1       9.091  -0.251  19.730  1.00  0.00    -0.014 C
HETATM   13  C7  UNL     1       9.261   0.318  21.169  1.00  0.00     0.010 C
BRANCH  12  14
HETATM   14  C5  UNL     1      10.332   0.057  18.960  1.00  0.00     0.005 C
BRANCH  14  15
HETATM   15  C4  UNL     1      10.594   1.392  18.430  1.00  0.00     0.001 C
BRANCH  15  16
HETATM   16  C3  UNL     1      12.121   1.636  18.544  1.00  0.00     0.015 C
BRANCH  16  17
HETATM   17  C2  UNL     1      12.450   2.980  19.076  1.00  0.00     0.083 C
HETATM   18  C1  UNL     1      11.138   3.681  19.493  1.00  0.00     0.021 C
BRANCH  17  19
HETATM   19  C26 UNL     1      13.058   3.904  18.091  1.00  0.00     0.176 C
HETATM   20  O4  UNL     1      13.969   3.553  17.338  1.00  0.00    -0.648 OA
HETATM   21  O5  UNL     1      12.520   5.207  18.077  1.00  0.00    -0.648 OA
ENDBRANCH  17  19
ENDBRANCH  16  17
ENDBRANCH  15  16
ENDBRANCH  14  15
ENDBRANCH  12  14
ENDBRANCH   1  12
BRANCH  11  22
HETATM   22  C25 UNL     1       6.140  -1.123  20.306  1.00  0.00     0.174 C
BRANCH  22  23
HETATM   23  O3  UNL     1       4.841  -0.567  20.473  1.00  0.00    -0.400 OA
ATOM     24  H3  UNL     1       4.489  -0.792  21.326  1.00  0.00     0.209 HD
ENDBRANCH  22  23
ENDBRANCH  11  22
BRANCH   4  25
HETATM   25  C12 UNL     1       4.951   1.633  16.539  1.00  0.00    -0.004 C
HETATM   26  C13 UNL     1       4.452   2.959  16.977  1.00  0.00     0.008 C
HETATM   27  C14 UNL     1       3.421   3.286  15.888  1.00  0.00     0.032 C
HETATM   28  C15 UNL     1       3.688   2.311  14.747  1.00  0.00     0.122 C
HETATM   29  C16 UNL     1       5.103   1.786  15.073  1.00  0.00     0.015 C
HETATM   30  C17 UNL     1       6.033   2.830  14.577  1.00  0.00     0.013 C
BRANCH  28  31
HETATM   31  O1  UNL     1       3.689   2.940  13.529  1.00  0.00    -0.395 OA
ATOM     32  H1  UNL     1       3.522   3.872  13.613  1.00  0.00     0.210 HD
ENDBRANCH  28  31
ENDBRANCH   4  25
BRANCH   7  33
HETATM   33  O2  UNL     1       6.757  -1.535  15.589  1.00  0.00    -0.395 OA
ATOM     34  H2  UNL     1       7.342  -2.279  15.499  1.00  0.00     0.210 HD
ENDBRANCH   7  33
TORSDOF 11
ENDMDL