MODEL 4
REMARK VINA RESULT: -8.573691221      2.912      5.473
REMARK  9 active torsions:
REMARK  status: ('A' for Active; 'I' for Inactive)
REMARK    1  A    between atoms: C2_2  and  C3_3
REMARK    2  A    between atoms: C3_3  and  C4_4
REMARK    3  A    between atoms: C19_20  and  C20_21
REMARK    4  A    between atoms: C21_24  and  C22_25
REMARK       I    between atoms: C22_25  and  N1_27
REMARK    5  A    between atoms: N1_27  and  C23_29
REMARK    6  A    between atoms: C23_29  and  C24_30
REMARK    7  A    between atoms: C24_30  and  C25_31
REMARK    8  A    between atoms: C25_31  and  C26_32
REMARK    9  A    between atoms: C26_32  and  N2_33
ROOT
HETATM    1  C4  UNL     1       3.696   0.228  22.966  1.00  0.00    -0.040 C
HETATM    2  C5  UNL     1       4.853   1.018  23.483  1.00  0.00     0.015 C
HETATM    3  C6  UNL     1       3.505  -1.098  23.638  1.00  0.00     0.010 C
HETATM    4  C7  UNL     1       2.721  -1.925  22.634  1.00  0.00     0.006 C
HETATM    5  C8  UNL     1       2.871  -1.219  21.306  1.00  0.00     0.002 C
HETATM    6  C9  UNL     1       3.863  -0.137  21.491  1.00  0.00    -0.001 C
HETATM    7  C10 UNL     1       5.172  -0.760  21.189  1.00  0.00     0.017 C
HETATM    8  C11 UNL     1       4.961  -1.921  20.234  1.00  0.00    -0.015 C
HETATM    9  C12 UNL     1       5.679  -3.094  20.846  1.00  0.00     0.017 C
HETATM   10  C13 UNL     1       3.473  -2.086  20.251  1.00  0.00     0.069 C
HETATM   11  C14 UNL     1       3.073  -1.598  18.927  1.00  0.00     0.137 C
HETATM   12  O1  UNL     1       1.990  -1.759  18.404  1.00  0.00    -0.297 OA
HETATM   13  C15 UNL     1       4.195  -0.860  18.288  1.00  0.00     0.075 C
HETATM   14  C16 UNL     1       4.088  -0.751  16.824  1.00  0.00     0.013 C
HETATM   15  C17 UNL     1       5.279  -1.116  16.019  1.00  0.00     0.002 C
HETATM   16  C18 UNL     1       6.275  -1.994  16.646  1.00  0.00     0.017 C
HETATM   17  C19 UNL     1       5.812  -2.649  17.944  1.00  0.00     0.106 C
HETATM   18  C21 UNL     1       5.389  -1.567  18.847  1.00  0.00     0.072 C
ENDROOT
BRANCH  18  19
HETATM   19  C22 UNL     1       6.509  -0.567  18.854  1.00  0.00     0.228 C
HETATM   20  O4  UNL     1       6.297   0.657  18.701  1.00  0.00    -0.273 OA
HETATM   21  N1  UNL     1       7.870  -0.986  19.041  1.00  0.00    -0.360 N
ATOM     22  H1  UNL     1       8.079  -1.976  19.169  1.00  0.00     0.162 HD
BRANCH  21  23
HETATM   23  C23 UNL     1       8.943  -0.027  19.048  1.00  0.00     0.122 C
BRANCH  23  24
HETATM   24  C24 UNL     1       9.464   0.179  20.426  1.00  0.00     0.021 C
BRANCH  24  25
HETATM   25  C25 UNL     1      10.675   1.046  20.506  1.00  0.00     0.029 C
BRANCH  25  26
HETATM   26  C26 UNL     1      10.466   2.233  21.412  1.00  0.00     0.229 C
BRANCH  26  27
HETATM   27  N2  UNL     1       9.333   3.006  20.937  1.00  0.00    -0.079 N
ATOM     28  H23 UNL     1       9.213   2.935  19.927  1.00  0.00     0.274 HD
ATOM     29  H22 UNL     1       8.441   2.597  21.217  1.00  0.00     0.274 HD
ATOM     30  H21 UNL     1       9.429   3.973  21.248  1.00  0.00     0.274 HD
ENDBRANCH  26  27
ENDBRANCH  25  26
ENDBRANCH  24  25
ENDBRANCH  23  24
ENDBRANCH  21  23
ENDBRANCH  18  19
BRANCH  17  31
HETATM   31  C20 UNL     1       4.905  -3.722  17.605  1.00  0.00     0.178 C
HETATM   32  O2  UNL     1       4.757  -4.726  18.376  1.00  0.00    -0.648 OA
HETATM   33  O3  UNL     1       4.115  -3.815  16.470  1.00  0.00    -0.648 OA
ENDBRANCH  17  31
BRANCH   1  34
HETATM   34  C3  UNL     1       2.442   1.086  23.026  1.00  0.00     0.009 C
BRANCH  34  35
HETATM   35  C2  UNL     1       2.692   2.402  23.712  1.00  0.00    -0.004 C
HETATM   36  C1  UNL     1       1.358   3.109  23.832  1.00  0.00     0.005 C
ENDBRANCH  34  35
ENDBRANCH   1  34
TORSDOF 9
ENDMDL