MODEL 5
REMARK VINA RESULT: -9.328940259      1.231      1.497
REMARK  7 active torsions:
REMARK  status: ('A' for Active; 'I' for Inactive)
REMARK    1  A    between atoms: N1_2  and  C2_5
REMARK    2  A    between atoms: C2_5  and  C4_7
REMARK       I    between atoms: C4_7  and  N2_9
REMARK    3  A    between atoms: N2_9  and  C5_11
REMARK    4  A    between atoms: C5_11  and  C7_13
REMARK    5  A    between atoms: C7_13  and  C8_14
REMARK    6  A    between atoms: C8_14  and  C9_15
REMARK    7  A    between atoms: C21_27  and  C22_28
ROOT
HETATM    1  C8  UNL     1       5.908  -1.496  19.330  1.00  0.00    -0.017 C
HETATM    2  C13 UNL     1       6.585  -1.861  18.075  1.00  0.00     0.014 C
HETATM    3  C14 UNL     1       7.744  -0.878  17.830  1.00  0.00     0.006 C
HETATM    4  C15 UNL     1       7.305   0.334  18.618  1.00  0.00    -0.004 C
HETATM    5  C16 UNL     1       6.740  -0.311  19.824  1.00  0.00     0.002 C
HETATM    6  C17 UNL     1       7.849  -0.695  20.748  1.00  0.00     0.007 C
HETATM    7  C18 UNL     1       8.794   0.400  21.117  1.00  0.00     0.011 C
HETATM    8  C19 UNL     1       9.086   1.408  20.083  1.00  0.00    -0.019 C
HETATM    9  C20 UNL     1       9.038   2.818  20.714  1.00  0.00     0.017 C
HETATM   10  C21 UNL     1      10.567   1.301  19.662  1.00  0.00     0.164 C
HETATM   11  C23 UNL     1      10.561   1.893  18.294  1.00  0.00     0.142 C
HETATM   12  O4  UNL     1      11.385   2.657  17.845  1.00  0.00    -0.297 OA
HETATM   13  C24 UNL     1       9.344   1.328  17.654  1.00  0.00     0.085 C
HETATM   14  C25 UNL     1       8.346   1.371  18.819  1.00  0.00     0.006 C
ENDROOT
BRANCH   1  15
HETATM   15  C7  UNL     1       4.489  -1.085  19.293  1.00  0.00     0.038 C
BRANCH  15  16
HETATM   16  C5  UNL     1       3.617  -1.173  18.123  1.00  0.00     0.081 C
HETATM   17  C6  UNL     1       2.132  -1.339  18.409  1.00  0.00     0.032 C
BRANCH  16  18
HETATM   18  N2  UNL     1       3.620   0.178  17.474  1.00  0.00    -0.355 N
HETATM   19  C4  UNL     1       4.247   0.430  16.268  1.00  0.00     0.248 C
HETATM   20  O1  UNL     1       4.852  -0.495  15.663  1.00  0.00    -0.271 OA
ATOM     21  H2  UNL     1       3.137   0.945  17.943  1.00  0.00     0.162 HD
BRANCH  19  22
HETATM   22  C2  UNL     1       4.203   1.798  15.692  1.00  0.00     0.272 C
HETATM   23  C3  UNL     1       4.810   2.723  16.750  1.00  0.00     0.050 C
BRANCH  22  24
HETATM   24  N1  UNL     1       5.089   1.879  14.542  1.00  0.00    -0.067 N
HETATM   25  C1  UNL     1       6.277   2.639  14.829  1.00  0.00     0.267 C
ATOM     26  H12 UNL     1       4.603   2.247  13.726  1.00  0.00     0.277 HD
ATOM     27  H11 UNL     1       5.320   0.950  14.188  1.00  0.00     0.277 HD
ENDBRANCH  22  24
ENDBRANCH  19  22
ENDBRANCH  16  18
ENDBRANCH  15  16
ENDBRANCH   1  15
BRANCH   1  28
HETATM   28  C9  UNL     1       6.026  -2.583  20.398  1.00  0.00    -0.015 C
HETATM   29  C10 UNL     1       5.487  -3.909  20.236  1.00  0.00    -0.091 C
HETATM   30  C11 UNL     1       5.979  -4.743  19.058  1.00  0.00     0.042 C
HETATM   31  C12 UNL     1       4.042  -4.210  20.403  1.00  0.00     0.042 C
ENDBRANCH   1  28
BRANCH  10  32
HETATM   32  C22 UNL     1      11.452   2.005  20.580  1.00  0.00     0.185 C
HETATM   33  O2  UNL     1      12.033   1.385  21.496  1.00  0.00    -0.647 OA
HETATM   34  O3  UNL     1      11.657   3.360  20.453  1.00  0.00    -0.647 OA
ENDBRANCH  10  32
TORSDOF 7
ENDMDL