MODEL 1
REMARK VINA RESULT: -10.548739398      0.000      0.000
REMARK  9 active torsions:
REMARK  status: ('A' for Active; 'I' for Inactive)
REMARK    1  A    between atoms: C2_2  and  O1_3
REMARK    2  A    between atoms: C3_5  and  C4_6
REMARK    3  A    between atoms: C4_6  and  C5_7
REMARK    4  A    between atoms: C5_7  and  C6_8
REMARK    5  A    between atoms: C8_10  and  C9_11
REMARK    6  A    between atoms: C10_12  and  C11_13
REMARK    7  A    between atoms: C12_14  and  C13_15
REMARK    8  A    between atoms: C13_15  and  C14_16
REMARK    9  A    between atoms: C20_26  and  C21_27
ROOT
HETATM    1  C14 UNL     1       7.662   0.118  17.316  1.00  0.00     0.151 C
HETATM    2  C15 UNL     1       7.249  -1.102  18.091  1.00  0.00     0.231 C
HETATM    3  O2  UNL     1       8.204  -1.715  18.639  1.00  0.00    -0.273 OA
HETATM    4  N1  UNL     1       6.024  -1.776  18.381  1.00  0.00    -0.333 N
ATOM      5  H1  UNL     1       6.087  -2.611  18.962  1.00  0.00     0.165 HD
HETATM    6  C16 UNL     1       4.739  -1.403  17.947  1.00  0.00     0.238 C
HETATM    7  O3  UNL     1       4.584  -0.068  18.432  1.00  0.00    -0.359 OA
HETATM    8  C17 UNL     1       4.109   0.674  17.405  1.00  0.00     0.139 C
HETATM    9  C18 UNL     1       3.043  -0.144  16.726  1.00  0.00     0.034 C
HETATM   10  C19 UNL     1       2.427  -1.206  17.642  1.00  0.00     0.022 C
HETATM   11  C20 UNL     1       3.513  -2.045  18.361  1.00  0.00     0.135 C
HETATM   12  C22 UNL     1       5.165   1.268  16.599  1.00  0.00     0.040 C
HETATM   13  C23 UNL     1       5.169   2.784  16.918  1.00  0.00     0.026 C
HETATM   14  C24 UNL     1       4.648   1.269  15.146  1.00  0.00     0.026 C
HETATM   15  C25 UNL     1       6.550   0.814  16.657  1.00  0.00     0.150 C
HETATM   16  O6  UNL     1       7.057   1.250  15.563  1.00  0.00    -0.296 OA
ENDROOT
BRANCH   1  17
HETATM   17  C13 UNL     1       8.590   0.988  18.124  1.00  0.00     0.049 C
BRANCH  17  18
HETATM   18  C12 UNL     1       7.870   1.486  19.313  1.00  0.00    -0.025 C
HETATM   19  C11 UNL     1       8.255   1.330  20.575  1.00  0.00    -0.004 C
BRANCH  19  20
HETATM   20  C10 UNL     1       9.446   0.644  21.001  1.00  0.00    -0.000 C
HETATM   21  C9  UNL     1      10.632   1.189  20.972  1.00  0.00     0.001 C
BRANCH  21  22
HETATM   22  C8  UNL     1      10.889   2.536  20.513  1.00  0.00     0.007 C
HETATM   23  C6  UNL     1      11.559   2.815  19.376  1.00  0.00    -0.054 C
HETATM   24  C7  UNL     1      12.093   1.685  18.626  1.00  0.00     0.049 C
BRANCH  23  25
HETATM   25  C5  UNL     1      11.754   4.226  19.001  1.00  0.00     0.062 C
BRANCH  25  26
HETATM   26  C4  UNL     1      12.722   4.740  18.425  1.00  0.00    -0.125 C
BRANCH  26  27
HETATM   27  C3  UNL     1      13.824   5.308  17.770  1.00  0.00     0.087 C
HETATM   28  C2  UNL     1      15.062   5.135  18.237  1.00  0.00     0.046 C
HETATM   29  C1  UNL     1      15.426   4.381  19.429  1.00  0.00     0.076 C
BRANCH  28  30
HETATM   30  O1  UNL     1      16.091   5.745  17.498  1.00  0.00    -0.365 OA
ATOM     31  H1  UNL     1      15.915   6.587  17.095  1.00  0.00     0.217 HD
ENDBRANCH  28  30
ENDBRANCH  26  27
ENDBRANCH  25  26
ENDBRANCH  23  25
ENDBRANCH  21  22
ENDBRANCH  19  20
ENDBRANCH  17  18
ENDBRANCH   1  17
BRANCH  11  32
HETATM   32  C21 UNL     1       3.375  -3.477  18.041  1.00  0.00     0.181 C
HETATM   33  O4  UNL     1       2.970  -3.903  16.935  1.00  0.00    -0.648 OA
HETATM   34  O5  UNL     1       3.708  -4.403  19.011  1.00  0.00    -0.648 OA
ENDBRANCH  11  32
TORSDOF 9
ENDMDL