MODEL 4
REMARK VINA RESULT: -8.991073233      1.967      4.581
REMARK  10 active torsions:
REMARK  status: ('A' for Active; 'I' for Inactive)
REMARK    1  A    between atoms: C2_2  and  C5_5
REMARK    2  A    between atoms: C5_5  and  C6_6
REMARK       I    between atoms: C6_6  and  N1_8
REMARK    3  A    between atoms: N1_8  and  C7_9
REMARK    4  A    between atoms: C7_9  and  C8_10
REMARK    5  A    between atoms: C7_9  and  C21_31
REMARK       I    between atoms: C8_10  and  N2_12
REMARK    6  A    between atoms: C9_14  and  C10_15
REMARK    7  A    between atoms: C9_14  and  C20_28
REMARK    8  A    between atoms: C10_15  and  C11_16
REMARK    9  A    between atoms: C11_16  and  C12_17
REMARK   10  A    between atoms: C11_16  and  C15_20
ROOT
HETATM    1  C8  UNL     1       8.030   0.092  19.506  1.00  0.00     0.258 C
HETATM    2  O2  UNL     1       8.587  -1.063  19.309  1.00  0.00    -0.270 OA
HETATM    3  N2  UNL     1       8.859   1.047  20.063  1.00  0.00    -0.322 N
ATOM      4  H2  UNL     1       8.745   1.206  21.065  1.00  0.00     0.169 HD
HETATM    5  C9  UNL     1       9.769   1.774  19.469  1.00  0.00     0.089 C
ENDROOT
BRANCH   1   6
HETATM    6  C7  UNL     1       6.590   0.208  19.111  1.00  0.00     0.266 C
BRANCH   6   7
HETATM    7  N1  UNL     1       6.405  -0.063  17.808  1.00  0.00    -0.399 NA
HETATM    8  C6  UNL     1       6.213  -0.357  16.460  1.00  0.00     0.288 C
HETATM    9  O1  UNL     1       6.180  -1.479  15.922  1.00  0.00    -0.258 OA
BRANCH   8  10
HETATM   10  C5  UNL     1       6.013   0.778  15.479  1.00  0.00     0.127 C
BRANCH  10  11
HETATM   11  C2  UNL     1       4.800   1.588  15.731  1.00  0.00    -0.042 C
HETATM   12  C1  UNL     1       4.978   2.661  16.762  1.00  0.00     0.015 C
HETATM   13  C3  UNL     1       3.591   0.760  16.095  1.00  0.00     0.015 C
HETATM   14  C4  UNL     1       4.391   2.331  14.438  1.00  0.00     0.015 C
ENDBRANCH  10  11
ENDBRANCH   8  10
ENDBRANCH   6   7
BRANCH   6  15
HETATM   15  C21 UNL     1       5.743  -0.849  19.911  1.00  0.00    -0.010 C
HETATM   16  C22 UNL     1       4.285  -0.478  19.648  1.00  0.00     0.018 C
HETATM   17  C23 UNL     1       6.086  -2.234  19.500  1.00  0.00     0.018 C
HETATM   18  C24 UNL     1       5.984  -0.678  21.389  1.00  0.00     0.018 C
ENDBRANCH   6  15
ENDBRANCH   1   6
BRANCH   5  19
HETATM   19  C10 UNL     1      10.569   2.753  20.237  1.00  0.00     0.071 C
BRANCH  19  20
HETATM   20  C11 UNL     1      12.051   2.348  20.259  1.00  0.00     0.026 C
BRANCH  20  21
HETATM   21  C12 UNL     1      12.342   1.997  21.690  1.00  0.00    -0.008 A
HETATM   22  C13 UNL     1      11.493   2.251  22.843  1.00  0.00     0.005 A
HETATM   23  C14 UNL     1      11.788   0.797  22.329  1.00  0.00     0.005 A
ENDBRANCH  20  21
BRANCH  20  24
HETATM   24  C15 UNL     1      12.925   3.477  19.745  1.00  0.00     0.190 C
HETATM   25  C16 UNL     1      13.387   3.283  18.329  1.00  0.00     0.033 C
HETATM   26  C17 UNL     1      14.069   4.616  17.952  1.00  0.00     0.004 C
HETATM   27  C18 UNL     1      15.182   4.886  18.930  1.00  0.00     0.027 C
HETATM   28  C19 UNL     1      15.352   3.667  19.793  1.00  0.00     0.232 C
HETATM   29  N3  UNL     1      14.142   3.457  20.560  1.00  0.00    -0.070 N
ATOM     30  H32 UNL     1      14.077   4.129  21.324  1.00  0.00     0.277 HD
ATOM     31  H31 UNL     1      14.202   2.593  21.099  1.00  0.00     0.277 HD
ENDBRANCH  20  24
ENDBRANCH  19  20
ENDBRANCH   5  19
BRANCH   5  32
HETATM   32  C20 UNL     1       9.973   1.599  18.056  1.00  0.00     0.222 C
HETATM   33  O3  UNL     1      11.097   1.107  17.698  1.00  0.00    -0.643 OA
HETATM   34  O4  UNL     1       9.092   1.902  17.055  1.00  0.00    -0.643 OA
ENDBRANCH   5  32
TORSDOF 10
ENDMDL