MODEL 2
REMARK VINA RESULT: -8.585343997      2.915      7.716
REMARK  12 active torsions:
REMARK  status: ('A' for Active; 'I' for Inactive)
REMARK    1  A    between atoms: C2_2  and  C3_3
REMARK    2  A    between atoms: C2_2  and  N1_6
REMARK    3  A    between atoms: N1_6  and  C4_7
REMARK    4  A    between atoms: N1_6  and  C6_11
REMARK    5  A    between atoms: C4_7  and  C5_8
REMARK    6  A    between atoms: C5_8  and  O3_9
REMARK    7  A    between atoms: C6_11  and  C7_12
REMARK    8  A    between atoms: C8_15  and  N3_16
REMARK    9  A    between atoms: C9_19  and  N5_20
REMARK   10  A    between atoms: C12_23  and  N6_24
REMARK   11  A    between atoms: C14_31  and  C15_32
REMARK   12  A    between atoms: C16_38  and  N10_39
ROOT
HETATM    1  C7  UNL     1      29.714  -2.620  16.927  1.00  0.00     0.082 A
HETATM    2  N2  UNL     1      30.003  -1.702  15.996  1.00  0.00    -0.189 N
ATOM      3  H2  UNL     1      30.388  -2.009  15.103  1.00  0.00     0.184 HD
HETATM    4  C8  UNL     1      29.801  -0.376  16.201  1.00  0.00     0.708 A
HETATM    5  N11 UNL     1      29.296  -0.024  17.398  1.00  0.00    -0.172 N
ATOM      6  H11 UNL     1      29.138   0.968  17.575  1.00  0.00     0.186 HD
HETATM    7  C17 UNL     1      28.983  -0.900  18.384  1.00  0.00     0.160 A
HETATM    8  N12 UNL     1      28.491  -0.849  19.631  1.00  0.00    -0.305 N
ATOM      9  H12 UNL     1      28.226   0.008  20.116  1.00  0.00     0.171 HD
HETATM   10  C18 UNL     1      28.397  -2.094  20.155  1.00  0.00     0.224 A
HETATM   11  N13 UNL     1      27.965  -2.427  21.340  1.00  0.00    -0.365 N
ATOM     12 1H13 UNL     1      27.894  -3.365  21.735  1.00  0.00     0.159 HD
ATOM     13 2H13 UNL     1      27.625  -1.798  22.067  1.00  0.00     0.159 HD
HETATM   14  O5  UNL     1      28.833  -2.902  19.222  1.00  0.00    -0.274 OA
HETATM   15  C19 UNL     1      29.198  -2.249  18.142  1.00  0.00     0.148 A
ENDROOT
BRANCH   4  16
HETATM   16  N3  UNL     1      30.081   0.573  15.179  1.00  0.00    -0.052 N
HETATM   17  N4  UNL     1      29.172   1.298  14.572  1.00  0.00    -0.109 N
HETATM   18  C9  UNL     1      29.708   2.129  13.669  1.00  0.00     0.697 A
ATOM     19  H4  UNL     1      28.172   1.236  14.764  1.00  0.00     0.207 HD
HETATM   20  N7  UNL     1      31.025   1.923  13.704  1.00  0.00    -0.170 N
HETATM   21  C14 UNL     1      31.247   0.958  14.642  1.00  0.00     0.193 A
ATOM     22  H7  UNL     1      31.730   2.396  13.139  1.00  0.00     0.186 HD
BRANCH  18  23
HETATM   23  N5  UNL     1      29.006   3.057  12.812  1.00  0.00    -0.214 N
HETATM   24  C10 UNL     1      29.692   4.080  12.031  1.00  0.00     0.143 C
HETATM   25  C11 UNL     1      28.613   4.757  11.249  1.00  0.00     0.055 C
HETATM   26  C12 UNL     1      27.375   4.524  12.062  1.00  0.00     0.203 C
HETATM   27  C13 UNL     1      27.601   3.121  12.623  1.00  0.00     0.174 C
BRANCH  26  28
HETATM   28  N6  UNL     1      27.345   5.488  13.159  1.00  0.00    -0.073 N
ATOM     29  H63 UNL     1      26.564   6.140  13.084  1.00  0.00     0.274 HD
ATOM     30  H62 UNL     1      27.088   5.059  14.048  1.00  0.00     0.274 HD
ATOM     31  H61 UNL     1      28.247   5.963  13.202  1.00  0.00     0.274 HD
ENDBRANCH  26  28
ENDBRANCH  18  23
BRANCH  21  32
HETATM   32  C15 UNL     1      32.556   0.435  15.015  1.00  0.00     0.148 A
HETATM   33  N8  UNL     1      33.187   0.629  16.172  1.00  0.00    -0.234 N
HETATM   34  O4  UNL     1      34.346   0.018  16.158  1.00  0.00    -0.155 OA
ATOM     35  H8  UNL     1      32.822   1.173  16.954  1.00  0.00     0.197 HD
HETATM   36  N9  UNL     1      34.541  -0.591  15.027  1.00  0.00    -0.224 N
HETATM   37  C16 UNL     1      33.423  -0.351  14.268  1.00  0.00     0.154 A
ATOM     38  H9  UNL     1      35.360  -1.137  14.759  1.00  0.00     0.198 HD
BRANCH  37  39
HETATM   39  N10 UNL     1      33.238  -0.769  13.078  1.00  0.00    -0.382 N
ATOM     40 2H10 UNL     1      33.567  -1.661  12.708  1.00  0.00     0.157 HD
ATOM     41 1H10 UNL     1      32.755  -0.275  12.327  1.00  0.00     0.157 HD
ENDBRANCH  37  39
ENDBRANCH  21  32
ENDBRANCH   4  16
BRANCH   1  42
HETATM   42  C6  UNL     1      29.849  -4.059  16.606  1.00  0.00     0.183 C
BRANCH  42  43
HETATM   43  N1  UNL     1      31.057  -4.431  15.955  1.00  0.00    -0.371 N
BRANCH  43  44
HETATM   44  C2  UNL     1      31.012  -5.172  14.765  1.00  0.00     0.081 C
HETATM   45  C1  UNL     1      29.889  -6.217  14.778  1.00  0.00     0.075 C
BRANCH  44  46
HETATM   46  C3  UNL     1      31.131  -4.502  13.490  1.00  0.00     0.222 C
HETATM   47  O1  UNL     1      31.003  -5.082  12.383  1.00  0.00    -0.643 OA
HETATM   48  O2  UNL     1      31.406  -3.118  13.439  1.00  0.00    -0.643 OA
ENDBRANCH  44  46
ENDBRANCH  43  44
BRANCH  43  49
HETATM   49  C4  UNL     1      32.177  -4.551  16.818  1.00  0.00     0.149 C
BRANCH  49  50
HETATM   50  C5  UNL     1      33.327  -3.627  16.588  1.00  0.00     0.183 C
BRANCH  50  51
HETATM   51  O3  UNL     1      33.037  -2.333  17.092  1.00  0.00    -0.399 OA
ATOM     52  H3  UNL     1      32.123  -2.269  17.341  1.00  0.00     0.209 HD
ENDBRANCH  50  51
ENDBRANCH  49  50
ENDBRANCH  43  49
ENDBRANCH  42  43
ENDBRANCH   1  42
TORSDOF 12
ENDMDL