MODEL 2
REMARK VINA RESULT: -9.351890333      4.259      7.577
REMARK  12 active torsions:
REMARK  status: ('A' for Active; 'I' for Inactive)
REMARK    1  A    between atoms: O1_2  and  N1_3
REMARK    2  A    between atoms: C2_5  and  C3_6
REMARK    3  A    between atoms: C2_5  and  N3_12
REMARK    4  A    between atoms: C3_6  and  C4_7
REMARK    5  A    between atoms: C4_7  and  N2_8
REMARK    6  A    between atoms: C5_14  and  C6_15
REMARK    7  A    between atoms: C6_15  and  S1_16
REMARK    8  A    between atoms: S1_16  and  C7_17
REMARK    9  A    between atoms: C8_20  and  N5_21
REMARK   10  A    between atoms: C10_27  and  N7_28
REMARK   11  A    between atoms: N7_28  and  C11_30
REMARK   12  A    between atoms: C12_33  and  C13_34
ROOT
HETATM    1  C7  UNL     1      30.218   5.614  11.810  1.00  0.00     0.147 A
HETATM    2  N4  UNL     1      30.775   5.850  10.610  1.00  0.00    -0.321 N
ATOM      3  H4  UNL     1      30.441   6.633  10.049  1.00  0.00     0.169 HD
HETATM    4  C8  UNL     1      31.761   5.074  10.138  1.00  0.00     0.132 A
HETATM    5  C9  UNL     1      32.250   4.006  10.853  1.00  0.00     0.137 A
HETATM    6  N6  UNL     1      33.191   3.065  10.680  1.00  0.00    -0.184 N
ATOM      7  H6  UNL     1      33.800   2.962   9.868  1.00  0.00     0.184 HD
HETATM    8  C10 UNL     1      33.184   2.279  11.780  1.00  0.00     0.699 A
HETATM    9  N14 UNL     1      32.263   2.701  12.639  1.00  0.00    -0.173 N
ATOM     10  H14 UNL     1      32.049   2.288  13.547  1.00  0.00     0.186 HD
HETATM   11  C18 UNL     1      31.667   3.772  12.090  1.00  0.00     0.154 A
HETATM   12  N15 UNL     1      30.682   4.577  12.519  1.00  0.00    -0.320 N
ATOM     13  H15 UNL     1      30.267   4.389  13.431  1.00  0.00     0.169 HD
ENDROOT
BRANCH   8  14
HETATM   14  N7  UNL     1      34.022   1.157  12.022  1.00  0.00    -0.022 N
ATOM     15  H7  UNL     1      34.935   1.106  11.570  1.00  0.00     0.203 HD
BRANCH  14  16
HETATM   16  C11 UNL     1      33.647   0.205  12.802  1.00  0.00     0.699 A
HETATM   17  N8  UNL     1      33.026  -0.866  12.287  1.00  0.00    -0.177 N
HETATM   18  C12 UNL     1      32.602  -1.902  13.037  1.00  0.00     0.131 A
ATOM     19  H8  UNL     1      32.867  -0.897  11.280  1.00  0.00     0.185 HD
HETATM   20  N12 UNL     1      32.802  -1.883  14.370  1.00  0.00    -0.333 N
HETATM   21  C16 UNL     1      33.432  -0.801  14.907  1.00  0.00     0.094 A
ATOM     22  H12 UNL     1      32.491  -2.655  14.959  1.00  0.00     0.168 HD
HETATM   23  C17 UNL     1      33.672  -0.741  16.381  1.00  0.00     0.089 C
HETATM   24  N13 UNL     1      33.843   0.218  14.131  1.00  0.00    -0.180 N
ATOM     25  H13 UNL     1      34.313   1.016  14.560  1.00  0.00     0.185 HD
BRANCH  18  26
HETATM   26  C13 UNL     1      31.931  -3.022  12.338  1.00  0.00     0.245 C
HETATM   27  N9  UNL     1      32.734  -3.562  11.258  1.00  0.00    -0.345 N
HETATM   28  C14 UNL     1      32.531  -4.968  11.273  1.00  0.00     0.191 C
ATOM     29  H9  UNL     1      33.327  -3.036  10.615  1.00  0.00     0.163 HD
HETATM   30  N10 UNL     1      32.926  -5.864  10.217  1.00  0.00    -0.063 NA
HETATM   31  N11 UNL     1      31.950  -5.320  12.359  1.00  0.00    -0.299 N
HETATM   32  C15 UNL     1      31.700  -4.193  13.184  1.00  0.00     0.254 C
ATOM     33  H11 UNL     1      31.701  -6.280  12.599  1.00  0.00     0.171 HD
HETATM   34  O2  UNL     1      31.357  -4.246  14.381  1.00  0.00    -0.270 OA
ENDBRANCH  18  26
ENDBRANCH  14  16
ENDBRANCH   8  14
BRANCH   4  35
HETATM   35  N5  UNL     1      32.270   5.329   8.989  1.00  0.00    -0.383 N
ATOM     36  H52 UNL     1      31.727   5.881   8.325  1.00  0.00     0.157 HD
ATOM     37  H51 UNL     1      33.200   4.975   8.762  1.00  0.00     0.157 HD
ENDBRANCH   4  35
BRANCH   1  38
HETATM   38  S1  UNL     1      28.900   6.629  12.473  1.00  0.00    -0.089 SA
BRANCH  38  39
HETATM   39  C6  UNL     1      27.652   5.468  13.148  1.00  0.00     0.127 C
BRANCH  39  40
HETATM   40  C5  UNL     1      27.162   4.682  11.961  1.00  0.00     0.073 C
HETATM   41  N3  UNL     1      27.042   3.406  12.006  1.00  0.00    -0.357 N
ATOM     42  H3  UNL     1      26.705   2.925  11.172  1.00  0.00     0.166 HD
BRANCH  41  43
HETATM   43  C2  UNL     1      27.352   2.626  13.149  1.00  0.00     0.102 C
HETATM   44  N1  UNL     1      26.482   2.468  14.085  1.00  0.00    -0.255 N
ATOM     45  H1  UNL     1      26.715   1.906  14.903  1.00  0.00     0.195 HD
BRANCH  44  46
HETATM   46  O1  UNL     1      25.242   3.050  13.992  1.00  0.00    -0.284 OA
HETATM   47  C1  UNL     1      24.092   2.234  13.962  1.00  0.00     0.237 C
ENDBRANCH  44  46
BRANCH  43  48
HETATM   48  C3  UNL     1      28.687   1.998  13.251  1.00  0.00     0.105 C
BRANCH  48  49
HETATM   49  C4  UNL     1      28.745   1.065  14.455  1.00  0.00     0.237 C
BRANCH  49  50
HETATM   50  N2  UNL     1      29.969   0.291  14.355  1.00  0.00    -0.079 N
ATOM     51  H23 UNL     1      29.883  -0.640  14.763  1.00  0.00     0.274 HD
ATOM     52  H22 UNL     1      30.178   0.001  13.400  1.00  0.00     0.274 HD
ATOM     53  H21 UNL     1      30.718   0.840  14.776  1.00  0.00     0.274 HD
ENDBRANCH  49  50
ENDBRANCH  48  49
ENDBRANCH  43  48
ENDBRANCH  41  43
ENDBRANCH  39  40
ENDBRANCH  38  39
ENDBRANCH   1  38
TORSDOF 12
ENDMDL