MODEL 2
REMARK VINA RESULT: -9.551416550      1.067      1.195
REMARK  15 active torsions:
REMARK  status: ('A' for Active; 'I' for Inactive)
REMARK    1  A    between atoms: N1_1  and  C1_4
REMARK    2  A    between atoms: C3_8  and  C4_9
REMARK    3  A    between atoms: C4_9  and  C5_10
REMARK    4  A    between atoms: C6_11  and  O1_12
REMARK    5  A    between atoms: N3_14  and  C7_15
REMARK    6  A    between atoms: C7_15  and  C8_16
REMARK    7  A    between atoms: C14_22  and  N4_23
REMARK    8  A    between atoms: N5_26  and  C15_27
REMARK    9  A    between atoms: C15_27  and  S1_28
REMARK   10  A    between atoms: S1_28  and  C16_29
REMARK   11  A    between atoms: C17_34  and  N8_35
REMARK   12  A    between atoms: C19_43  and  N11_44
REMARK   13  A    between atoms: N11_44  and  C20_46
REMARK   14  A    between atoms: C20_46  and  C21_47
REMARK   15  A    between atoms: C21_47  and  N12_48
ROOT
HETATM    1  C5  UNL     1      29.991   0.624  16.519  1.00  0.00     0.105 A
HETATM    2  C6  UNL     1      29.261   0.984  17.637  1.00  0.00     0.186 A
HETATM    3  N3  UNL     1      30.098   1.048  18.687  1.00  0.00    -0.156 N
HETATM    4  C14 UNL     1      31.319   0.744  18.269  1.00  0.00     0.684 A
HETATM    5  N5  UNL     1      31.269   0.481  16.946  1.00  0.00    -0.169 N
ENDROOT
BRANCH   1   6
HETATM    6  C4  UNL     1      29.561   0.420  15.142  1.00  0.00     0.051 C
BRANCH   6   7
HETATM    7  C3  UNL     1      29.388   1.425  14.299  1.00  0.00     0.030 A
HETATM    8  C2  UNL     1      28.221   2.093  13.993  1.00  0.00     0.172 A
HETATM    9  N2  UNL     1      26.941   1.956  14.422  1.00  0.00    -0.173 N
HETATM   10  N10 UNL     1      28.467   3.056  13.087  1.00  0.00    -0.068 N
HETATM   11  C1  UNL     1      25.939   2.742  13.972  1.00  0.00     0.692 A
ATOM     12  H2  UNL     1      26.728   1.234  15.110  1.00  0.00     0.186 HD
HETATM   13  N13 UNL     1      26.244   3.685  13.069  1.00  0.00    -0.021 N
HETATM   14  C19 UNL     1      27.498   3.860  12.614  1.00  0.00     0.715 A
ATOM     15  H13 UNL     1      25.503   4.289  12.716  1.00  0.00     0.203 HD
HETATM   16  N9  UNL     1      29.769   3.016  12.809  1.00  0.00    -0.288 N
HETATM   17  C18 UNL     1      30.361   2.042  13.523  1.00  0.00     0.123 A
ATOM     18  H9  UNL     1      30.246   3.634  12.153  1.00  0.00     0.187 HD
BRANCH  11  19
HETATM   19  N1  UNL     1      24.735   2.624  14.366  1.00  0.00    -0.234 N
ATOM     20  H12 UNL     1      24.468   2.999  15.276  1.00  0.00     0.174 HD
ATOM     21  H11 UNL     1      24.011   2.168  13.811  1.00  0.00     0.174 HD
ENDBRANCH  11  19
BRANCH  14  22
HETATM   22  N11 UNL     1      27.807   4.756  11.753  1.00  0.00    -0.222 N
ATOM     23  H11 UNL     1      27.880   4.466  10.777  1.00  0.00     0.177 HD
BRANCH  22  24
HETATM   24  C20 UNL     1      28.057   6.130  12.053  1.00  0.00     0.165 C
BRANCH  24  25
HETATM   25  C21 UNL     1      29.550   6.465  11.970  1.00  0.00     0.249 C
BRANCH  25  26
HETATM   26  N12 UNL     1      29.927   7.323  13.070  1.00  0.00    -0.078 N
ATOM     27 3H12 UNL     1      29.137   7.865  13.419  1.00  0.00     0.274 HD
ATOM     28 2H12 UNL     1      30.129   6.791  13.916  1.00  0.00     0.274 HD
ATOM     29 1H12 UNL     1      30.707   7.919  12.796  1.00  0.00     0.274 HD
ENDBRANCH  25  26
ENDBRANCH  24  25
ENDBRANCH  22  24
ENDBRANCH  14  22
ENDBRANCH   6   7
ENDBRANCH   1   6
BRANCH   2  30
HETATM   30  O1  UNL     1      27.906   1.217  17.579  1.00  0.00    -0.344 OA
ATOM     31  H1  UNL     1      27.466   1.786  18.199  1.00  0.00     0.219 HD
ENDBRANCH   2  30
BRANCH   5  32
HETATM   32  C15 UNL     1      32.437   0.117  16.204  1.00  0.00     0.230 C
BRANCH  32  33
HETATM   33  S1  UNL     1      32.839  -1.622  16.255  1.00  0.00    -0.064 SA
BRANCH  33  34
HETATM   34  C16 UNL     1      32.206  -2.380  14.759  1.00  0.00     0.206 A
HETATM   35  N6  UNL     1      31.844  -1.797  13.607  1.00  0.00    -0.271 N
HETATM   36  N7  UNL     1      31.427  -2.703  12.738  1.00  0.00    -0.263 N
ATOM     37  H6  UNL     1      31.885  -0.794  13.425  1.00  0.00     0.189 HD
HETATM   38  C17 UNL     1      31.529  -3.887  13.361  1.00  0.00     0.239 A
ATOM     39  H7  UNL     1      31.096  -2.536  11.788  1.00  0.00     0.190 HD
HETATM   40  O2  UNL     1      31.999  -3.681  14.579  1.00  0.00    -0.253 OA
BRANCH  38  41
HETATM   41  N8  UNL     1      31.210  -5.026  12.830  1.00  0.00    -0.364 N
ATOM     42  H82 UNL     1      31.620  -5.451  11.998  1.00  0.00     0.159 HD
ATOM     43  H81 UNL     1      30.491  -5.652  13.194  1.00  0.00     0.159 HD
ENDBRANCH  38  41
ENDBRANCH  33  34
ENDBRANCH  32  33
ENDBRANCH   5  32
BRANCH   3  44
HETATM   44  C7  UNL     1      29.694   1.400  20.033  1.00  0.00     0.188 C
BRANCH  44  45
HETATM   45  C8  UNL     1      28.910   0.350  20.717  1.00  0.00    -0.039 A
HETATM   46  C9  UNL     1      29.506  -0.848  21.022  1.00  0.00     0.009 A
HETATM   47  C10 UNL     1      28.757  -1.819  21.662  1.00  0.00     0.001 A
HETATM   48  C11 UNL     1      27.427  -1.567  21.981  1.00  0.00     0.000 A
HETATM   49  C12 UNL     1      26.840  -0.361  21.669  1.00  0.00     0.001 A
HETATM   50  C13 UNL     1      27.584   0.604  21.033  1.00  0.00     0.009 A
ENDBRANCH  44  45
ENDBRANCH   3  44
BRANCH   4  51
HETATM   51  N4  UNL     1      32.377   0.713  19.027  1.00  0.00    -0.234 N
ATOM     52  H42 UNL     1      33.077   1.449  19.124  1.00  0.00     0.174 HD
ATOM     53  H41 UNL     1      32.637  -0.067  19.632  1.00  0.00     0.174 HD
ENDBRANCH   4  51
TORSDOF 15
ENDMDL