MODEL 5
REMARK VINA RESULT: -8.673912768      0.910      1.868
REMARK  14 active torsions:
REMARK  status: ('A' for Active; 'I' for Inactive)
REMARK    1  A    between atoms: C2_2  and  C3_3
REMARK       I    between atoms: C3_3  and  N1_5
REMARK    2  A    between atoms: N1_5  and  C4_7
REMARK    3  A    between atoms: N2_9  and  C5_10
REMARK    4  A    between atoms: C6_11  and  C8_14
REMARK    5  A    between atoms: C8_14  and  O3_16
REMARK    6  A    between atoms: O3_16  and  C9_17
REMARK    7  A    between atoms: C9_17  and  C10_18
REMARK    8  A    between atoms: C10_18  and  N4_19
REMARK    9  A    between atoms: C10_18  and  C11_23
REMARK   10  A    between atoms: C11_23  and  O5_28
REMARK   11  A    between atoms: N5_24  and  O4_26
REMARK   12  A    between atoms: O5_28  and  C12_29
REMARK   13  A    between atoms: C14_32  and  C15_33
REMARK   14  A    between atoms: C16_34  and  O7_35
ROOT
HETATM    1  C5  UNL     1      33.761   1.750  11.561  1.00  0.00     0.134 C
HETATM    2  C6  UNL     1      35.029   2.001  11.823  1.00  0.00     0.136 C
HETATM    3  C7  UNL     1      35.386   3.336  12.206  1.00  0.00     0.107 C
HETATM    4  N3  UNL     1      35.660   4.419  12.522  1.00  0.00    -0.191 NA
ENDROOT
BRANCH   2   5
HETATM    5  C8  UNL     1      36.056   0.968  11.733  1.00  0.00     0.305 C
HETATM    6  O2  UNL     1      37.246   1.315  11.694  1.00  0.00    -0.258 OA
BRANCH   5   7
HETATM    7  O3  UNL     1      35.702  -0.342  11.691  1.00  0.00    -0.314 OA
BRANCH   7   8
HETATM    8  C9  UNL     1      36.011  -1.323  12.624  1.00  0.00     0.220 C
BRANCH   8   9
HETATM    9  C10 UNL     1      34.766  -1.938  13.217  1.00  0.00     0.283 C
BRANCH   9  10
HETATM   10  N4  UNL     1      33.899  -0.970  13.843  1.00  0.00    -0.066 N
ATOM     11  H43 UNL     1      34.253  -0.023  13.708  1.00  0.00     0.275 HD
ATOM     12  H42 UNL     1      33.017  -0.891  13.338  1.00  0.00     0.275 HD
ATOM     13  H41 UNL     1      33.736  -1.159  14.832  1.00  0.00     0.275 HD
ENDBRANCH   9  10
BRANCH   9  14
HETATM   14  C11 UNL     1      33.996  -2.697  12.198  1.00  0.00     0.179 C
HETATM   15  N5  UNL     1      33.120  -2.083  11.500  1.00  0.00    -0.249 N
ATOM     16  H5  UNL     1      32.987  -1.086  11.669  1.00  0.00     0.196 HD
BRANCH  15  17
HETATM   17  O4  UNL     1      32.370  -2.664  10.563  1.00  0.00    -0.288 OA
ATOM     18  H4  UNL     1      31.478  -2.408  10.360  1.00  0.00     0.244 HD
ENDBRANCH  15  17
BRANCH  14  19
HETATM   19  O5  UNL     1      34.155  -4.067  11.924  1.00  0.00    -0.262 OA
BRANCH  19  20
HETATM   20  C12 UNL     1      35.005  -4.506  10.886  1.00  0.00     0.261 C
HETATM   21  C13 UNL     1      35.754  -5.781  11.012  1.00  0.00     0.126 C
HETATM   22  O6  UNL     1      35.087  -3.770   9.871  1.00  0.00    -0.265 OA
ENDBRANCH  19  20
ENDBRANCH  14  19
ENDBRANCH   9  14
ENDBRANCH   8   9
ENDBRANCH   7   8
ENDBRANCH   5   7
ENDBRANCH   2   5
BRANCH   1  23
HETATM   23  N2  UNL     1      32.786   2.786  11.660  1.00  0.00    -0.285 N
HETATM   24  S1  UNL     1      32.459   4.097  10.693  1.00  0.00     0.013 SA
HETATM   25  C4  UNL     1      31.345   4.168  11.961  1.00  0.00     0.122 A
HETATM   26  C14 UNL     1      31.828   3.033  12.557  1.00  0.00     0.101 A
BRANCH  25  27
HETATM   27  N1  UNL     1      30.281   5.108  12.267  1.00  0.00    -0.318 N
HETATM   28  C3  UNL     1      29.038   5.037  11.592  1.00  0.00     0.222 C
HETATM   29  O1  UNL     1      28.908   4.121  10.720  1.00  0.00    -0.273 OA
ATOM     30  H1  UNL     1      30.431   5.827  12.974  1.00  0.00     0.169 HD
BRANCH  28  31
HETATM   31  C2  UNL     1      27.930   5.954  11.856  1.00  0.00     0.098 C
HETATM   32  C1  UNL     1      28.432   7.165  12.603  1.00  0.00     0.014 C
ENDBRANCH  28  31
ENDBRANCH  25  27
BRANCH  26  33
HETATM   33  C15 UNL     1      31.389   2.362  13.783  1.00  0.00     0.113 A
HETATM   34  C16 UNL     1      32.254   2.240  14.874  1.00  0.00     0.162 A
HETATM   35  N6  UNL     1      31.858   1.627  16.000  1.00  0.00    -0.288 N
HETATM   36  C17 UNL     1      30.644   1.117  16.122  1.00  0.00     0.329 A
ATOM     37  H6  UNL     1      32.510   1.553  16.781  1.00  0.00     0.172 HD
HETATM   38  O8  UNL     1      30.227   0.532  17.159  1.00  0.00    -0.247 OA
HETATM   39  N7  UNL     1      29.775   1.210  15.099  1.00  0.00    -0.275 N
HETATM   40  C18 UNL     1      30.138   1.818  13.958  1.00  0.00     0.266 A
ATOM     41  H7  UNL     1      28.837   0.818  15.190  1.00  0.00     0.173 HD
HETATM   42  O9  UNL     1      29.332   1.895  13.029  1.00  0.00    -0.267 OA
BRANCH  34  43
HETATM   43  O7  UNL     1      33.541   2.753  14.809  1.00  0.00    -0.345 OA
ATOM     44  H7  UNL     1      34.286   2.214  15.048  1.00  0.00     0.219 HD
ENDBRANCH  34  43
ENDBRANCH  26  33
ENDBRANCH   1  23
TORSDOF 14
ENDMDL