MODEL 3
REMARK VINA RESULT: -9.012739751      2.616      6.297
REMARK  12 active torsions:
REMARK  status: ('A' for Active; 'I' for Inactive)
REMARK    1  A    between atoms: C3_6  and  C4_7
REMARK       I    between atoms: C4_7  and  N3_9
REMARK    2  A    between atoms: N3_9  and  C5_11
REMARK    3  A    between atoms: C7_13  and  C8_14
REMARK    4  A    between atoms: C9_20  and  N6_21
REMARK    5  A    between atoms: C10_26  and  N8_27
REMARK    6  A    between atoms: N8_27  and  C11_29
REMARK    7  A    between atoms: C15_35  and  N10_36
REMARK    8  A    between atoms: C17_38  and  C18_39
REMARK    9  A    between atoms: C18_39  and  C19_40
REMARK   10  A    between atoms: C19_40  and  C20_41
REMARK   11  A    between atoms: C20_41  and  N11_42
REMARK   12  A    between atoms: N14_50  and  N15_51
ROOT
HETATM    1  N1  UNL     1      31.943   5.109   9.516  1.00  0.00    -0.188 NA
HETATM    2  C1  UNL     1      32.060   4.457  10.471  1.00  0.00     0.139 C
HETATM    3  C2  UNL     1      32.185   3.632  11.632  1.00  0.00     0.212 A
HETATM    4  N2  UNL     1      33.315   3.097  12.088  1.00  0.00    -0.324 N
ATOM      5  H2  UNL     1      34.233   3.210  11.657  1.00  0.00     0.168 HD
HETATM    6  C3  UNL     1      33.065   2.383  13.201  1.00  0.00     0.151 A
HETATM    7  C15 UNL     1      31.687   2.471  13.468  1.00  0.00     0.184 A
HETATM    8  N14 UNL     1      31.193   3.255  12.468  1.00  0.00    -0.216 N
ENDROOT
BRANCH   8   9
HETATM    9  N15 UNL     1      29.854   3.628  12.330  1.00  0.00    -0.335 N
ATOM     10 2H15 UNL     1      29.531   4.515  11.944  1.00  0.00     0.177 HD
ATOM     11 1H15 UNL     1      29.060   3.045  12.594  1.00  0.00     0.177 HD
ENDBRANCH   8   9
BRANCH   6  12
HETATM   12  C4  UNL     1      33.989   1.691  14.056  1.00  0.00     0.277 C
HETATM   13  O1  UNL     1      34.823   2.402  14.743  1.00  0.00    -0.265 OA
HETATM   14  N3  UNL     1      34.136   0.341  14.256  1.00  0.00    -0.307 N
ATOM     15  H3  UNL     1      34.828   0.260  15.002  1.00  0.00     0.170 HD
BRANCH  14  16
HETATM   16  C5  UNL     1      33.806  -0.949  13.943  1.00  0.00     0.126 A
HETATM   17  C6  UNL     1      34.437  -1.739  12.992  1.00  0.00     0.081 A
HETATM   18  C7  UNL     1      33.996  -3.029  12.685  1.00  0.00     0.085 A
HETATM   19  N7  UNL     1      32.928  -3.509  13.330  1.00  0.00    -0.189 N
HETATM   20  C10 UNL     1      32.274  -2.784  14.261  1.00  0.00     0.680 A
ATOM     21  H7  UNL     1      32.599  -4.450  13.113  1.00  0.00     0.184 HD
HETATM   22  N9  UNL     1      32.725  -1.575  14.522  1.00  0.00    -0.177 N
ATOM     23  H9  UNL     1      32.219  -1.044  15.230  1.00  0.00     0.186 HD
BRANCH  18  24
HETATM   24  C8  UNL     1      34.733  -3.808  11.702  1.00  0.00     0.129 A
HETATM   25  N4  UNL     1      34.781  -3.651  10.365  1.00  0.00    -0.236 N
HETATM   26  O2  UNL     1      35.599  -4.538   9.859  1.00  0.00    -0.155 OA
ATOM     27  H4  UNL     1      34.263  -2.952   9.832  1.00  0.00     0.197 HD
HETATM   28  N5  UNL     1      36.102  -5.280  10.760  1.00  0.00    -0.224 N
HETATM   29  C9  UNL     1      35.602  -4.880  11.948  1.00  0.00     0.152 A
ATOM     30  H5  UNL     1      36.765  -6.042  10.613  1.00  0.00     0.198 HD
BRANCH  29  31
HETATM   31  N6  UNL     1      35.816  -5.293  13.129  1.00  0.00    -0.382 N
ATOM     32  H62 UNL     1      35.356  -5.075  14.012  1.00  0.00     0.157 HD
ATOM     33  H61 UNL     1      36.545  -5.980  13.323  1.00  0.00     0.157 HD
ENDBRANCH  29  31
ENDBRANCH  18  24
BRANCH  20  34
HETATM   34  N8  UNL     1      31.233  -3.300  14.885  1.00  0.00    -0.221 N
ATOM     35  H8  UNL     1      30.690  -4.060  14.474  1.00  0.00     0.178 HD
BRANCH  34  36
HETATM   36  C11 UNL     1      30.894  -2.746  16.169  1.00  0.00     0.099 C
HETATM   37  C12 UNL     1      29.616  -3.218  16.833  1.00  0.00     0.026 C
HETATM   38  C13 UNL     1      30.391  -3.011  18.164  1.00  0.00     0.004 C
HETATM   39  C14 UNL     1      31.613  -3.463  17.340  1.00  0.00     0.026 C
ENDBRANCH  34  36
ENDBRANCH  20  34
ENDBRANCH  14  16
ENDBRANCH   6  12
BRANCH   7  40
HETATM   40  N10 UNL     1      30.964   1.889  14.529  1.00  0.00    -0.231 N
HETATM   41  C16 UNL     1      29.807   1.154  14.386  1.00  0.00     0.146 A
HETATM   42  C17 UNL     1      29.353   0.735  15.622  1.00  0.00     0.044 A
HETATM   43  N12 UNL     1      30.244   1.227  16.489  1.00  0.00    -0.289 N
HETATM   44  N13 UNL     1      31.165   1.888  15.846  1.00  0.00    -0.234 N
ATOM     45  H12 UNL     1      30.209   1.103  17.502  1.00  0.00     0.188 HD
ATOM     46  H13 UNL     1      31.951   2.353  16.299  1.00  0.00     0.209 HD
BRANCH  42  47
HETATM   47  C18 UNL     1      28.134  -0.056  15.955  1.00  0.00     0.062 C
BRANCH  47  48
HETATM   48  C19 UNL     1      26.962   0.447  15.146  1.00  0.00     0.033 C
BRANCH  48  49
HETATM   49  C20 UNL     1      26.312   1.688  15.687  1.00  0.00     0.230 C
BRANCH  49  50
HETATM   50  N11 UNL     1      26.019   2.546  14.517  1.00  0.00    -0.079 N
ATOM     51 3H11 UNL     1      26.363   2.162  13.637  1.00  0.00     0.274 HD
ATOM     52 2H11 UNL     1      25.031   2.567  14.267  1.00  0.00     0.274 HD
ATOM     53 1H11 UNL     1      26.402   3.466  14.735  1.00  0.00     0.274 HD
ENDBRANCH  49  50
ENDBRANCH  48  49
ENDBRANCH  47  48
ENDBRANCH  42  47
ENDBRANCH   7  40
TORSDOF 12
ENDMDL