MODEL 3
REMARK VINA RESULT: -8.171019206      3.432      7.117
REMARK  12 active torsions:
REMARK  status: ('A' for Active; 'I' for Inactive)
REMARK    1  A    between atoms: C2_3  and  O1_4
REMARK    2  A    between atoms: C3_6  and  S1_7
REMARK    3  A    between atoms: S1_7  and  C4_8
REMARK    4  A    between atoms: C4_8  and  C5_9
REMARK    5  A    between atoms: C5_9  and  O2_10
REMARK    6  A    between atoms: C5_9  and  C6_12
REMARK    7  A    between atoms: C6_12  and  N2_13
REMARK    8  A    between atoms: C8_18  and  N4_19
REMARK    9  A    between atoms: N6_26  and  S2_27
REMARK   10  A    between atoms: S2_27  and  C10_30
REMARK   11  A    between atoms: C14_34  and  N7_35
REMARK   12  A    between atoms: N7_35  and  O7_37
ROOT
HETATM    1  C1  UNL     1      30.224  -5.330  15.905  1.00  0.00     0.161 C
HETATM    2  N1  UNL     1      30.647  -3.986  15.573  1.00  0.00    -0.306 N
HETATM    3  C2  UNL     1      31.447  -3.630  14.531  1.00  0.00     0.179 A
HETATM    4  C3  UNL     1      31.621  -2.266  14.546  1.00  0.00     0.141 A
HETATM    5  N6  UNL     1      30.907  -1.826  15.618  1.00  0.00    -0.200 N
HETATM    6  C16 UNL     1      30.322  -2.873  16.232  1.00  0.00     0.197 A
HETATM    7  S3  UNL     1      29.363  -2.834  17.570  1.00  0.00    -0.039 SA
ENDROOT
BRANCH   4   8
HETATM    8  S1  UNL     1      32.606  -1.284  13.439  1.00  0.00    -0.104 SA
BRANCH   8   9
HETATM    9  C4  UNL     1      34.273  -1.030  13.982  1.00  0.00     0.114 C
BRANCH   9  10
HETATM   10  C5  UNL     1      35.130  -0.183  13.074  1.00  0.00     0.146 C
BRANCH  10  11
HETATM   11  O2  UNL     1      35.545  -1.056  12.040  1.00  0.00    -0.393 OA
ATOM     12  H2  UNL     1      35.147  -0.710  11.250  1.00  0.00     0.210 HD
ENDBRANCH  10  11
BRANCH  10  13
HETATM   13  C6  UNL     1      34.280   0.867  12.363  1.00  0.00     0.171 C
BRANCH  13  14
HETATM   14  N2  UNL     1      35.007   2.092  12.134  1.00  0.00    -0.248 N
HETATM   15  C7  UNL     1      35.923   2.174  11.120  1.00  0.00     0.344 A
HETATM   16  O3  UNL     1      36.097   1.167  10.410  1.00  0.00    -0.246 OA
HETATM   17  N3  UNL     1      36.631   3.285  10.868  1.00  0.00    -0.141 N
HETATM   18  C8  UNL     1      36.454   4.386  11.628  1.00  0.00     0.683 A
ATOM     19  H3  UNL     1      37.303   3.298  10.101  1.00  0.00     0.189 HD
HETATM   20  N5  UNL     1      35.559   4.314  12.624  1.00  0.00    -0.141 N
HETATM   21  C9  UNL     1      34.844   3.197  12.881  1.00  0.00     0.344 A
ATOM     22  H5  UNL     1      35.411   5.136  13.211  1.00  0.00     0.189 HD
HETATM   23  O4  UNL     1      34.005   3.171  13.837  1.00  0.00    -0.246 OA
BRANCH  18  24
HETATM   24  N4  UNL     1      37.141   5.467  11.384  1.00  0.00    -0.234 N
ATOM     25  H42 UNL     1      38.153   5.506  11.496  1.00  0.00     0.174 HD
ATOM     26  H41 UNL     1      36.668   6.314  11.069  1.00  0.00     0.174 HD
ENDBRANCH  18  24
ENDBRANCH  13  14
ENDBRANCH  10  13
ENDBRANCH   9  10
ENDBRANCH   8   9
ENDBRANCH   4   8
BRANCH   3  27
HETATM   27  O1  UNL     1      31.971  -4.547  13.622  1.00  0.00    -0.344 OA
ATOM     28  H1  UNL     1      32.714  -4.358  13.062  1.00  0.00     0.219 HD
ENDBRANCH   3  27
BRANCH   5  29
HETATM   29  S2  UNL     1      30.771  -0.201  16.109  1.00  0.00     0.272 S
HETATM   30  O5  UNL     1      29.912  -0.130  17.360  1.00  0.00    -0.200 OA
HETATM   31  O6  UNL     1      32.159   0.301  16.430  1.00  0.00    -0.200 OA
BRANCH  29  32
HETATM   32  C10 UNL     1      30.109   0.847  14.880  1.00  0.00     0.082 A
HETATM   33  C11 UNL     1      28.756   0.684  14.561  1.00  0.00     0.025 A
HETATM   34  C12 UNL     1      28.185   1.497  13.610  1.00  0.00     0.004 A
HETATM   35  C13 UNL     1      28.954   2.462  12.986  1.00  0.00     0.031 A
HETATM   36  C14 UNL     1      30.285   2.631  13.291  1.00  0.00     0.055 A
HETATM   37  C15 UNL     1      30.856   1.816  14.242  1.00  0.00     0.056 A
BRANCH  36  38
HETATM   38  N7  UNL     1      31.034   3.646  12.614  1.00  0.00    -0.269 N
ATOM     39  H7  UNL     1      31.972   3.427  12.276  1.00  0.00     0.194 HD
BRANCH  38  40
HETATM   40  O7  UNL     1      30.534   4.885  12.411  1.00  0.00    -0.289 OA
ATOM     41  H7  UNL     1      31.097   5.644  12.313  1.00  0.00     0.244 HD
ENDBRANCH  38  40
ENDBRANCH  36  38
ENDBRANCH  29  32
ENDBRANCH   5  29
TORSDOF 12
ENDMDL