MODEL 1
REMARK VINA RESULT: -8.716975533      0.000      0.000
REMARK  13 active torsions:
REMARK  status: ('A' for Active; 'I' for Inactive)
REMARK    1  A    between atoms: C2_2  and  O1_3
REMARK    2  A    between atoms: O1_3  and  C3_4
REMARK    3  A    between atoms: C3_4  and  C4_6
REMARK    4  A    between atoms: C4_6  and  N1_7
REMARK    5  A    between atoms: C6_11  and  N3_12
REMARK    6  A    between atoms: N3_12  and  C7_14
REMARK    7  A    between atoms: C8_17  and  C9_18
REMARK    8  A    between atoms: C9_18  and  N5_19
REMARK    9  A    between atoms: N5_19  and  N6_20
REMARK       I    between atoms: N6_20  and  C10_21
REMARK   10  A    between atoms: C11_26  and  O4_27
REMARK   11  A    between atoms: C12_29  and  O5_30
REMARK   12  A    between atoms: N9_34  and  C15_35
REMARK   13  A    between atoms: C15_35  and  C16_36
ROOT
HETATM    1  N1  UNL     1      30.216   0.116  18.941  1.00  0.00    -0.163 NA
HETATM    2  C5  UNL     1      28.812   0.025  18.702  1.00  0.00     0.176 C
HETATM    3  N2  UNL     1      28.406   0.082  17.344  1.00  0.00    -0.341 N
ATOM      4  H2  UNL     1      27.410   0.119  17.125  1.00  0.00     0.167 HD
HETATM    5  C6  UNL     1      29.259   0.087  16.382  1.00  0.00     0.137 C
HETATM    6  C13 UNL     1      30.719   0.060  16.614  1.00  0.00     0.198 C
HETATM    7  C14 UNL     1      31.137   1.553  16.496  1.00  0.00     0.076 C
HETATM    8  N9  UNL     1      31.486  -0.739  15.730  1.00  0.00    -0.331 N
HETATM    9  C19 UNL     1      31.100  -2.088  15.716  1.00  0.00     0.142 C
HETATM   10  C20 UNL     1      31.238  -2.560  17.124  1.00  0.00     0.130 C
HETATM   11  N10 UNL     1      31.052  -3.772  17.414  1.00  0.00    -0.383 N
ATOM     12 1H10 UNL     1      31.146  -4.096  18.377  1.00  0.00     0.157 HD
ATOM     13 2H10 UNL     1      30.810  -4.466  16.706  1.00  0.00     0.157 HD
HETATM   14  N11 UNL     1      31.573  -1.600  18.106  1.00  0.00    -0.269 N
ATOM     15  H11 UNL     1      32.173  -1.841  18.895  1.00  0.00     0.190 HD
HETATM   16  N12 UNL     1      31.062  -0.323  17.963  1.00  0.00    -0.208 N
ENDROOT
BRANCH   5  17
HETATM   17  N3  UNL     1      28.711   0.145  15.083  1.00  0.00    -0.326 N
ATOM     18  H3  UNL     1      28.640  -0.741  14.583  1.00  0.00     0.169 HD
BRANCH  17  19
HETATM   19  C7  UNL     1      28.250   1.284  14.397  1.00  0.00     0.146 A
HETATM   20  N4  UNL     1      28.986   2.042  13.582  1.00  0.00    -0.324 N
HETATM   21  C8  UNL     1      28.498   3.124  12.928  1.00  0.00     0.141 A
ATOM     22  H4  UNL     1      29.966   1.794  13.444  1.00  0.00     0.169 HD
HETATM   23  N8  UNL     1      27.214   3.454  13.102  1.00  0.00    -0.319 N
HETATM   24  C11 UNL     1      26.373   2.751  13.909  1.00  0.00     0.179 A
ATOM     25  H8  UNL     1      26.848   4.267  12.607  1.00  0.00     0.169 HD
HETATM   26  C12 UNL     1      26.926   1.664  14.549  1.00  0.00     0.161 A
BRANCH  21  27
HETATM   27  C9  UNL     1      29.331   3.964  12.093  1.00  0.00     0.273 C
BRANCH  27  28
HETATM   28  N5  UNL     1      30.504   3.863  11.904  1.00  0.00    -0.253 NA
BRANCH  28  29
HETATM   29  N6  UNL     1      31.693   3.723  11.561  1.00  0.00    -0.188 NA
HETATM   30  C10 UNL     1      33.016   3.567  11.179  1.00  0.00     0.437 C
HETATM   31  N7  UNL     1      33.291   2.237  10.548  1.00  0.00    -0.023 NA
HETATM   32  O3  UNL     1      33.969   4.261  11.249  1.00  0.00    -0.231 OA
ENDBRANCH  28  29
ENDBRANCH  27  28
ENDBRANCH  21  27
BRANCH  24  33
HETATM   33  O4  UNL     1      25.038   3.110  14.083  1.00  0.00    -0.344 OA
ATOM     34  H4  UNL     1      24.446   2.609  14.633  1.00  0.00     0.219 HD
ENDBRANCH  24  33
BRANCH  26  35
HETATM   35  O5  UNL     1      26.098   0.914  15.388  1.00  0.00    -0.354 OA
ATOM     36  H5  UNL     1      25.598   1.361  16.061  1.00  0.00     0.218 HD
ENDBRANCH  26  35
ENDBRANCH  17  19
ENDBRANCH   5  17
BRANCH   8  37
HETATM   37  C15 UNL     1      32.152  -0.104  14.704  1.00  0.00     0.070 C
BRANCH  37  38
HETATM   38  C16 UNL     1      33.617  -0.406  14.615  1.00  0.00     0.016 C
HETATM   39  C17 UNL     1      34.229   0.636  13.664  1.00  0.00     0.015 C
HETATM   40  C18 UNL     1      34.358  -0.365  15.930  1.00  0.00     0.015 C
ENDBRANCH  37  38
ENDBRANCH   8  37
BRANCH   1  41
HETATM   41  C4  UNL     1      30.549  -0.428  20.211  1.00  0.00     0.233 C
BRANCH  41  42
HETATM   42  C3  UNL     1      29.688  -1.527  20.699  1.00  0.00     0.274 C
HETATM   43  O2  UNL     1      29.587  -2.653  20.175  1.00  0.00    -0.264 OA
BRANCH  42  44
HETATM   44  O1  UNL     1      28.937  -1.266  21.829  1.00  0.00    -0.321 OA
BRANCH  44  45
HETATM   45  C2  UNL     1      27.577  -1.459  22.012  1.00  0.00     0.174 C
HETATM   46  C1  UNL     1      26.765  -0.237  21.707  1.00  0.00     0.034 C
ENDBRANCH  44  45
ENDBRANCH  42  44
ENDBRANCH  41  42
ENDBRANCH   1  41
TORSDOF 13
ENDMDL