MODEL 1
REMARK VINA RESULT: -9.002849548      0.000      0.000
REMARK  10 active torsions:
REMARK  status: ('A' for Active; 'I' for Inactive)
REMARK    1  A    between atoms: S1_2  and  C2_3
REMARK    2  A    between atoms: C2_3  and  C3_4
REMARK    3  A    between atoms: C3_4  and  C4_5
REMARK    4  A    between atoms: N1_6  and  N2_8
REMARK       I    between atoms: N2_8  and  C5_10
REMARK    5  A    between atoms: C5_10  and  C6_12
REMARK    6  A    between atoms: C9_19  and  N6_20
REMARK    7  A    between atoms: N6_20  and  C10_22
REMARK    8  A    between atoms: C13_28  and  N8_29
REMARK    9  A    between atoms: N10_38  and  O3_39
REMARK   10  A    between atoms: O3_39  and  C15_40
ROOT
HETATM    1  N6  UNL     1      27.817   0.324  14.931  1.00  0.00    -0.182 N
ATOM      2  H6  UNL     1      27.508  -0.498  14.412  1.00  0.00     0.184 HD
ENDROOT
BRANCH   1   3
HETATM    3  C9  UNL     1      27.661   1.569  14.292  1.00  0.00     0.141 A
HETATM    4  C8  UNL     1      26.446   2.219  14.353  1.00  0.00     0.149 A
HETATM    5  N4  UNL     1      26.288   3.385  13.666  1.00  0.00    -0.330 N
HETATM    6  N5  UNL     1      25.358   1.700  15.109  1.00  0.00    -0.080 NA
HETATM    7  C7  UNL     1      27.260   3.916  12.939  1.00  0.00     0.137 A
ATOM      8  H4  UNL     1      25.390   3.865  13.713  1.00  0.00     0.168 HD
HETATM    9  C6  UNL     1      28.526   3.314  12.826  1.00  0.00     0.127 A
HETATM   10  N3  UNL     1      27.083   5.164  12.235  1.00  0.00    -0.081 NA
HETATM   11  C17 UNL     1      28.665   2.140  13.530  1.00  0.00     0.221 A
HETATM   12  O5  UNL     1      29.761   1.512  13.505  1.00  0.00    -0.285 OA
BRANCH   9  13
HETATM   13  C5  UNL     1      29.490   3.906  11.927  1.00  0.00     0.277 C
HETATM   14  N2  UNL     1      30.841   4.160  12.226  1.00  0.00    -0.266 N
ATOM     15  H2  UNL     1      31.187   3.928  13.157  1.00  0.00     0.190 HD
HETATM   16  O1  UNL     1      29.125   4.248  10.753  1.00  0.00    -0.266 OA
BRANCH  14  17
HETATM   17  N1  UNL     1      31.719   4.708  11.315  1.00  0.00    -0.313 N
HETATM   18  C4  UNL     1      32.731   4.256  10.781  1.00  0.00     0.081 C
ATOM     19  H1  UNL     1      31.487   5.661  11.032  1.00  0.00     0.185 HD
BRANCH  18  20
HETATM   20  C3  UNL     1      33.393   2.948  10.905  1.00  0.00     0.056 C
BRANCH  20  21
HETATM   21  C2  UNL     1      34.340   2.979  12.092  1.00  0.00     0.078 C
BRANCH  21  22
HETATM   22  S1  UNL     1      36.021   3.173  11.452  1.00  0.00    -0.173 SA
HETATM   23  C1  UNL     1      36.573   4.879  11.390  1.00  0.00     0.089 C
ENDBRANCH  21  22
ENDBRANCH  20  21
ENDBRANCH  18  20
ENDBRANCH  14  17
ENDBRANCH   9  13
ENDBRANCH   1   3
BRANCH   1  24
HETATM   24  C10 UNL     1      28.363   0.092  16.225  1.00  0.00     0.711 A
HETATM   25  N7  UNL     1      27.909   0.689  17.269  1.00  0.00    -0.179 N
HETATM   26  C11 UNL     1      28.611   0.289  18.437  1.00  0.00     0.306 A
ATOM     27  H7  UNL     1      27.144   1.364  17.260  1.00  0.00     0.181 HD
HETATM   28  C12 UNL     1      29.287   1.478  19.080  1.00  0.00     0.150 C
HETATM   29  N9  UNL     1      27.680  -0.292  19.343  1.00  0.00    -0.000 N
HETATM   30  C14 UNL     1      29.622  -0.673  17.946  1.00  0.00     0.323 A
HETATM   31  S2  UNL     1      29.510   0.773  20.758  1.00  0.00    -0.104 SA
HETATM   32  C13 UNL     1      28.212  -0.488  20.643  1.00  0.00     0.446 C
ATOM     33  H92 UNL     1      26.821   0.257  19.382  1.00  0.00     0.284 HD
ATOM     34  H91 UNL     1      27.305  -1.164  18.970  1.00  0.00     0.284 HD
HETATM   35  O2  UNL     1      30.487  -1.276  18.660  1.00  0.00    -0.265 OA
HETATM   36  N10 UNL     1      29.443  -0.787  16.555  1.00  0.00    -0.002 N
BRANCH  32  37
HETATM   37  N8  UNL     1      27.145  -0.176  21.610  1.00  0.00    -0.041 N
ATOM     38  H83 UNL     1      26.798  -1.009  22.086  1.00  0.00     0.277 HD
ATOM     39  H82 UNL     1      27.497   0.321  22.429  1.00  0.00     0.277 HD
ATOM     40  H81 UNL     1      26.401   0.336  21.137  1.00  0.00     0.277 HD
ENDBRANCH  32  37
BRANCH  36  41
HETATM   41  O3  UNL     1      30.129  -1.552  15.656  1.00  0.00    -0.176 OA
BRANCH  41  42
HETATM   42  C15 UNL     1      31.270  -1.235  14.990  1.00  0.00     0.278 C
HETATM   43  C16 UNL     1      31.523  -1.700  13.621  1.00  0.00     0.128 C
HETATM   44  O4  UNL     1      32.126  -0.512  15.603  1.00  0.00    -0.264 OA
ENDBRANCH  41  42
ENDBRANCH  36  41
ENDBRANCH   1  24
TORSDOF 10
ENDMDL