MODEL 3
REMARK VINA RESULT: -9.238962118      3.816      7.198
REMARK  12 active torsions:
REMARK  status: ('A' for Active; 'I' for Inactive)
REMARK    1  A    between atoms: N1_2  and  C2_4
REMARK    2  A    between atoms: C3_9  and  C4_10
REMARK    3  A    between atoms: C4_10  and  O1_11
REMARK    4  A    between atoms: C4_10  and  O2_13
REMARK    5  A    between atoms: N4_17  and  C7_19
REMARK    6  A    between atoms: C9_21  and  N5_22
REMARK    7  A    between atoms: N5_22  and  C10_24
REMARK    8  A    between atoms: C10_24  and  C11_25
REMARK    9  A    between atoms: C16_34  and  O3_35
REMARK   10  A    between atoms: O3_35  and  C17_36
REMARK   11  A    between atoms: C18_39  and  N9_40
REMARK   12  A    between atoms: C19_45  and  N11_46
ROOT
HETATM    1  C7  UNL     1      30.416  -0.128  14.155  1.00  0.00     0.093 C
HETATM    2  C8  UNL     1      31.157   0.685  15.232  1.00  0.00     0.101 C
HETATM    3  C9  UNL     1      31.738   1.905  14.661  1.00  0.00     0.076 C
HETATM    4  N7  UNL     1      30.960   2.630  13.928  1.00  0.00    -0.353 N
ATOM      5  H7  UNL     1      31.306   3.490  13.502  1.00  0.00     0.163 HD
HETATM    6  C16 UNL     1      29.610   2.213  13.720  1.00  0.00     0.233 C
HETATM    7  C20 UNL     1      29.431   0.746  13.426  1.00  0.00     0.079 C
ENDROOT
BRANCH   1   8
HETATM    8  N4  UNL     1      31.362  -0.781  13.355  1.00  0.00    -0.376 N
HETATM    9  C6  UNL     1      31.938  -1.910  13.345  1.00  0.00     0.117 A
HETATM   10  C2  UNL     1      31.766  -2.943  14.240  1.00  0.00     0.149 A
HETATM   11  S1  UNL     1      33.107  -2.300  12.109  1.00  0.00    -0.049 SA
HETATM   12  N2  UNL     1      32.410  -4.127  14.192  1.00  0.00    -0.283 N
HETATM   13  N3  UNL     1      33.287  -4.522  13.331  1.00  0.00    -0.292 N
ATOM     14  H2  UNL     1      32.175  -4.794  14.928  1.00  0.00     0.188 HD
HETATM   15  C3  UNL     1      33.756  -3.849  12.295  1.00  0.00     0.123 A
ATOM     16  H3  UNL     1      33.661  -5.462  13.466  1.00  0.00     0.187 HD
ATOM     17  H4  UNL     1      31.668  -0.194  12.578  1.00  0.00     0.160 HD
BRANCH  10  18
HETATM   18  N1  UNL     1      30.901  -2.746  15.205  1.00  0.00    -0.377 N
HETATM   19  C1  UNL     1      30.488  -3.866  16.014  1.00  0.00     0.148 C
ATOM     20  H1  UNL     1      30.526  -1.813  15.383  1.00  0.00     0.160 HD
ENDBRANCH  10  18
BRANCH  15  21
HETATM   21  C4  UNL     1      34.790  -4.451  11.368  1.00  0.00     0.316 C
BRANCH  21  22
HETATM   22  O1  UNL     1      34.880  -3.548  10.294  1.00  0.00    -0.365 OA
ATOM     23  H1  UNL     1      35.685  -3.781   9.846  1.00  0.00     0.213 HD
ENDBRANCH  21  22
BRANCH  21  24
HETATM   24  O2  UNL     1      36.023  -4.503  11.966  1.00  0.00    -0.360 OA
HETATM   25  C5  UNL     1      36.518  -5.769  12.155  1.00  0.00     0.205 C
ENDBRANCH  21  24
ENDBRANCH  15  21
ENDBRANCH   1   8
BRANCH   3  26
HETATM   26  N5  UNL     1      33.092   2.239  14.921  1.00  0.00    -0.376 N
ATOM     27  H5  UNL     1      33.279   3.111  15.416  1.00  0.00     0.161 HD
BRANCH  26  28
HETATM   28  C10 UNL     1      34.226   1.430  14.534  1.00  0.00     0.160 C
BRANCH  28  29
HETATM   29  C11 UNL     1      34.799   1.914  13.280  1.00  0.00    -0.025 A
HETATM   30  C12 UNL     1      34.837   3.264  13.003  1.00  0.00     0.011 A
HETATM   31  C13 UNL     1      35.381   3.716  11.813  1.00  0.00     0.018 A
HETATM   32  C14 UNL     1      35.875   2.772  10.932  1.00  0.00     0.087 A
HETATM   33  N6  UNL     1      35.841   1.465  11.194  1.00  0.00    -0.375 N
HETATM   34  C15 UNL     1      35.308   1.049  12.353  1.00  0.00     0.096 A
ATOM     35  H6  UNL     1      36.213   0.792  10.524  1.00  0.00     0.164 HD
ENDBRANCH  28  29
ENDBRANCH  26  28
ENDBRANCH   3  26
BRANCH   6  36
HETATM   36  O3  UNL     1      28.931   3.020  12.779  1.00  0.00    -0.295 OA
BRANCH  36  37
HETATM   37  C17 UNL     1      29.477   4.164  12.230  1.00  0.00     0.254 A
HETATM   38  N8  UNL     1      30.322   4.057  11.192  1.00  0.00    -0.154 N
HETATM   39  C18 UNL     1      30.884   5.162  10.622  1.00  0.00     0.693 A
ATOM     40  H8  UNL     1      30.548   3.133  10.822  1.00  0.00     0.188 HD
HETATM   41  N10 UNL     1      30.597   6.369  11.092  1.00  0.00    -0.023 N
HETATM   42  C19 UNL     1      29.757   6.497  12.127  1.00  0.00     0.693 A
ATOM     43  H10 UNL     1      31.016   7.196  10.667  1.00  0.00     0.203 HD
HETATM   44  N12 UNL     1      29.198   5.388  12.694  1.00  0.00    -0.154 N
ATOM     45  H12 UNL     1      28.558   5.493  13.482  1.00  0.00     0.188 HD
BRANCH  39  46
HETATM   46  N9  UNL     1      31.690   5.022   9.627  1.00  0.00    -0.234 N
ATOM     47  H92 UNL     1      31.384   4.556   8.773  1.00  0.00     0.174 HD
ATOM     48  H91 UNL     1      32.643   5.379   9.699  1.00  0.00     0.174 HD
ENDBRANCH  39  46
BRANCH  42  49
HETATM   49  N11 UNL     1      29.474   7.654  12.587  1.00  0.00    -0.234 N
ATOM     50 2H11 UNL     1      30.211   8.230  12.996  1.00  0.00     0.174 HD
ATOM     51 1H11 UNL     1      28.517   8.004  12.548  1.00  0.00     0.174 HD
ENDBRANCH  42  49
ENDBRANCH  36  37
ENDBRANCH   6  36
TORSDOF 12
ENDMDL