MODEL 5
REMARK VINA RESULT: -8.079306183      3.778      6.737
REMARK  12 active torsions:
REMARK  status: ('A' for Active; 'I' for Inactive)
REMARK       I    between atoms: C2_2  and  N1_4
REMARK    1  A    between atoms: N1_4  and  C3_6
REMARK    2  A    between atoms: C3_6  and  C4_7
REMARK    3  A    between atoms: C4_7  and  S1_8
REMARK    4  A    between atoms: S1_8  and  S2_9
REMARK    5  A    between atoms: S2_9  and  C5_10
REMARK    6  A    between atoms: C5_10  and  C6_11
REMARK    7  A    between atoms: C6_11  and  N2_12
REMARK    8  A    between atoms: C10_17  and  S3_18
REMARK    9  A    between atoms: C11_22  and  N3_23
REMARK   10  A    between atoms: C12_29  and  N6_30
REMARK   11  A    between atoms: N6_30  and  N7_32
REMARK   12  A    between atoms: N8_35  and  O5_36
ROOT
HETATM    1  N2  UNL     1      30.986   0.347  13.972  1.00  0.00    -0.390 N
ATOM      2  H2  UNL     1      30.381   0.955  13.422  1.00  0.00     0.159 HD
HETATM    3  C7  UNL     1      32.256   0.397  13.818  1.00  0.00     0.044 C
HETATM    4  C8  UNL     1      33.052   1.232  12.928  1.00  0.00     0.065 A
HETATM    5  C9  UNL     1      34.253   0.572  12.779  1.00  0.00     0.073 A
HETATM    6  C10 UNL     1      35.238   1.118  11.980  1.00  0.00     0.153 A
HETATM    7  C11 UNL     1      34.971   2.317  11.359  1.00  0.00     0.150 A
HETATM    8  N4  UNL     1      33.780   2.945  11.524  1.00  0.00    -0.204 N
HETATM    9  N5  UNL     1      33.276   4.074  11.056  1.00  0.00    -0.118 N
ATOM     10  H5  UNL     1      33.760   4.717  10.430  1.00  0.00     0.206 HD
HETATM   11  C12 UNL     1      32.032   4.246  11.531  1.00  0.00     0.739 A
HETATM   12  N8  UNL     1      31.722   3.205  12.323  1.00  0.00    -0.030 N
HETATM   13  C13 UNL     1      32.799   2.417  12.310  1.00  0.00     0.190 A
HETATM   14  N9  UNL     1      34.250  -0.645  13.538  1.00  0.00    -0.378 N
ATOM     15  H9  UNL     1      34.833  -1.470  13.391  1.00  0.00     0.160 HD
HETATM   16  C14 UNL     1      33.230  -0.447  14.567  1.00  0.00     0.128 C
HETATM   17  C15 UNL     1      33.801   0.286  15.760  1.00  0.00     0.039 C
ENDROOT
BRANCH   1  18
HETATM   18  C6  UNL     1      30.420  -0.561  14.915  1.00  0.00     0.130 C
BRANCH  18  19
HETATM   19  C5  UNL     1      29.208  -0.021  15.634  1.00  0.00     0.105 C
BRANCH  19  20
HETATM   20  S2  UNL     1      28.342   1.044  14.415  1.00  0.00    -0.096 SA
BRANCH  20  21
HETATM   21  S1  UNL     1      26.382   1.350  15.183  1.00  0.00    -0.096 SA
BRANCH  21  22
HETATM   22  C4  UNL     1      25.618   2.629  14.112  1.00  0.00     0.105 C
BRANCH  22  23
HETATM   23  C3  UNL     1      26.709   3.073  13.167  1.00  0.00     0.133 C
BRANCH  23  24
HETATM   24  N1  UNL     1      26.931   4.496  13.214  1.00  0.00    -0.361 N
HETATM   25  C2  UNL     1      27.799   5.150  12.312  1.00  0.00     0.213 C
HETATM   26  C1  UNL     1      28.011   6.629  12.393  1.00  0.00     0.117 C
HETATM   27  O1  UNL     1      28.432   4.564  11.414  1.00  0.00    -0.274 OA
ATOM     28  H1  UNL     1      26.446   5.048  13.921  1.00  0.00     0.162 HD
ENDBRANCH  23  24
ENDBRANCH  22  23
ENDBRANCH  21  22
ENDBRANCH  20  21
ENDBRANCH  19  20
ENDBRANCH  18  19
ENDBRANCH   1  18
BRANCH   6  29
HETATM   29  S3  UNL     1      36.772   0.298  11.776  1.00  0.00     0.143 S
HETATM   30  O2  UNL     1      36.890  -0.923  12.619  1.00  0.00    -0.591 OA
HETATM   31  O3  UNL     1      37.891   1.234  12.203  1.00  0.00    -0.591 OA
HETATM   32  O4  UNL     1      37.070  -0.085  10.170  1.00  0.00    -0.591 OA
ENDBRANCH   6  29
BRANCH  12  33
HETATM   33  O5  UNL     1      30.518   3.100  12.950  1.00  0.00    -0.268 OA
ATOM     34  H5  UNL     1      29.926   2.373  12.794  1.00  0.00     0.246 HD
ENDBRANCH  12  33
BRANCH   7  35
HETATM   35  N3  UNL     1      35.885   2.834  10.608  1.00  0.00    -0.383 N
ATOM     36  H32 UNL     1      36.629   2.252  10.224  1.00  0.00     0.157 HD
ATOM     37  H31 UNL     1      35.842   3.834  10.413  1.00  0.00     0.157 HD
ENDBRANCH   7  35
BRANCH  11  38
HETATM   38  N6  UNL     1      31.257   5.267  11.260  1.00  0.00    -0.135 N
ATOM     39  H6  UNL     1      30.939   5.882  12.009  1.00  0.00     0.205 HD
BRANCH  38  40
HETATM   40  N7  UNL     1      30.867   5.509   9.940  1.00  0.00    -0.331 N
ATOM     41  H72 UNL     1      31.492   6.030   9.326  1.00  0.00     0.177 HD
ATOM     42  H71 UNL     1      29.967   5.165   9.608  1.00  0.00     0.177 HD
ENDBRANCH  38  40
ENDBRANCH  11  38
TORSDOF 12
ENDMDL