MODEL 4
REMARK VINA RESULT: -7.551449377      3.713      8.056
REMARK  6 active torsions:
REMARK  status: ('A' for Active; 'I' for Inactive)
REMARK    1  A    between atoms: C2_2  and  N1_3
REMARK    2  A    between atoms: N1_3  and  C3_4
REMARK    3  A    between atoms: C3_4  and  C4_5
REMARK    4  A    between atoms: C4_5  and  O1_6
REMARK    5  A    between atoms: C4_5  and  N2_8
REMARK       I    between atoms: N2_8  and  C5_10
REMARK       I    between atoms: C5_10  and  N3_12
REMARK    6  A    between atoms: N3_12  and  C6_14
ROOT
HETATM    1  N2  UNL     1     -27.628 -13.777  69.319  1.00  0.00    -0.315 N
ATOM      2  H2  UNL     1     -26.617 -13.771  69.454  1.00  0.00     0.166 HD
HETATM    3  C5  UNL     1     -28.477 -13.848  70.467  1.00  0.00     0.318 C
HETATM    4  O2  UNL     1     -29.724 -13.855  70.316  1.00  0.00    -0.247 OA
HETATM    5  N3  UNL     1     -27.968 -13.912  71.782  1.00  0.00    -0.336 N
ATOM      6  H3  UNL     1     -26.957 -13.907  71.921  1.00  0.00     0.164 HD
ENDROOT
BRANCH   1   7
HETATM    7  C4  UNL     1     -28.157 -13.712  67.967  1.00  0.00     0.247 C
BRANCH   7   8
HETATM    8  C3  UNL     1     -27.056 -13.172  67.106  1.00  0.00     0.290 C
BRANCH   8   9
HETATM    9  N1  UNL     1     -27.308 -11.947  66.438  1.00  0.00    -0.063 N
HETATM   10  C10 UNL     1     -27.676 -10.977  67.490  1.00  0.00     0.237 C
HETATM   11  C11 UNL     1     -28.234  -9.805  66.755  1.00  0.00     0.029 C
HETATM   12  C12 UNL     1     -28.814 -10.463  65.522  1.00  0.00     0.029 C
HETATM   13  C13 UNL     1     -28.489 -11.940  65.623  1.00  0.00     0.237 C
BRANCH   9  14
HETATM   14  C2  UNL     1     -26.237 -11.368  65.716  1.00  0.00     0.233 C
HETATM   15  C1  UNL     1     -25.384 -12.298  64.933  1.00  0.00     0.035 C
ENDBRANCH   9  14
ENDBRANCH   8   9
ENDBRANCH   7   8
BRANCH   7  16
HETATM   16  O1  UNL     1     -28.635 -14.953  67.569  1.00  0.00    -0.375 OA
ATOM     17  H1  UNL     1     -27.973 -15.525  67.199  1.00  0.00     0.212 HD
ENDBRANCH   7  16
ENDBRANCH   1   7
BRANCH   5  18
HETATM   18  C6  UNL     1     -28.827 -13.984  72.933  1.00  0.00     0.112 C
HETATM   19  C7  UNL     1     -28.050 -13.957  74.232  1.00  0.00     0.148 C
HETATM   20  N4  UNL     1     -28.935 -13.242  75.158  1.00  0.00    -0.359 N
HETATM   21  C8  UNL     1     -30.009 -12.651  74.438  1.00  0.00     0.219 C
ATOM     22  H4  UNL     1     -28.801 -13.180  76.167  1.00  0.00     0.162 HD
HETATM   23  O3  UNL     1     -31.023 -12.171  74.979  1.00  0.00    -0.274 OA
HETATM   24  C9  UNL     1     -29.663 -12.735  72.998  1.00  0.00     0.129 C
ENDBRANCH   5  18
TORSDOF 6
ENDMDL