MODEL 3
REMARK VINA RESULT: -7.682357820      9.044     13.617
REMARK  6 active torsions:
REMARK  status: ('A' for Active; 'I' for Inactive)
REMARK       I    between atoms: N1_3  and  C3_5
REMARK       I    between atoms: C3_5  and  N2_7
REMARK    1  A    between atoms: N2_7  and  C4_9
REMARK    2  A    between atoms: C4_9  and  C5_10
REMARK    3  A    between atoms: C5_10  and  N3_11
REMARK       I    between atoms: N3_11  and  C6_13
REMARK       I    between atoms: C6_13  and  N5_17
REMARK    4  A    between atoms: N5_17  and  C7_19
REMARK    5  A    between atoms: C7_19  and  C8_20
REMARK    6  A    between atoms: C8_20  and  N6_21
ROOT
HETATM    1  C1  UNL     1     -28.488 -14.056  73.627  1.00  0.00     0.037 C
HETATM    2  C2  UNL     1     -29.133 -13.347  74.364  1.00  0.00     0.003 C
HETATM    3  N1  UNL     1     -29.898 -12.537  75.205  1.00  0.00    -0.268 N
ATOM      4  H1  UNL     1     -29.766 -12.600  76.215  1.00  0.00     0.181 HD
HETATM    5  C3  UNL     1     -30.854 -11.628  74.685  1.00  0.00     0.327 C
HETATM    6  O1  UNL     1     -31.045 -11.518  73.441  1.00  0.00    -0.246 OA
HETATM    7  N2  UNL     1     -31.594 -10.842  75.610  1.00  0.00    -0.341 N
ATOM      8  H2  UNL     1     -31.449 -10.921  76.616  1.00  0.00     0.164 HD
ENDROOT
BRANCH   7   9
HETATM    9  C4  UNL     1     -32.578  -9.909  75.044  1.00  0.00     0.144 C
BRANCH   9  10
HETATM   10  C5  UNL     1     -33.952 -10.408  75.359  1.00  0.00     0.157 C
BRANCH  10  11
HETATM   11  N3  UNL     1     -34.880  -9.306  75.352  1.00  0.00    -0.225 N
HETATM   12  C6  UNL     1     -35.463  -8.809  76.542  1.00  0.00     0.667 C
HETATM   13  N4  UNL     1     -34.838  -8.336  77.534  1.00  0.00    -0.235 N
HETATM   14  N5  UNL     1     -36.923  -8.873  76.559  1.00  0.00    -0.225 N
ATOM     15  H42 UNL     1     -33.819  -8.291  77.522  1.00  0.00     0.174 HD
ATOM     16  H41 UNL     1     -35.258  -7.977  78.391  1.00  0.00     0.174 HD
ATOM     17  H5  UNL     1     -37.439  -9.383  77.277  1.00  0.00     0.177 HD
ATOM     18  H3  UNL     1     -35.124  -8.871  74.462  1.00  0.00     0.177 HD
BRANCH  14  19
HETATM   19  C7  UNL     1     -37.572  -8.178  75.510  1.00  0.00     0.166 C
BRANCH  19  20
HETATM   20  C8  UNL     1     -37.428  -6.722  75.395  1.00  0.00     0.257 C
BRANCH  20  21
HETATM   21  N6  UNL     1     -37.396  -6.180  74.088  1.00  0.00    -0.069 N
HETATM   22  C9  UNL     1     -38.770  -6.126  73.583  1.00  0.00     0.272 C
HETATM   23  C10 UNL     1     -36.494  -6.649  73.112  1.00  0.00     0.237 C
HETATM   24  C11 UNL     1     -35.169  -6.079  73.642  1.00  0.00     0.029 C
HETATM   25  C12 UNL     1     -35.576  -4.648  73.911  1.00  0.00     0.029 C
HETATM   26  C13 UNL     1     -37.036  -4.724  74.203  1.00  0.00     0.237 C
ENDBRANCH  20  21
ENDBRANCH  19  20
ENDBRANCH  14  19
ENDBRANCH  10  11
ENDBRANCH   9  10
ENDBRANCH   7   9
TORSDOF 6
ENDMDL