MODEL 2
REMARK VINA RESULT: -7.853542203      1.432      2.603
REMARK  5 active torsions:
REMARK  status: ('A' for Active; 'I' for Inactive)
REMARK    1  A    between atoms: C3_3  and  N1_4
REMARK    2  A    between atoms: C3_3  and  C4_8
REMARK       I    between atoms: N2_12  and  C8_13
REMARK       I    between atoms: C8_13  and  N4_17
REMARK    3  A    between atoms: N4_17  and  C9_19
REMARK    4  A    between atoms: C9_19  and  C10_20
REMARK    5  A    between atoms: C10_20  and  N5_21
ROOT
HETATM    1  C1  UNL     1     -29.891 -14.437  70.420  1.00  0.00     0.014 C
HETATM    2  C2  UNL     1     -29.397 -13.761  69.546  1.00  0.00    -0.082 C
HETATM    3  C3  UNL     1     -28.791 -12.953  68.469  1.00  0.00     0.284 C
ENDROOT
BRANCH   3   4
HETATM    4  N1  UNL     1     -29.769 -12.765  67.452  1.00  0.00    -0.063 N
ATOM      5  H13 UNL     1     -30.230 -13.635  67.183  1.00  0.00     0.275 HD
ATOM      6  H12 UNL     1     -30.596 -12.271  67.787  1.00  0.00     0.275 HD
ATOM      7  H11 UNL     1     -29.322 -12.296  66.664  1.00  0.00     0.275 HD
ENDBRANCH   3   4
BRANCH   3   8
HETATM    8  C4  UNL     1     -27.552 -13.656  68.012  1.00  0.00     0.144 C
HETATM    9  C5  UNL     1     -27.800 -14.963  67.339  1.00  0.00     0.030 C
HETATM   10  C6  UNL     1     -26.535 -15.169  66.528  1.00  0.00     0.022 C
HETATM   11  C7  UNL     1     -25.793 -13.850  66.573  1.00  0.00     0.142 C
HETATM   12  N2  UNL     1     -26.815 -12.921  67.008  1.00  0.00    -0.211 N
HETATM   13  C8  UNL     1     -26.981 -11.605  66.508  1.00  0.00     0.670 C
HETATM   14  N3  UNL     1     -27.165 -10.617  67.313  1.00  0.00    -0.235 N
HETATM   15  N4  UNL     1     -26.958 -11.289  65.108  1.00  0.00    -0.225 N
ATOM     16  H32 UNL     1     -27.182 -10.841  68.309  1.00  0.00     0.174 HD
ATOM     17  H31 UNL     1     -27.285  -9.670  66.953  1.00  0.00     0.174 HD
ATOM     18  H4  UNL     1     -27.774 -11.504  64.536  1.00  0.00     0.177 HD
BRANCH  15  19
HETATM   19  C9  UNL     1     -25.802 -10.670  64.488  1.00  0.00     0.166 C
BRANCH  19  20
HETATM   20  C10 UNL     1     -24.579 -11.140  65.186  1.00  0.00     0.259 C
BRANCH  20  21
HETATM   21  N5  UNL     1     -23.475 -11.453  64.344  1.00  0.00    -0.044 N
HETATM   22  C11 UNL     1     -23.957 -11.568  62.979  1.00  0.00     0.274 C
HETATM   23  C12 UNL     1     -22.813 -12.694  64.694  1.00  0.00     0.266 C
HETATM   24  C13 UNL     1     -21.489 -12.558  63.970  1.00  0.00     0.262 C
HETATM   25  N6  UNL     1     -21.286 -11.144  63.765  1.00  0.00    -0.049 N
HETATM   26  C14 UNL     1     -22.424 -10.470  64.357  1.00  0.00     0.467 C
ATOM     27  H62 UNL     1     -20.390 -10.811  64.121  1.00  0.00     0.279 HD
ATOM     28  H61 UNL     1     -21.135 -10.897  62.787  1.00  0.00     0.279 HD
ENDBRANCH  20  21
ENDBRANCH  19  20
ENDBRANCH  15  19
ENDBRANCH   3   8
TORSDOF 5
ENDMDL