MODEL 5
REMARK VINA RESULT: -7.701237497      7.672     10.141
REMARK  6 active torsions:
REMARK  status: ('A' for Active; 'I' for Inactive)
REMARK    1  A    between atoms: C3_3  and  C4_4
REMARK    2  A    between atoms: C4_4  and  C5_5
REMARK    3  A    between atoms: C5_5  and  C6_6
REMARK    4  A    between atoms: C6_6  and  C7_7
REMARK    5  A    between atoms: C7_7  and  O1_8
REMARK    6  A    between atoms: C12_17  and  N2_18
REMARK       I    between atoms: N2_18  and  C13_20
REMARK       I    between atoms: C13_20  and  N4_24
ROOT
HETATM    1  C1  UNL     1     -30.643  -9.441  77.411  1.00  0.00     0.013 C
HETATM    2  C2  UNL     1     -31.044  -9.924  76.403  1.00  0.00    -0.106 C
HETATM    3  C3  UNL     1     -31.534 -10.547  75.062  1.00  0.00     0.172 C
ENDROOT
BRANCH   3   4
HETATM    4  C4  UNL     1     -32.470  -9.896  74.643  1.00  0.00    -0.170 C
BRANCH   4   5
HETATM    5  C5  UNL     1     -33.568  -9.128  74.152  1.00  0.00     0.104 C
BRANCH   5   6
HETATM    6  C6  UNL     1     -34.917  -9.695  74.083  1.00  0.00     0.094 C
HETATM    7  C8  UNL     1     -35.243 -10.428  75.364  1.00  0.00     0.232 C
HETATM    8  O2  UNL     1     -35.091 -11.614  75.734  1.00  0.00    -0.272 OA
HETATM    9  N1  UNL     1     -35.826  -9.410  76.217  1.00  0.00    -0.350 N
HETATM   10  C9  UNL     1     -36.834  -8.831  75.314  1.00  0.00     0.048 C
ATOM     11  H1  UNL     1     -35.599  -9.164  77.180  1.00  0.00     0.163 HD
HETATM   12  C10 UNL     1     -37.296  -7.570  75.950  1.00  0.00     0.040 C
HETATM   13  C11 UNL     1     -38.007  -9.753  75.117  1.00  0.00     0.040 C
HETATM   14  C12 UNL     1     -36.011  -8.650  74.049  1.00  0.00     0.147 C
BRANCH   6  15
HETATM   15  C7  UNL     1     -35.023 -10.720  72.977  1.00  0.00     0.186 C
BRANCH  15  16
HETATM   16  O1  UNL     1     -36.136 -11.503  73.149  1.00  0.00    -0.399 OA
ATOM     17  H1  UNL     1     -36.916 -11.044  72.860  1.00  0.00     0.209 HD
ENDBRANCH  15  16
ENDBRANCH   6  15
BRANCH  14  18
HETATM   18  N2  UNL     1     -35.582  -7.305  73.919  1.00  0.00    -0.217 N
HETATM   19  C13 UNL     1     -35.947  -6.310  72.978  1.00  0.00     0.686 C
HETATM   20  N3  UNL     1     -37.157  -6.223  72.603  1.00  0.00    -0.234 N
HETATM   21  N4  UNL     1     -35.017  -5.392  72.444  1.00  0.00    -0.139 N
ATOM     22  H32 UNL     1     -37.829  -6.886  72.990  1.00  0.00     0.174 HD
ATOM     23  H31 UNL     1     -37.419  -5.507  71.925  1.00  0.00     0.174 HD
HETATM   24  N5  UNL     1     -34.022  -5.052  73.113  1.00  0.00    -0.331 N
ATOM     25  H4  UNL     1     -35.159  -5.007  71.510  1.00  0.00     0.205 HD
ATOM     26  H52 UNL     1     -33.894  -5.445  74.045  1.00  0.00     0.177 HD
ATOM     27  H51 UNL     1     -33.349  -4.388  72.726  1.00  0.00     0.177 HD
ATOM     28  H2  UNL     1     -34.901  -7.004  74.615  1.00  0.00     0.178 HD
ENDBRANCH  14  18
ENDBRANCH   5   6
ENDBRANCH   4   5
ENDBRANCH   3   4
TORSDOF 6
ENDMDL