MODEL 5
REMARK VINA RESULT: -8.147847727      2.868      5.550
REMARK  5 active torsions:
REMARK  status: ('A' for Active; 'I' for Inactive)
REMARK    1  A    between atoms: C2_2  and  C3_3
REMARK       I    between atoms: C3_3  and  N1_5
REMARK    2  A    between atoms: N1_5  and  C4_7
REMARK    3  A    between atoms: C9_15  and  C10_16
REMARK    4  A    between atoms: C10_16  and  N3_17
REMARK       I    between atoms: N3_17  and  C11_18
REMARK       I    between atoms: C11_18  and  N4_20
REMARK    5  A    between atoms: N4_20  and  N5_22
ROOT
HETATM    1  C4  UNL     1     -36.171  -8.646  75.115  1.00  0.00     0.092 C
HETATM    2  C5  UNL     1     -37.273  -9.629  75.091  1.00  0.00     0.026 C
HETATM    3  C6  UNL     1     -36.858 -11.008  74.758  1.00  0.00     0.004 C
HETATM    4  C7  UNL     1     -35.928 -11.097  73.581  1.00  0.00     0.034 C
HETATM    5  C8  UNL     1     -35.545  -9.804  73.000  1.00  0.00     0.195 C
HETATM    6  N2  UNL     1     -34.094  -9.718  72.716  1.00  0.00    -0.060 N
ATOM      7  H21 UNL     1     -33.757  -9.327  71.837  1.00  0.00     0.278 HD
ATOM      8  H22 UNL     1     -33.547 -10.560  72.534  1.00  0.00     0.278 HD
HETATM    9  C9  UNL     1     -33.942  -9.004  73.933  1.00  0.00     0.246 C
HETATM   10  C12 UNL     1     -35.392  -8.647  73.862  1.00  0.00     0.076 C
ENDROOT
BRANCH   9  11
HETATM   11  C10 UNL     1     -33.367  -9.700  75.087  1.00  0.00     0.194 C
BRANCH  11  12
HETATM   12  N3  UNL     1     -32.272 -10.517  74.820  1.00  0.00    -0.366 NA
HETATM   13  C11 UNL     1     -31.205 -11.316  74.553  1.00  0.00     0.412 C
HETATM   14  O2  UNL     1     -30.768 -11.743  73.428  1.00  0.00    -0.228 OA
HETATM   15  N4  UNL     1     -30.376 -11.810  75.650  1.00  0.00    -0.225 N
ATOM     16  H4  UNL     1     -30.616 -11.545  76.606  1.00  0.00     0.194 HD
BRANCH  15  17
HETATM   17  N5  UNL     1     -29.271 -12.628  75.437  1.00  0.00    -0.245 N
HETATM   18  N6  UNL     1     -29.363 -13.726  74.825  1.00  0.00    -0.331 N
ATOM     19  H62 UNL     1     -30.282 -14.008  74.482  1.00  0.00     0.178 HD
ATOM     20  H61 UNL     1     -28.554 -14.326  74.669  1.00  0.00     0.178 HD
ATOM     21  H5  UNL     1     -28.360 -12.331  75.787  1.00  0.00     0.208 HD
ENDBRANCH  15  17
ENDBRANCH  11  12
ENDBRANCH   9  11
BRANCH   1  22
HETATM   22  N1  UNL     1     -36.750  -7.277  75.260  1.00  0.00    -0.356 N
HETATM   23  C3  UNL     1     -36.327  -6.434  76.306  1.00  0.00     0.217 C
HETATM   24  O1  UNL     1     -35.464  -6.783  77.144  1.00  0.00    -0.274 OA
ATOM     25  H1  UNL     1     -37.454  -6.951  74.598  1.00  0.00     0.162 HD
BRANCH  23  26
HETATM   26  C2  UNL     1     -36.919  -5.083  76.421  1.00  0.00     0.098 C
HETATM   27  C1  UNL     1     -36.498  -4.169  75.309  1.00  0.00     0.014 C
ENDBRANCH  23  26
ENDBRANCH   1  22
TORSDOF 5
ENDMDL