MODEL 5
REMARK VINA RESULT: -7.301362699     12.505     13.769
REMARK  5 active torsions:
REMARK  status: ('A' for Active; 'I' for Inactive)
REMARK    1  A    between atoms: C3_4  and  C4_5
REMARK    2  A    between atoms: C4_5  and  N2_6
REMARK       I    between atoms: N2_6  and  C5_8
REMARK       I    between atoms: C5_8  and  N4_12
REMARK    3  A    between atoms: N4_12  and  C6_14
REMARK    4  A    between atoms: C6_14  and  C9_17
REMARK    5  A    between atoms: C9_17  and  N5_18
ROOT
HETATM    1  N2  UNL     1     -32.920  -9.471  75.596  1.00  0.00    -0.225 N
ATOM      2  H2  UNL     1     -33.261  -8.776  76.260  1.00  0.00     0.177 HD
HETATM    3  C5  UNL     1     -33.651  -9.763  74.421  1.00  0.00     0.668 C
HETATM    4  N3  UNL     1     -33.602  -8.923  73.420  1.00  0.00    -0.235 N
ATOM      5  H31 UNL     1     -34.129  -9.133  72.573  1.00  0.00     0.174 HD
ATOM      6  H32 UNL     1     -33.028  -8.089  73.549  1.00  0.00     0.174 HD
HETATM    7  N4  UNL     1     -34.441 -10.910  74.243  1.00  0.00    -0.217 N
ATOM      8  H4  UNL     1     -34.026 -11.736  73.812  1.00  0.00     0.178 HD
ENDROOT
BRANCH   1   9
HETATM    9  C4  UNL     1     -31.690 -10.170  75.839  1.00  0.00     0.164 C
BRANCH   9  10
HETATM   10  C3  UNL     1     -30.841  -9.531  76.894  1.00  0.00     0.120 C
HETATM   11  C2  UNL     1     -31.794  -8.915  77.921  1.00  0.00     0.151 C
HETATM   12  N1  UNL     1     -30.928  -8.753  79.058  1.00  0.00    -0.361 N
HETATM   13  C1  UNL     1     -30.935  -7.731  80.082  1.00  0.00     0.152 C
HETATM   14  C10 UNL     1     -30.006  -9.850  78.990  1.00  0.00     0.169 C
HETATM   15  N7  UNL     1     -30.115 -10.459  77.707  1.00  0.00    -0.359 N
HETATM   16  S1  UNL     1     -29.003 -10.299  80.213  1.00  0.00    -0.041 SA
ATOM     17  H7  UNL     1     -29.750 -11.368  77.424  1.00  0.00     0.162 HD
ENDBRANCH   9  10
ENDBRANCH   1   9
BRANCH   7  18
HETATM   18  C6  UNL     1     -35.829 -10.956  74.653  1.00  0.00     0.057 C
HETATM   19  C7  UNL     1     -35.976 -11.474  76.050  1.00  0.00     0.040 C
HETATM   20  C8  UNL     1     -36.406  -9.570  74.498  1.00  0.00     0.040 C
BRANCH  18  21
HETATM   21  C9  UNL     1     -36.580 -11.894  73.700  1.00  0.00     0.169 C
BRANCH  21  22
HETATM   22  N5  UNL     1     -37.199 -12.962  74.425  1.00  0.00    -0.341 N
HETATM   23  N6  UNL     1     -37.269 -14.133  74.013  1.00  0.00    -0.349 N
ATOM     24  H62 UNL     1     -36.856 -14.327  73.102  1.00  0.00     0.176 HD
ATOM     25  H61 UNL     1     -37.711 -14.893  74.530  1.00  0.00     0.176 HD
ATOM     26  H5  UNL     1     -37.607 -12.749  75.335  1.00  0.00     0.179 HD
ENDBRANCH  21  22
ENDBRANCH  18  21
ENDBRANCH   7  18
TORSDOF 5
ENDMDL