MODEL 3
REMARK VINA RESULT: -7.122019191      2.227      3.410
REMARK  7 active torsions:
REMARK  status: ('A' for Active; 'I' for Inactive)
REMARK    1  A    between atoms: N1_2  and  C4_5
REMARK    2  A    between atoms: C4_5  and  C5_6
REMARK    3  A    between atoms: C5_6  and  N3_10
REMARK    4  A    between atoms: N3_10  and  N4_12
REMARK       I    between atoms: N4_12  and  C6_14
REMARK       I    between atoms: C6_14  and  N6_18
REMARK    5  A    between atoms: N6_18  and  C7_20
REMARK    6  A    between atoms: C7_20  and  C8_21
REMARK    7  A    between atoms: C8_21  and  N7_22
ROOT
HETATM    1  N4  UNL     1     -25.549 -13.953  65.114  1.00  0.00    -0.131 N
ATOM      2  H4  UNL     1     -25.089 -14.460  64.357  1.00  0.00     0.205 HD
HETATM    3  C6  UNL     1     -25.577 -14.505  66.438  1.00  0.00     0.686 C
HETATM    4  N5  UNL     1     -24.615 -14.413  67.265  1.00  0.00    -0.234 N
ATOM      5  H51 UNL     1     -24.635 -14.805  68.206  1.00  0.00     0.174 HD
ATOM      6  H52 UNL     1     -23.758 -13.926  67.004  1.00  0.00     0.174 HD
HETATM    7  N6  UNL     1     -26.774 -15.186  66.803  1.00  0.00    -0.224 N
ATOM      8  H6  UNL     1     -26.891 -16.163  66.538  1.00  0.00     0.177 HD
ENDROOT
BRANCH   1   9
HETATM    9  N3  UNL     1     -26.154 -12.721  64.865  1.00  0.00    -0.274 N
ATOM     10  H3  UNL     1     -26.791 -12.607  64.076  1.00  0.00     0.189 HD
BRANCH   9  11
HETATM   11  C5  UNL     1     -25.872 -11.636  65.721  1.00  0.00     0.116 C
HETATM   12  N2  UNL     1     -24.724 -11.072  65.648  1.00  0.00    -0.386 N
ATOM     13  H22 UNL     1     -24.520 -10.287  66.267  1.00  0.00     0.157 HD
ATOM     14  H21 UNL     1     -24.025 -11.401  64.982  1.00  0.00     0.157 HD
BRANCH  11  15
HETATM   15  C4  UNL     1     -26.870 -11.166  66.672  1.00  0.00     0.312 C
BRANCH  15  16
HETATM   16  N1  UNL     1     -28.021 -10.534  66.114  1.00  0.00    -0.072 N
HETATM   17  C1  UNL     1     -28.173  -9.257  66.830  1.00  0.00     0.272 C
HETATM   18  C2  UNL     1     -27.872 -10.222  64.710  1.00  0.00     0.272 C
HETATM   19  C3  UNL     1     -29.237 -11.269  66.285  1.00  0.00     0.272 C
ENDBRANCH  15  16
ENDBRANCH  11  15
ENDBRANCH   9  11
ENDBRANCH   1   9
BRANCH   7  20
HETATM   20  C7  UNL     1     -27.822 -14.527  67.538  1.00  0.00     0.166 C
BRANCH  20  21
HETATM   21  C8  UNL     1     -27.489 -14.454  68.977  1.00  0.00     0.257 C
BRANCH  21  22
HETATM   22  N7  UNL     1     -28.430 -13.773  69.819  1.00  0.00    -0.069 N
HETATM   23  C9  UNL     1     -28.794 -12.469  69.367  1.00  0.00     0.272 C
HETATM   24  C10 UNL     1     -27.957 -13.702  71.170  1.00  0.00     0.237 C
HETATM   25  C11 UNL     1     -29.070 -14.146  72.091  1.00  0.00     0.029 C
HETATM   26  C12 UNL     1     -30.290 -14.245  71.196  1.00  0.00     0.029 C
HETATM   27  C13 UNL     1     -29.660 -14.569  69.878  1.00  0.00     0.237 C
ENDBRANCH  21  22
ENDBRANCH  20  21
ENDBRANCH   7  20
TORSDOF 7
ENDMDL