MODEL 1
REMARK VINA RESULT: -8.449942696      0.000      0.000
REMARK  6 active torsions:
REMARK  status: ('A' for Active; 'I' for Inactive)
REMARK    1  A    between atoms: C2_2  and  C3_3
REMARK    2  A    between atoms: C3_3  and  C4_4
REMARK       I    between atoms: C4_4  and  N1_6
REMARK    3  A    between atoms: N1_6  and  C5_8
REMARK    4  A    between atoms: N4_19  and  C11_20
REMARK    5  A    between atoms: C11_20  and  C12_21
REMARK    6  A    between atoms: C12_21  and  O2_23
ROOT
HETATM    1  C5  UNL     1     -28.419 -13.324  68.745  1.00  0.00     0.113 C
HETATM    2  C6  UNL     1     -28.434 -11.814  68.600  1.00  0.00     0.061 C
HETATM    3  C7  UNL     1     -27.405 -11.504  67.562  1.00  0.00     0.203 C
HETATM    4  C8  UNL     1     -27.949 -10.396  66.708  1.00  0.00     0.054 C
HETATM    5  C9  UNL     1     -29.179 -10.811  65.939  1.00  0.00     0.125 C
HETATM    6  N2  UNL     1     -29.129 -12.169  65.503  1.00  0.00    -0.356 N
ATOM      7  H2  UNL     1     -29.799 -12.480  64.798  1.00  0.00     0.162 HD
HETATM    8  C10 UNL     1     -28.183 -13.112  66.010  1.00  0.00     0.274 C
HETATM    9  N3  UNL     1     -28.371 -14.328  65.618  1.00  0.00    -0.365 N
ATOM     10  H31 UNL     1     -27.696 -15.001  65.981  1.00  0.00     0.159 HD
ATOM     11  H32 UNL     1     -29.133 -14.598  64.996  1.00  0.00     0.159 HD
HETATM   12  N4  UNL     1     -27.142 -12.742  66.862  1.00  0.00     0.001 N
HETATM   13  C14 UNL     1     -27.166 -13.683  68.009  1.00  0.00     0.273 C
ENDROOT
BRANCH   1  14
HETATM   14  N1  UNL     1     -28.388 -13.612  70.159  1.00  0.00    -0.355 N
HETATM   15  C4  UNL     1     -29.515 -14.186  70.773  1.00  0.00     0.217 C
HETATM   16  O1  UNL     1     -30.560 -14.451  70.088  1.00  0.00    -0.274 OA
ATOM     17  H1  UNL     1     -27.555 -13.401  70.708  1.00  0.00     0.162 HD
BRANCH  15  18
HETATM   18  C3  UNL     1     -29.475 -14.478  72.230  1.00  0.00     0.102 C
BRANCH  18  19
HETATM   19  C2  UNL     1     -29.911 -13.243  72.983  1.00  0.00     0.005 C
HETATM   20  C1  UNL     1     -29.278 -13.260  74.350  1.00  0.00     0.005 C
ENDBRANCH  18  19
ENDBRANCH  15  18
ENDBRANCH   1  14
BRANCH  12  21
HETATM   21  C11 UNL     1     -25.819 -12.815  66.334  1.00  0.00     0.279 C
BRANCH  21  22
HETATM   22  C12 UNL     1     -25.378 -11.683  65.471  1.00  0.00     0.140 C
HETATM   23  C13 UNL     1     -24.876 -12.220  64.121  1.00  0.00     0.041 C
BRANCH  22  24
HETATM   24  O2  UNL     1     -24.341 -10.923  65.978  1.00  0.00    -0.394 OA
ATOM     25  H2  UNL     1     -24.510 -10.515  66.818  1.00  0.00     0.210 HD
ENDBRANCH  22  24
ENDBRANCH  21  22
ENDBRANCH  12  21
TORSDOF 6
ENDMDL