MODEL 1
REMARK VINA RESULT: -7.678141554      0.000      0.000
REMARK  5 active torsions:
REMARK  status: ('A' for Active; 'I' for Inactive)
REMARK    1  A    between atoms: C3_3  and  N1_4
REMARK    2  A    between atoms: N1_4  and  C4_5
REMARK    3  A    between atoms: C4_5  and  C5_6
REMARK    4  A    between atoms: C5_6  and  N2_7
REMARK       I    between atoms: N2_7  and  C6_9
REMARK       I    between atoms: C6_9  and  N4_13
REMARK    5  A    between atoms: N4_13  and  C7_15
ROOT
HETATM    1  C1  UNL     1     -32.366 -10.546  74.444  1.00  0.00     0.013 C
HETATM    2  C2  UNL     1     -33.453 -10.327  73.946  1.00  0.00    -0.089 C
HETATM    3  C3  UNL     1     -34.769 -10.063  73.356  1.00  0.00     0.330 C
ENDROOT
BRANCH   3   4
HETATM    4  N1  UNL     1     -35.619  -9.284  74.263  1.00  0.00    -0.056 N
HETATM    5  C11 UNL     1     -35.724  -9.942  75.555  1.00  0.00     0.238 C
HETATM    6  C12 UNL     1     -35.267  -8.951  76.602  1.00  0.00     0.030 C
HETATM    7  C13 UNL     1     -35.489  -7.628  75.858  1.00  0.00     0.030 C
HETATM    8  C14 UNL     1     -34.950  -8.036  74.485  1.00  0.00     0.238 C
BRANCH   4   9
HETATM    9  C4  UNL     1     -36.930  -9.189  73.716  1.00  0.00     0.258 C
BRANCH   9  10
HETATM   10  C5  UNL     1     -37.022  -8.713  72.308  1.00  0.00     0.166 C
BRANCH  10  11
HETATM   11  N2  UNL     1     -38.059  -7.672  72.277  1.00  0.00    -0.225 N
HETATM   12  C6  UNL     1     -37.785  -6.315  72.575  1.00  0.00     0.668 C
HETATM   13  N3  UNL     1     -37.433  -5.536  71.624  1.00  0.00    -0.235 N
HETATM   14  N4  UNL     1     -37.892  -5.815  73.896  1.00  0.00    -0.213 N
ATOM     15  H32 UNL     1     -37.356  -5.896  70.673  1.00  0.00     0.174 HD
ATOM     16  H31 UNL     1     -37.235  -4.559  71.839  1.00  0.00     0.174 HD
ATOM     17  H4  UNL     1     -38.113  -6.445  74.667  1.00  0.00     0.178 HD
ATOM     18  H2  UNL     1     -39.012  -7.938  72.031  1.00  0.00     0.177 HD
BRANCH  14  19
HETATM   19  C7  UNL     1     -37.685  -4.389  74.148  1.00  0.00     0.193 C
HETATM   20  C8  UNL     1     -38.756  -3.808  75.010  1.00  0.00     0.055 C
HETATM   21  C9  UNL     1     -38.127  -3.456  76.333  1.00  0.00     0.125 C
HETATM   22  N5  UNL     1     -36.817  -4.088  76.304  1.00  0.00    -0.359 N
HETATM   23  C10 UNL     1     -36.452  -4.185  74.941  1.00  0.00     0.241 C
ATOM     24  H5  UNL     1     -36.270  -4.399  77.107  1.00  0.00     0.162 HD
HETATM   25  O1  UNL     1     -35.269  -4.108  74.495  1.00  0.00    -0.271 OA
ENDBRANCH  14  19
ENDBRANCH  10  11
ENDBRANCH   9  10
ENDBRANCH   4   9
ENDBRANCH   3   4
TORSDOF 5
ENDMDL