MODEL 5
REMARK VINA RESULT: -7.459836491     10.004     11.577
REMARK  8 active torsions:
REMARK  status: ('A' for Active; 'I' for Inactive)
REMARK    1  A    between atoms: C2_2  and  N2_6
REMARK    2  A    between atoms: N2_6  and  C3_8
REMARK    3  A    between atoms: C3_8  and  C4_9
REMARK       I    between atoms: C4_9  and  N3_11
REMARK    4  A    between atoms: N3_11  and  C5_13
REMARK    5  A    between atoms: C5_13  and  C6_14
REMARK    6  A    between atoms: C6_14  and  C7_15
REMARK    7  A    between atoms: C7_15  and  N4_16
REMARK    8  A    between atoms: N4_16  and  C8_17
ROOT
HETATM    1  C3  UNL     1     -36.258 -10.264  75.391  1.00  0.00     0.208 C
HETATM    2  C11 UNL     1     -35.773 -10.098  73.987  1.00  0.00     0.189 C
HETATM    3  N5  UNL     1     -36.603 -11.070  73.284  1.00  0.00    -0.338 N
ATOM      4  H5  UNL     1     -36.946 -10.998  72.326  1.00  0.00     0.164 HD
HETATM    5  C12 UNL     1     -36.845 -12.144  74.201  1.00  0.00     0.318 C
HETATM    6  O2  UNL     1     -37.356 -13.261  73.939  1.00  0.00    -0.247 OA
HETATM    7  N6  UNL     1     -36.397 -11.715  75.482  1.00  0.00    -0.307 N
ATOM      8  H6  UNL     1     -36.211 -12.300  76.297  1.00  0.00     0.167 HD
ENDROOT
BRANCH   1   9
HETATM    9  N2  UNL     1     -37.548  -9.661  75.626  1.00  0.00    -0.345 N
ATOM     10  H2  UNL     1     -38.294 -10.276  75.953  1.00  0.00     0.163 HD
BRANCH   9  11
HETATM   11  C2  UNL     1     -37.873  -8.302  75.446  1.00  0.00     0.068 C
HETATM   12  C1  UNL     1     -38.249  -7.809  74.086  1.00  0.00     0.088 C
HETATM   13  N1  UNL     1     -37.838  -7.506  76.451  1.00  0.00    -0.389 N
ATOM     14  H12 UNL     1     -38.073  -6.522  76.321  1.00  0.00     0.157 HD
ATOM     15  H11 UNL     1     -37.581  -7.842  77.379  1.00  0.00     0.157 HD
ENDBRANCH   9  11
ENDBRANCH   1   9
BRANCH   1  16
HETATM   16  C4  UNL     1     -35.311  -9.767  76.418  1.00  0.00     0.268 C
HETATM   17  O1  UNL     1     -35.696  -9.527  77.591  1.00  0.00    -0.269 OA
HETATM   18  N3  UNL     1     -33.958  -9.571  76.039  1.00  0.00    -0.357 N
ATOM     19  H3  UNL     1     -33.666  -9.773  75.083  1.00  0.00     0.162 HD
BRANCH  18  20
HETATM   20  C5  UNL     1     -32.971  -9.081  77.016  1.00  0.00     0.129 C
BRANCH  20  21
HETATM   21  C6  UNL     1     -31.659  -9.691  76.685  1.00  0.00     0.079 C
BRANCH  21  22
HETATM   22  C7  UNL     1     -30.518  -9.178  77.403  1.00  0.00     0.156 C
BRANCH  22  23
HETATM   23  N4  UNL     1     -30.616  -9.189  78.675  1.00  0.00    -0.432 NA
BRANCH  23  24
HETATM   24  C8  UNL     1     -30.569  -9.181  79.936  1.00  0.00     0.053 C
HETATM   25  C9  UNL     1     -29.537 -10.034  80.499  1.00  0.00     0.079 C
HETATM   26  C10 UNL     1     -31.551  -8.329  80.578  1.00  0.00     0.079 C
ENDBRANCH  23  24
ENDBRANCH  22  23
ENDBRANCH  21  22
ENDBRANCH  20  21
ENDBRANCH  18  20
ENDBRANCH   1  16
TORSDOF 8
ENDMDL