MODEL 4
REMARK VINA RESULT: -6.800628642      0.987      1.366
REMARK  8 active torsions:
REMARK  status: ('A' for Active; 'I' for Inactive)
REMARK    1  A    between atoms: C2_2  and  C3_3
REMARK    2  A    between atoms: C3_3  and  C4_4
REMARK    3  A    between atoms: C3_3  and  N1_6
REMARK    4  A    between atoms: C7_9  and  O1_10
REMARK    5  A    between atoms: O1_10  and  C8_11
REMARK    6  A    between atoms: C8_11  and  C9_12
REMARK    7  A    between atoms: C9_12  and  C10_13
REMARK    8  A    between atoms: C16_22  and  N3_23
ROOT
HETATM    1  N1  UNL     1       9.444  19.624  -6.778  1.00  0.00    -0.368 N
ATOM      2  H1  UNL     1       8.605  20.202  -6.834  1.00  0.00     0.161 HD
HETATM    3  C6  UNL     1      10.207  20.205  -7.556  1.00  0.00     0.161 A
HETATM    4  C7  UNL     1      11.475  19.751  -7.785  1.00  0.00     0.127 A
HETATM    5  C13 UNL     1      12.434  20.349  -8.580  1.00  0.00     0.019 A
HETATM    6  C14 UNL     1      13.755  19.718  -8.710  1.00  0.00     0.059 C
HETATM    7  S1  UNL     1      11.946  21.807  -9.340  1.00  0.00    -0.054 SA
HETATM    8  C15 UNL     1      10.335  22.190  -8.924  1.00  0.00     0.187 A
HETATM    9  N2  UNL     1       9.494  23.225  -9.263  1.00  0.00    -0.167 N
ATOM     10  H2  UNL     1       9.719  24.008  -9.877  1.00  0.00     0.186 HD
HETATM   11  C16 UNL     1       8.328  23.016  -8.642  1.00  0.00     0.693 A
HETATM   12  N4  UNL     1       8.461  21.881  -7.944  1.00  0.00    -0.122 N
ATOM     13  H4  UNL     1       7.732  21.463  -7.365  1.00  0.00     0.206 HD
HETATM   14  N5  UNL     1       9.700  21.365  -8.113  1.00  0.00    -0.200 N
ENDROOT
BRANCH   1  15
HETATM   15  C3  UNL     1       9.071  18.674  -5.897  1.00  0.00     0.082 C
BRANCH  15  16
HETATM   16  C2  UNL     1       8.049  17.741  -6.507  1.00  0.00     0.021 C
HETATM   17  C1  UNL     1       8.515  16.881  -7.615  1.00  0.00     0.007 C
ENDBRANCH  15  16
BRANCH  15  18
HETATM   18  C4  UNL     1       8.696  19.151  -4.506  1.00  0.00     0.021 C
HETATM   19  C5  UNL     1       9.758  19.223  -3.496  1.00  0.00     0.007 C
ENDBRANCH  15  18
ENDBRANCH   1  15
BRANCH   4  20
HETATM   20  O1  UNL     1      11.907  18.575  -7.201  1.00  0.00    -0.346 OA
BRANCH  20  21
HETATM   21  C8  UNL     1      12.557  18.476  -5.958  1.00  0.00     0.176 C
BRANCH  21  22
HETATM   22  C9  UNL     1      12.910  17.031  -5.744  1.00  0.00     0.030 C
BRANCH  22  23
HETATM   23  C10 UNL     1      11.716  16.113  -5.834  1.00  0.00    -0.021 C
HETATM   24  C11 UNL     1      12.054  14.754  -6.371  1.00  0.00     0.009 C
HETATM   25  C12 UNL     1      11.226  15.912  -4.394  1.00  0.00     0.009 C
ENDBRANCH  22  23
ENDBRANCH  21  22
ENDBRANCH  20  21
ENDBRANCH   4  20
BRANCH  11  26
HETATM   26  N3  UNL     1       7.282  23.765  -8.707  1.00  0.00    -0.233 N
ATOM     27  H32 UNL     1       7.174  24.700  -8.314  1.00  0.00     0.174 HD
ATOM     28  H31 UNL     1       6.400  23.534  -9.162  1.00  0.00     0.174 HD
ENDBRANCH  11  26
TORSDOF 8
ENDMDL