MODEL 3
REMARK VINA RESULT: -7.377216136      3.034      5.626
REMARK  7 active torsions:
REMARK  status: ('A' for Active; 'I' for Inactive)
REMARK    1  A    between atoms: C2_2  and  C3_3
REMARK    2  A    between atoms: C3_3  and  C4_4
REMARK    3  A    between atoms: C4_4  and  C5_5
REMARK    4  A    between atoms: C5_5  and  C6_6
REMARK    5  A    between atoms: C6_6  and  N1_7
REMARK    6  A    between atoms: N1_7  and  C7_9
REMARK    7  A    between atoms: C19_24  and  O4_25
ROOT
HETATM    1  C7  UNL     1      13.923  16.089  -6.967  1.00  0.00     0.245 C
HETATM    2  O1  UNL     1      14.061  16.039  -5.560  1.00  0.00    -0.362 OA
HETATM    3  C8  UNL     1      14.101  17.350  -5.014  1.00  0.00     0.197 C
HETATM    4  C9  UNL     1      12.701  17.786  -4.763  1.00  0.00     0.205 C
HETATM    5  O2  UNL     1      12.563  18.684  -3.680  1.00  0.00    -0.319 OA
HETATM    6  C10 UNL     1      11.312  19.234  -3.436  1.00  0.00     0.258 C
HETATM    7  O3  UNL     1      10.982  19.441  -2.231  1.00  0.00    -0.265 OA
HETATM    8  C11 UNL     1      10.343  19.594  -4.488  1.00  0.00     0.111 C
HETATM    9  C12 UNL     1       9.400  18.477  -4.851  1.00  0.00     0.010 C
HETATM   10  C13 UNL     1       8.460  18.921  -5.946  1.00  0.00     0.000 C
HETATM   11  C14 UNL     1       8.966  18.723  -7.332  1.00  0.00     0.000 C
HETATM   12  C15 UNL     1       8.857  17.296  -7.836  1.00  0.00     0.000 C
HETATM   13  C16 UNL     1      10.132  16.525  -7.581  1.00  0.00     0.000 C
HETATM   14  C17 UNL     1      10.680  15.819  -8.770  1.00  0.00     0.003 C
HETATM   15  C18 UNL     1      12.178  15.658  -8.733  1.00  0.00     0.036 C
HETATM   16  C19 UNL     1      12.724  15.300  -7.368  1.00  0.00     0.166 C
ENDROOT
BRANCH   1  17
HETATM   17  N1  UNL     1      15.163  15.744  -7.600  1.00  0.00    -0.395 N
ATOM     18  H1  UNL     1      15.705  14.924  -7.330  1.00  0.00     0.155 HD
BRANCH  17  19
HETATM   19  C6  UNL     1      15.581  16.633  -8.634  1.00  0.00     0.116 C
BRANCH  19  20
HETATM   20  C5  UNL     1      15.119  18.043  -8.214  1.00  0.00     0.019 C
BRANCH  20  21
HETATM   21  C4  UNL     1      14.777  18.866  -9.417  1.00  0.00     0.002 C
BRANCH  21  22
HETATM   22  C3  UNL     1      13.293  19.135  -9.523  1.00  0.00    -0.000 C
BRANCH  22  23
HETATM   23  C2  UNL     1      12.676  19.306  -8.143  1.00  0.00    -0.005 C
HETATM   24  C1  UNL     1      12.152  20.685  -7.897  1.00  0.00     0.005 C
ENDBRANCH  22  23
ENDBRANCH  21  22
ENDBRANCH  20  21
ENDBRANCH  19  20
ENDBRANCH  17  19
ENDBRANCH   1  17
BRANCH  16  25
HETATM   25  O4  UNL     1      12.798  13.941  -7.202  1.00  0.00    -0.391 OA
ATOM     26  H4  UNL     1      12.011  13.506  -6.894  1.00  0.00     0.210 HD
ENDBRANCH  16  25
TORSDOF 7
ENDMDL