MODEL 3
REMARK VINA RESULT: -6.723517393      2.063      2.353
REMARK  6 active torsions:
REMARK  status: ('A' for Active; 'I' for Inactive)
REMARK    1  A    between atoms: S1_2  and  C2_3
REMARK    2  A    between atoms: C4_8  and  C5_9
REMARK    3  A    between atoms: C5_9  and  C6_10
REMARK    4  A    between atoms: C5_9  and  N2_14
REMARK    5  A    between atoms: C6_10  and  C7_11
REMARK    6  A    between atoms: N2_14  and  C10_16
ROOT
HETATM    1  C5  UNL     1      11.016  19.405  -7.586  1.00  0.00     0.116 C
ENDROOT
BRANCH   1   2
HETATM    2  C4  UNL     1       9.985  18.423  -7.201  1.00  0.00     0.039 A
HETATM    3  C3  UNL     1       8.672  18.683  -7.538  1.00  0.00     0.255 A
HETATM    4  N1  UNL     1       7.620  17.946  -7.250  1.00  0.00    -0.312 N
HETATM    5  O1  UNL     1       8.439  19.746  -8.199  1.00  0.00    -0.268 OA
HETATM    6  C2  UNL     1       7.554  16.799  -6.583  1.00  0.00     0.114 A
ATOM      7  H1  UNL     1       6.728  18.307  -7.587  1.00  0.00     0.170 HD
HETATM    8  S2  UNL     1       9.075  16.238  -6.038  1.00  0.00    -0.076 SA
HETATM    9  C16 UNL     1      10.358  17.305  -6.488  1.00  0.00     0.067 A
BRANCH   6  10
HETATM   10  S1  UNL     1       6.015  15.926  -6.287  1.00  0.00    -0.109 SA
HETATM   11  C1  UNL     1       5.749  14.737  -7.653  1.00  0.00     0.097 C
ENDBRANCH   6  10
ENDBRANCH   1   2
BRANCH   1  12
HETATM   12  C6  UNL     1      12.430  18.935  -7.451  1.00  0.00     0.034 C
BRANCH  12  13
HETATM   13  C7  UNL     1      13.104  18.614  -8.762  1.00  0.00    -0.021 C
HETATM   14  C8  UNL     1      14.141  17.503  -8.527  1.00  0.00     0.009 C
HETATM   15  C9  UNL     1      13.954  19.810  -9.225  1.00  0.00     0.009 C
ENDBRANCH  12  13
ENDBRANCH   1  12
BRANCH   1  16
HETATM   16  N2  UNL     1      10.759  20.603  -6.840  1.00  0.00    -0.409 N
ATOM     17  H2  UNL     1      10.238  20.583  -5.963  1.00  0.00     0.154 HD
BRANCH  16  18
HETATM   18  C10 UNL     1      11.260  21.816  -7.378  1.00  0.00     0.079 C
HETATM   19  C11 UNL     1      10.515  22.954  -6.667  1.00  0.00     0.030 C
HETATM   20  C12 UNL     1       9.125  22.985  -7.197  1.00  0.00     0.046 C
HETATM   21  C13 UNL     1       8.890  24.082  -8.202  1.00  0.00     0.055 C
HETATM   22  N3  UNL     1       9.649  23.985  -9.382  1.00  0.00    -0.402 N
HETATM   23  C14 UNL     1      10.959  23.404  -9.261  1.00  0.00     0.120 C
ATOM     24  H3  UNL     1       9.288  24.312 -10.279  1.00  0.00     0.158 HD
HETATM   25  C15 UNL     1      10.944  21.953  -8.867  1.00  0.00     0.044 C
ENDBRANCH  16  18
ENDBRANCH   1  16
TORSDOF 6
ENDMDL