MODEL 4
REMARK VINA RESULT: -7.120222668      5.140      8.104
REMARK  6 active torsions:
REMARK  status: ('A' for Active; 'I' for Inactive)
REMARK    1  A    between atoms: C2_2  and  C3_3
REMARK    2  A    between atoms: C4_4  and  O1_5
REMARK    3  A    between atoms: O1_5  and  C5_6
REMARK    4  A    between atoms: C5_6  and  C6_7
REMARK    5  A    between atoms: C6_7  and  C7_8
REMARK    6  A    between atoms: C14_20  and  C15_21
ROOT
HETATM    1  C3  UNL     1      12.269  21.538 -10.239  1.00  0.00    -0.008 A
HETATM    2  C4  UNL     1      12.118  21.584  -8.815  1.00  0.00     0.091 A
HETATM    3  C12 UNL     1      11.425  22.625  -8.285  1.00  0.00     0.124 A
HETATM    4  N2  UNL     1      10.880  23.607  -9.022  1.00  0.00    -0.372 N
ATOM      5  H2  UNL     1      10.366  24.373  -8.586  1.00  0.00     0.164 HD
HETATM    6  C13 UNL     1      11.034  23.545 -10.343  1.00  0.00     0.104 A
HETATM    7  C14 UNL     1      11.728  22.518 -11.003  1.00  0.00     0.041 A
ENDROOT
BRANCH   2   8
HETATM    8  O1  UNL     1      12.677  20.576  -8.085  1.00  0.00    -0.349 OA
BRANCH   8   9
HETATM    9  C5  UNL     1      12.070  19.606  -7.315  1.00  0.00     0.176 C
BRANCH   9  10
HETATM   10  C6  UNL     1      12.605  18.209  -7.438  1.00  0.00     0.031 C
BRANCH  10  11
HETATM   11  C7  UNL     1      13.818  18.028  -6.582  1.00  0.00    -0.009 C
HETATM   12  C8  UNL     1      15.040  17.761  -7.376  1.00  0.00     0.032 C
HETATM   13  C9  UNL     1      15.010  16.391  -8.034  1.00  0.00     0.232 C
HETATM   14  N1  UNL     1      14.818  15.390  -6.999  1.00  0.00    -0.075 N
HETATM   15  C10 UNL     1      13.607  15.579  -6.249  1.00  0.00     0.232 C
ATOM     16  H12 UNL     1      14.860  14.450  -7.391  1.00  0.00     0.277 HD
ATOM     17  H11 UNL     1      15.627  15.350  -6.379  1.00  0.00     0.277 HD
HETATM   18  C11 UNL     1      13.590  16.925  -5.545  1.00  0.00     0.032 C
ENDBRANCH  10  11
ENDBRANCH   9  10
ENDBRANCH   8   9
ENDBRANCH   2   8
BRANCH   1  19
HETATM   19  C2  UNL     1      13.022  20.398 -10.769  1.00  0.00     0.038 C
HETATM   20  C1  UNL     1      14.533  20.618 -10.747  1.00  0.00     0.010 C
ENDBRANCH   1  19
BRANCH   7  21
HETATM   21  C15 UNL     1      11.865  22.584 -12.445  1.00  0.00     0.177 A
HETATM   22  N3  UNL     1      11.491  21.737 -13.394  1.00  0.00    -0.276 N
HETATM   23  N4  UNL     1      11.807  22.175 -14.592  1.00  0.00    -0.268 N
ATOM     24  H3  UNL     1      11.015  20.853 -13.216  1.00  0.00     0.189 HD
HETATM   25  C16 UNL     1      12.410  23.352 -14.401  1.00  0.00     0.235 A
ATOM     26  H4  UNL     1      11.630  21.712 -15.484  1.00  0.00     0.190 HD
HETATM   27  S1  UNL     1      12.996  24.299 -15.626  1.00  0.00    -0.031 SA
HETATM   28  O2  UNL     1      12.436  23.579 -13.132  1.00  0.00    -0.264 OA
ENDBRANCH   7  21
TORSDOF 6
ENDMDL