MODEL 2
REMARK VINA RESULT: -7.018336473      2.172      5.196
REMARK  6 active torsions:
REMARK  status: ('A' for Active; 'I' for Inactive)
REMARK       I    between atoms: N1_2  and  C2_4
REMARK    1  A    between atoms: C2_4  and  C3_6
REMARK    2  A    between atoms: C4_9  and  C5_10
REMARK    3  A    between atoms: N3_13  and  C8_14
REMARK    4  A    between atoms: C11_17  and  S1_18
REMARK    5  A    between atoms: S1_18  and  C12_19
REMARK    6  A    between atoms: C12_19  and  C13_20
ROOT
HETATM    1  C13 UNL     1       6.403  15.333  -7.481  1.00  0.00     0.026 A
HETATM    2  C14 UNL     1       5.300  14.933  -8.155  1.00  0.00     0.122 A
HETATM    3  N4  UNL     1       4.189  15.558  -7.636  1.00  0.00    -0.310 N
ATOM      4  H4  UNL     1       3.225  15.444  -7.950  1.00  0.00     0.186 HD
HETATM    5  N5  UNL     1       4.605  16.331  -6.657  1.00  0.00    -0.290 N
ATOM      6  H5  UNL     1       3.997  16.919  -6.087  1.00  0.00     0.188 HD
HETATM    7  C15 UNL     1       5.935  16.244  -6.508  1.00  0.00     0.140 A
HETATM    8  C16 UNL     1       6.765  16.922  -5.554  1.00  0.00     0.120 C
HETATM    9  N6  UNL     1       7.425  17.485  -4.762  1.00  0.00    -0.190 NA
ENDROOT
BRANCH   1  10
HETATM   10  C12 UNL     1       7.800  15.043  -7.624  1.00  0.00     0.067 C
BRANCH  10  11
HETATM   11  S1  UNL     1       8.926  16.109  -8.474  1.00  0.00    -0.081 SA
BRANCH  11  12
HETATM   12  C11 UNL     1       9.908  17.070  -7.348  1.00  0.00     0.110 A
HETATM   13  C3  UNL     1       9.982  18.424  -7.196  1.00  0.00     0.136 A
HETATM   14  N2  UNL     1      10.974  18.669  -6.298  1.00  0.00    -0.339 N
HETATM   15  C4  UNL     1      11.514  17.516  -5.886  1.00  0.00     0.088 A
ATOM     16  H2  UNL     1      11.264  19.596  -5.985  1.00  0.00     0.167 HD
HETATM   17  N3  UNL     1      10.870  16.530  -6.516  1.00  0.00    -0.324 N
BRANCH  13  18
HETATM   18  C2  UNL     1       9.126  19.435  -7.799  1.00  0.00     0.270 C
HETATM   19  N1  UNL     1       9.643  20.695  -8.148  1.00  0.00    -0.360 N
HETATM   20  C1  UNL     1       8.841  21.747  -8.751  1.00  0.00     0.149 C
ATOM     21  H1  UNL     1      10.631  20.880  -7.971  1.00  0.00     0.162 HD
HETATM   22  O1  UNL     1       7.929  19.168  -7.999  1.00  0.00    -0.266 OA
ENDBRANCH  13  18
BRANCH  15  23
HETATM   23  C5  UNL     1      12.599  17.409  -4.935  1.00  0.00     0.045 C
HETATM   24  C6  UNL     1      13.980  17.621  -5.605  1.00  0.00     0.017 C
HETATM   25  C7  UNL     1      12.480  18.595  -3.973  1.00  0.00     0.017 C
ENDBRANCH  15  23
BRANCH  17  26
HETATM   26  C8  UNL     1      11.080  15.147  -6.377  1.00  0.00     0.084 C
HETATM   27  C9  UNL     1      10.498  14.612  -5.044  1.00  0.00     0.032 C
HETATM   28  C10 UNL     1      12.465  14.629  -6.465  1.00  0.00     0.032 C
ENDBRANCH  17  26
ENDBRANCH  11  12
ENDBRANCH  10  11
ENDBRANCH   1  10
TORSDOF 6
ENDMDL