MODEL 5
REMARK VINA RESULT: -7.778874577      2.299      3.355
REMARK  6 active torsions:
REMARK  status: ('A' for Active; 'I' for Inactive)
REMARK    1  A    between atoms: C2_2  and  N1_4
REMARK    2  A    between atoms: N1_4  and  C4_6
REMARK    3  A    between atoms: C8_10  and  N2_11
REMARK    4  A    between atoms: N2_11  and  C9_14
REMARK    5  A    between atoms: C9_14  and  C10_15
REMARK    6  A    between atoms: C11_18  and  C12_19
ROOT
HETATM    1  C9  UNL     1      11.007  21.726  -6.006  1.00  0.00     0.319 C
ENDROOT
BRANCH   1   2
HETATM    2  N2  UNL     1      10.117  22.861  -6.137  1.00  0.00    -0.063 N
ATOM      3  H22 UNL     1      10.181  23.469  -5.321  1.00  0.00     0.278 HD
ATOM      4  H21 UNL     1       9.142  22.572  -6.054  1.00  0.00     0.278 HD
BRANCH   2   5
HETATM    5  C8  UNL     1      10.328  23.599  -7.340  1.00  0.00     0.191 C
HETATM    6  C7  UNL     1       9.128  23.987  -8.100  1.00  0.00     0.034 C
HETATM    7  C6  UNL     1       8.484  22.901  -8.883  1.00  0.00     0.008 C
HETATM    8  C5  UNL     1       9.458  21.848  -9.412  1.00  0.00     0.052 C
HETATM    9  C4  UNL     1      10.838  22.437  -9.548  1.00  0.00    -0.016 C
HETATM   10  C18 UNL     1      11.335  22.865  -8.205  1.00  0.00     0.085 C
BRANCH   9  11
HETATM   11  N1  UNL     1      11.081  23.290 -10.641  1.00  0.00    -0.392 N
ATOM     12  H1  UNL     1      10.514  24.130 -10.752  1.00  0.00     0.159 HD
BRANCH  11  13
HETATM   13  C2  UNL     1      12.091  23.011 -11.591  1.00  0.00     0.073 C
HETATM   14  C1  UNL     1      12.592  21.621 -11.695  1.00  0.00     0.031 C
HETATM   15  C3  UNL     1      11.470  23.313 -12.973  1.00  0.00     0.031 C
ENDBRANCH  11  13
ENDBRANCH   9  11
ENDBRANCH   2   5
ENDBRANCH   1   2
BRANCH   1  16
HETATM   16  C10 UNL     1      10.438  20.705  -5.103  1.00  0.00     0.174 A
HETATM   17  N3  UNL     1       9.980  19.508  -5.408  1.00  0.00    -0.323 N
HETATM   18  C11 UNL     1       9.567  18.935  -4.257  1.00  0.00     0.133 A
ATOM     19  H3  UNL     1       9.943  19.093  -6.339  1.00  0.00     0.169 HD
HETATM   20  N4  UNL     1       9.799  19.821  -3.279  1.00  0.00    -0.244 N
HETATM   21  O2  UNL     1      10.314  20.874  -3.776  1.00  0.00    -0.221 OA
ATOM     22  H4  UNL     1       9.595  19.675  -2.290  1.00  0.00     0.196 HD
BRANCH  18  23
HETATM   23  C12 UNL     1       9.007  17.549  -4.055  1.00  0.00     0.190 C
HETATM   24  C13 UNL     1       9.968  16.821  -3.200  1.00  0.00     0.040 C
HETATM   25  C14 UNL     1      11.381  16.901  -3.663  1.00  0.00     0.003 C
HETATM   26  C15 UNL     1      11.718  16.005  -4.794  1.00  0.00     0.002 C
HETATM   27  C16 UNL     1      10.778  15.970  -5.944  1.00  0.00     0.026 C
HETATM   28  C17 UNL     1       9.324  15.855  -5.610  1.00  0.00     0.168 C
HETATM   29  O1  UNL     1       8.726  17.056  -5.286  1.00  0.00    -0.378 OA
ENDBRANCH  18  23
ENDBRANCH   1  16
TORSDOF 6
ENDMDL