MODEL 2
REMARK VINA RESULT: -6.700859031      0.089      1.452
REMARK  8 active torsions:
REMARK  status: ('A' for Active; 'I' for Inactive)
REMARK    1  A    between atoms: C2_2  and  N1_3
REMARK    2  A    between atoms: N1_3  and  C3_4
REMARK    3  A    between atoms: N1_3  and  C5_6
REMARK    4  A    between atoms: C5_6  and  C6_7
REMARK    5  A    between atoms: C6_7  and  N2_8
REMARK    6  A    between atoms: C7_9  and  O1_10
REMARK    7  A    between atoms: C10_14  and  O2_15
REMARK    8  A    between atoms: S1_22  and  S2_23
ROOT
HETATM    1  N2  UNL     1      10.069  19.936  -4.778  1.00  0.00    -0.303 N
HETATM    2  C7  UNL     1       9.211  20.944  -5.041  1.00  0.00     0.152 A
HETATM    3  C8  UNL     1       9.731  21.712  -6.055  1.00  0.00     0.013 A
HETATM    4  C9  UNL     1      10.934  21.118  -6.386  1.00  0.00     0.022 A
HETATM    5  C10 UNL     1      11.133  20.004  -5.577  1.00  0.00     0.153 A
HETATM    6  C11 UNL     1      11.731  21.749  -7.465  1.00  0.00     0.108 C
HETATM    7  C12 UNL     1      11.759  23.215  -7.182  1.00  0.00    -0.010 C
HETATM    8  C13 UNL     1      10.569  23.764  -6.868  1.00  0.00    -0.019 C
HETATM    9  C14 UNL     1       9.312  22.950  -6.805  1.00  0.00     0.055 C
HETATM   10  C15 UNL     1       8.941  22.529  -8.187  1.00  0.00     0.089 C
HETATM   11  S1  UNL     1      10.494  21.682  -9.078  1.00  0.00    -0.146 SA
ENDROOT
BRANCH   1  12
HETATM   12  C6  UNL     1       9.871  18.920  -3.751  1.00  0.00     0.178 C
BRANCH  12  13
HETATM   13  C5  UNL     1       9.008  17.799  -4.270  1.00  0.00     0.083 C
BRANCH  13  14
HETATM   14  N1  UNL     1       9.765  16.805  -4.892  1.00  0.00    -0.373 N
BRANCH  14  15
HETATM   15  C2  UNL     1      10.707  16.044  -4.192  1.00  0.00     0.058 C
HETATM   16  C1  UNL     1      12.003  15.743  -4.852  1.00  0.00     0.055 C
ENDBRANCH  14  15
BRANCH  14  17
HETATM   17  C3  UNL     1       9.414  16.375  -6.192  1.00  0.00     0.122 C
HETATM   18  C4  UNL     1       8.833  17.448  -7.066  1.00  0.00     0.027 C
ENDBRANCH  14  17
ENDBRANCH  13  14
ENDBRANCH  12  13
ENDBRANCH   1  12
BRANCH   2  19
HETATM   19  O1  UNL     1       8.026  21.158  -4.403  1.00  0.00    -0.345 OA
ATOM     20  H1  UNL     1       7.454  21.903  -4.541  1.00  0.00     0.219 HD
ENDBRANCH   2  19
BRANCH   5  21
HETATM   21  O2  UNL     1      12.252  19.164  -5.639  1.00  0.00    -0.345 OA
ATOM     22  H2  UNL     1      12.691  18.800  -6.399  1.00  0.00     0.219 HD
ENDBRANCH   5  21
BRANCH  11  23
HETATM   23  S2  UNL     1      11.520  22.334 -10.653  1.00  0.00    -0.112 SA
HETATM   24  C16 UNL     1      11.420  23.966 -11.095  1.00  0.00     0.102 C
ENDBRANCH  11  23
TORSDOF 8
ENDMDL