MODEL 1
REMARK VINA RESULT: -8.220245477      0.000      0.000
REMARK  7 active torsions:
REMARK  status: ('A' for Active; 'I' for Inactive)
REMARK    1  A    between atoms: C2_2  and  C4_4
REMARK    2  A    between atoms: C7_7  and  N1_8
REMARK    3  A    between atoms: N1_8  and  C8_11
REMARK    4  A    between atoms: C8_11  and  C9_12
REMARK    5  A    between atoms: C10_16  and  C11_17
REMARK    6  A    between atoms: C11_17  and  N3_18
REMARK    7  A    between atoms: C16_24  and  O3_25
ROOT
HETATM    1  C9  UNL     1       9.283  21.179  -5.396  1.00  0.00     0.137 A
HETATM    2  O1  UNL     1       8.380  21.259  -4.468  1.00  0.00    -0.237 OA
HETATM    3  N2  UNL     1       7.868  20.083  -4.212  1.00  0.00    -0.261 N
ATOM      4  H2  UNL     1       7.141  19.902  -3.519  1.00  0.00     0.194 HD
HETATM    5  C10 UNL     1       8.435  19.150  -4.990  1.00  0.00     0.096 A
HETATM    6  C16 UNL     1       9.352  19.858  -5.759  1.00  0.00     0.125 A
ENDROOT
BRANCH   1   7
HETATM    7  C8  UNL     1      10.129  22.258  -6.011  1.00  0.00     0.302 C
BRANCH   7   8
HETATM    8  N1  UNL     1       9.408  22.992  -7.004  1.00  0.00    -0.065 N
ATOM      9  H12 UNL     1       9.334  23.983  -6.773  1.00  0.00     0.278 HD
ATOM     10  H11 UNL     1       8.413  22.768  -7.003  1.00  0.00     0.278 HD
BRANCH   8  11
HETATM   11  C7  UNL     1      10.008  22.780  -8.283  1.00  0.00     0.186 C
HETATM   12  C6  UNL     1       9.970  23.993  -9.191  1.00  0.00     0.034 C
HETATM   13  C5  UNL     1      10.907  23.810 -10.372  1.00  0.00     0.011 C
HETATM   14  C4  UNL     1      11.119  22.339 -10.674  1.00  0.00     0.013 C
HETATM   15  C18 UNL     1      11.721  21.578  -9.532  1.00  0.00     0.011 C
HETATM   16  C17 UNL     1      11.445  22.328  -8.230  1.00  0.00     0.034 C
BRANCH  14  17
HETATM   17  C2  UNL     1      12.025  22.226 -11.837  1.00  0.00    -0.089 C
HETATM   18  C1  UNL     1      12.911  21.242 -11.863  1.00  0.00     0.014 C
HETATM   19  C3  UNL     1      11.984  23.173 -12.977  1.00  0.00     0.043 C
ENDBRANCH  14  17
ENDBRANCH   8  11
ENDBRANCH   7   8
ENDBRANCH   1   7
BRANCH   6  20
HETATM   20  O3  UNL     1      10.179  19.290  -6.718  1.00  0.00    -0.356 OA
ATOM     21  H3  UNL     1      10.041  19.266  -7.657  1.00  0.00     0.218 HD
ENDBRANCH   6  20
BRANCH   5  22
HETATM   22  C11 UNL     1       8.219  17.692  -5.077  1.00  0.00     0.334 C
BRANCH  22  23
HETATM   23  N3  UNL     1       7.520  17.241  -6.237  1.00  0.00     0.098 N
HETATM   24  C12 UNL     1       6.179  16.851  -5.764  1.00  0.00     0.299 C
HETATM   25  C13 UNL     1       5.712  15.563  -6.387  1.00  0.00     0.198 C
HETATM   26  O2  UNL     1       6.024  15.615  -7.743  1.00  0.00    -0.388 OA
HETATM   27  C14 UNL     1       7.387  15.372  -7.840  1.00  0.00     0.198 C
HETATM   28  C15 UNL     1       8.135  15.971  -6.664  1.00  0.00     0.299 C
ENDBRANCH  22  23
ENDBRANCH   5  22
TORSDOF 7
ENDMDL