MODEL 1
REMARK VINA RESULT: -8.017399244      0.000      0.000
REMARK  7 active torsions:
REMARK  status: ('A' for Active; 'I' for Inactive)
REMARK    1  A    between atoms: N1_1  and  C1_4
REMARK    2  A    between atoms: C2_9  and  C3_10
REMARK    3  A    between atoms: C6_13  and  C7_14
REMARK    4  A    between atoms: C7_14  and  N4_15
REMARK    5  A    between atoms: C9_19  and  C10_20
REMARK    6  A    between atoms: C10_20  and  S1_21
REMARK    7  A    between atoms: S1_21  and  C11_22
ROOT
HETATM    1  C3  UNL     1      11.219  22.024  -9.379  1.00  0.00     0.017 A
HETATM    2  C4  UNL     1      11.790  21.404  -8.288  1.00  0.00     0.016 A
HETATM    3  C5  UNL     1      12.891  20.574  -8.486  1.00  0.00     0.010 A
HETATM    4  C6  UNL     1      13.427  20.353  -9.727  1.00  0.00    -0.040 A
HETATM    5  C16 UNL     1      12.839  20.985 -10.803  1.00  0.00     0.010 A
HETATM    6  C17 UNL     1      11.747  21.815 -10.647  1.00  0.00     0.016 A
ENDROOT
BRANCH   4   7
HETATM    7  C7  UNL     1      14.580  19.492  -9.982  1.00  0.00     0.167 C
BRANCH   7   8
HETATM    8  N4  UNL     1      14.597  18.281  -9.232  1.00  0.00    -0.347 N
HETATM    9  C8  UNL     1      15.681  17.590  -8.880  1.00  0.00     0.183 A
HETATM   10  N5  UNL     1      15.325  16.506  -8.180  1.00  0.00    -0.354 N
HETATM   11  C9  UNL     1      13.985  16.517  -8.089  1.00  0.00     0.035 A
ATOM     12  H5  UNL     1      15.953  15.803  -7.789  1.00  0.00     0.166 HD
HETATM   13  C15 UNL     1      13.530  17.636  -8.753  1.00  0.00     0.117 A
BRANCH  11  14
HETATM   14  C10 UNL     1      13.094  15.515  -7.400  1.00  0.00     0.132 C
BRANCH  14  15
HETATM   15  S1  UNL     1      13.269  15.654  -5.601  1.00  0.00    -0.158 SA
BRANCH  15  16
HETATM   16  C11 UNL     1      12.144  16.917  -4.950  1.00  0.00     0.047 C
HETATM   17  C12 UNL     1      11.087  17.361  -5.966  1.00  0.00     0.015 C
HETATM   18  C13 UNL     1      11.399  18.797  -5.527  1.00  0.00     0.002 C
HETATM   19  C14 UNL     1      12.761  18.290  -5.092  1.00  0.00     0.015 C
ENDBRANCH  15  16
ENDBRANCH  14  15
ENDBRANCH  11  14
ENDBRANCH   7   8
ENDBRANCH   4   7
BRANCH   1  20
HETATM   20  C2  UNL     1      10.068  22.899  -9.211  1.00  0.00     0.176 A
HETATM   21  N3  UNL     1      10.022  24.210  -9.514  1.00  0.00    -0.276 N
HETATM   22  N2  UNL     1       8.831  24.687  -9.236  1.00  0.00    -0.263 N
ATOM     23  H3  UNL     1      10.795  24.751  -9.901  1.00  0.00     0.189 HD
HETATM   24  C1  UNL     1       8.108  23.647  -8.745  1.00  0.00     0.238 A
ATOM     25  H2  UNL     1       8.512  25.647  -9.362  1.00  0.00     0.190 HD
HETATM   26  O1  UNL     1       8.894  22.605  -8.752  1.00  0.00    -0.259 OA
BRANCH  24  27
HETATM   27  N1  UNL     1       6.887  23.664  -8.346  1.00  0.00    -0.364 N
ATOM     28  H12 UNL     1       6.078  23.918  -8.913  1.00  0.00     0.159 HD
ATOM     29  H11 UNL     1       6.535  23.432  -7.418  1.00  0.00     0.159 HD
ENDBRANCH  24  27
ENDBRANCH   1  20
TORSDOF 7
ENDMDL