MODEL 3
REMARK VINA RESULT: -7.194534329      1.082      2.068
REMARK  8 active torsions:
REMARK  status: ('A' for Active; 'I' for Inactive)
REMARK    1  A    between atoms: O1_1  and  C1_3
REMARK    2  A    between atoms: C3_5  and  N1_6
REMARK    3  A    between atoms: C9_12  and  O2_13
REMARK    4  A    between atoms: N2_15  and  C10_16
REMARK    5  A    between atoms: C10_16  and  C11_17
REMARK    6  A    between atoms: C11_17  and  C12_18
REMARK    7  A    between atoms: C12_18  and  C13_19
REMARK    8  A    between atoms: C13_19  and  N3_20
ROOT
HETATM    1  C1  UNL     1       9.062  18.747  -6.249  1.00  0.00     0.146 A
HETATM    2  C2  UNL     1       8.954  19.378  -7.468  1.00  0.00     0.089 A
HETATM    3  C3  UNL     1       9.331  20.721  -7.331  1.00  0.00     0.086 A
HETATM    4  C9  UNL     1       9.654  20.834  -6.008  1.00  0.00     0.171 A
HETATM    5  N2  UNL     1       9.492  19.650  -5.361  1.00  0.00    -0.307 N
ENDROOT
BRANCH   5   6
HETATM    6  C10 UNL     1       9.749  19.451  -3.975  1.00  0.00     0.133 C
BRANCH   6   7
HETATM    7  C11 UNL     1      10.905  18.506  -3.754  1.00  0.00     0.022 C
BRANCH   7   8
HETATM    8  C12 UNL     1      12.193  19.109  -4.295  1.00  0.00     0.032 C
BRANCH   8   9
HETATM    9  C13 UNL     1      13.003  17.969  -4.826  1.00  0.00     0.272 C
BRANCH   9  10
HETATM   10  N3  UNL     1      12.924  17.788  -6.244  1.00  0.00     0.088 N
HETATM   11  C14 UNL     1      14.010  17.019  -6.798  1.00  0.00     0.272 C
HETATM   12  C15 UNL     1      15.155  17.875  -7.286  1.00  0.00     0.030 C
HETATM   13  C16 UNL     1      15.036  18.264  -8.730  1.00  0.00     0.002 C
HETATM   14  C17 UNL     1      13.902  19.175  -9.045  1.00  0.00     0.002 C
HETATM   15  C18 UNL     1      12.612  18.820  -8.371  1.00  0.00     0.030 C
HETATM   16  C19 UNL     1      12.774  19.075  -6.898  1.00  0.00     0.272 C
ENDBRANCH   9  10
ENDBRANCH   8   9
ENDBRANCH   7   8
ENDBRANCH   6   7
ENDBRANCH   5   6
BRANCH   1  17
HETATM   17  O1  UNL     1       8.761  17.392  -6.032  1.00  0.00    -0.346 OA
ATOM     18  H1  UNL     1       8.601  16.763  -6.726  1.00  0.00     0.219 HD
ENDBRANCH   1  17
BRANCH   4  19
HETATM   19  O2  UNL     1      10.095  22.031  -5.415  1.00  0.00    -0.344 OA
ATOM     20  H2  UNL     1       9.916  22.266  -4.513  1.00  0.00     0.219 HD
ENDBRANCH   4  19
BRANCH   3  21
HETATM   21  N1  UNL     1       9.350  21.657  -8.393  1.00  0.00    -0.377 N
HETATM   22  C4  UNL     1      10.553  21.741  -9.243  1.00  0.00     0.123 C
HETATM   23  C5  UNL     1      11.156  23.090  -8.917  1.00  0.00     0.020 C
HETATM   24  C6  UNL     1      10.173  24.133  -9.440  1.00  0.00     0.003 C
HETATM   25  C7  UNL     1       8.821  23.998  -8.831  1.00  0.00     0.020 C
HETATM   26  C8  UNL     1       8.313  22.571  -8.746  1.00  0.00     0.123 C
ENDBRANCH   3  21
TORSDOF 8
ENDMDL