MODEL 3
REMARK VINA RESULT: -7.186019786      0.819      1.312
REMARK  6 active torsions:
REMARK  status: ('A' for Active; 'I' for Inactive)
REMARK    1  A    between atoms: C2_2  and  N1_3
REMARK    2  A    between atoms: C2_2  and  C3_7
REMARK    3  A    between atoms: C3_7  and  N4_15
REMARK       I    between atoms: N2_8  and  C4_10
REMARK    4  A    between atoms: C4_10  and  C5_12
REMARK    5  A    between atoms: N4_15  and  N5_17
REMARK    6  A    between atoms: N5_17  and  C6_19
ROOT
HETATM    1  C3  UNL     1      17.203   5.864  14.009  1.00  0.00     0.130 C
HETATM    2  N2  UNL     1      16.881   5.338  12.866  1.00  0.00    -0.306 N
ATOM      3  H2  UNL     1      16.275   5.857  12.231  1.00  0.00     0.170 HD
HETATM    4  C4  UNL     1      17.353   4.057  12.484  1.00  0.00     0.312 C
HETATM    5  O1  UNL     1      18.562   3.783  12.681  1.00  0.00    -0.262 OA
ENDROOT
BRANCH   1   6
HETATM    6  C2  UNL     1      16.725   7.195  14.433  1.00  0.00     0.248 C
HETATM    7  C1  UNL     1      17.795   8.087  14.956  1.00  0.00     0.048 C
BRANCH   6   8
HETATM    8  N1  UNL     1      15.999   7.776  13.325  1.00  0.00    -0.069 N
ATOM      9  H13 UNL     1      15.213   8.333  13.657  1.00  0.00     0.275 HD
ATOM     10  H12 UNL     1      16.546   8.511  12.877  1.00  0.00     0.275 HD
ATOM     11  H11 UNL     1      15.693   7.082  12.644  1.00  0.00     0.275 HD
ENDBRANCH   6   8
ENDBRANCH   1   6
BRANCH   1  12
HETATM   12  N4  UNL     1      18.041   5.152  14.894  1.00  0.00    -0.273 N
ATOM     13  H4  UNL     1      19.025   5.035  14.648  1.00  0.00     0.189 HD
BRANCH  12  14
HETATM   14  N5  UNL     1      17.583   4.606  16.082  1.00  0.00    -0.129 N
ATOM     15  H5  UNL     1      17.689   5.133  16.949  1.00  0.00     0.205 HD
BRANCH  14  16
HETATM   16  C6  UNL     1      17.018   3.426  16.112  1.00  0.00     0.722 A
HETATM   17  N6  UNL     1      16.049   3.002  16.938  1.00  0.00    -0.115 N
HETATM   18  N7  UNL     1      15.780   1.741  16.616  1.00  0.00     0.006 NA
ATOM     19  H6  UNL     1      15.602   3.547  17.677  1.00  0.00     0.202 HD
HETATM   20  N8  UNL     1      16.545   1.349  15.611  1.00  0.00     0.006 NA
HETATM   21  N9  UNL     1      17.302   2.398  15.313  1.00  0.00    -0.115 N
ATOM     22  H9  UNL     1      18.004   2.416  14.574  1.00  0.00     0.202 HD
ENDBRANCH  14  16
ENDBRANCH  12  14
ENDBRANCH   1  12
BRANCH   4  23
HETATM   23  C5  UNL     1      16.502   3.060  11.882  1.00  0.00     0.322 C
HETATM   24  N3  UNL     1      16.743   1.675  12.035  1.00  0.00    -0.053 NA
HETATM   25  O2  UNL     1      15.484   3.370  11.175  1.00  0.00    -0.266 OA
ENDBRANCH   4  23
TORSDOF 6
ENDMDL