MODEL 5
REMARK VINA RESULT: -5.863440700      2.173      4.646
REMARK  5 active torsions:
REMARK  status: ('A' for Active; 'I' for Inactive)
REMARK    1  A    between atoms: N1_2  and  C2_4
REMARK    2  A    between atoms: C3_7  and  N3_8
REMARK    3  A    between atoms: C6_13  and  N5_14
REMARK    4  A    between atoms: N5_14  and  N6_16
REMARK       I    between atoms: N6_16  and  C7_18
REMARK       I    between atoms: C7_18  and  N8_22
REMARK    5  A    between atoms: N8_22  and  N9_24
ROOT
HETATM    1  C2  UNL     1      17.588   1.617  11.810  1.00  0.00     0.706 A
HETATM    2  N2  UNL     1      17.706   2.884  11.380  1.00  0.00    -0.021 N
ATOM      3  H2  UNL     1      17.913   3.050  10.395  1.00  0.00     0.203 HD
HETATM    4  C3  UNL     1      17.560   3.948  12.202  1.00  0.00     0.708 A
HETATM    5  N4  UNL     1      17.288   3.726  13.498  1.00  0.00    -0.020 N
ATOM      6  H4  UNL     1      17.172   4.506  14.145  1.00  0.00     0.203 HD
HETATM    7  C6  UNL     1      17.172   2.465  13.927  1.00  0.00     0.726 A
HETATM    8  N10 UNL     1      17.315   1.409  13.110  1.00  0.00    -0.020 N
ATOM      9  H10 UNL     1      17.219   0.460  13.472  1.00  0.00     0.203 HD
ENDROOT
BRANCH   7  10
HETATM   10  N5  UNL     1      16.910   2.274  15.172  1.00  0.00    -0.117 N
ATOM     11  H5  UNL     1      16.640   1.337  15.469  1.00  0.00     0.206 HD
BRANCH  10  12
HETATM   12  N6  UNL     1      16.976   3.275  16.134  1.00  0.00    -0.117 N
HETATM   13  C7  UNL     1      15.802   3.553  16.883  1.00  0.00     0.705 C
HETATM   14  N7  UNL     1      15.644   3.064  18.051  1.00  0.00    -0.232 N
HETATM   15  N8  UNL     1      14.826   4.390  16.271  1.00  0.00    -0.138 N
ATOM     16  H72 UNL     1      16.344   2.465  18.490  1.00  0.00     0.174 HD
ATOM     17  H71 UNL     1      14.801   3.264  18.589  1.00  0.00     0.174 HD
ATOM     18  H8  UNL     1      13.827   4.199  16.356  1.00  0.00     0.205 HD
ATOM     19  H6  UNL     1      17.839   3.793  16.297  1.00  0.00     0.206 HD
BRANCH  15  20
HETATM   20  N9  UNL     1      15.308   5.491  15.547  1.00  0.00    -0.331 N
ATOM     21  H92 UNL     1      14.700   6.001  14.906  1.00  0.00     0.177 HD
ATOM     22  H91 UNL     1      16.284   5.745  15.699  1.00  0.00     0.177 HD
ENDBRANCH  15  20
ENDBRANCH  10  12
ENDBRANCH   7  10
BRANCH   4  23
HETATM   23  N3  UNL     1      17.696   5.270  11.691  1.00  0.00    -0.225 N
HETATM   24  C4  UNL     1      17.354   6.400  12.513  1.00  0.00     0.168 C
HETATM   25  C5  UNL     1      18.183   5.447  10.334  1.00  0.00     0.168 C
ENDBRANCH   4  23
BRANCH   1  26
HETATM   26  N1  UNL     1      17.726   0.599  11.027  1.00  0.00    -0.229 N
HETATM   27  C1  UNL     1      18.375  -0.617  11.398  1.00  0.00     0.165 C
ATOM     28  H1  UNL     1      17.346   0.668  10.083  1.00  0.00     0.177 HD
ENDBRANCH   1  26
TORSDOF 5
ENDMDL