MODEL 4
REMARK VINA RESULT: -6.708419512      2.155      3.729
REMARK  3 active torsions:
REMARK  status: ('A' for Active; 'I' for Inactive)
REMARK    1  A    between atoms: N1_3  and  N2_5
REMARK    2  A    between atoms: N2_5  and  C3_7
REMARK    3  A    between atoms: N4_11  and  C5_12
ROOT
HETATM    1  C1  UNL     1      14.721   4.367  18.919  1.00  0.00     0.038 C
HETATM    2  C2  UNL     1      14.963   3.467  18.153  1.00  0.00     0.015 C
HETATM    3  N1  UNL     1      15.242   2.434  17.252  1.00  0.00    -0.245 N
ATOM      4  H1  UNL     1      14.462   1.867  16.918  1.00  0.00     0.198 HD
ENDROOT
BRANCH   3   5
HETATM    5  N2  UNL     1      16.521   2.132  16.780  1.00  0.00    -0.124 N
ATOM      6  H2  UNL     1      17.203   1.665  17.376  1.00  0.00     0.206 HD
BRANCH   5   7
HETATM    7  C3  UNL     1      16.815   2.463  15.568  1.00  0.00     0.702 A
HETATM    8  N3  UNL     1      17.018   3.736  15.183  1.00  0.00    -0.186 N
HETATM    9  C4  UNL     1      17.324   4.039  13.901  1.00  0.00     0.208 A
ATOM     10  H3  UNL     1      16.940   4.486  15.870  1.00  0.00     0.185 HD
HETATM   11  N4  UNL     1      17.421   3.029  13.019  1.00  0.00    -0.264 N
HETATM   12  C8  UNL     1      17.222   1.768  13.388  1.00  0.00     0.343 A
HETATM   13  O3  UNL     1      17.330   0.861  12.498  1.00  0.00    -0.246 OA
HETATM   14  N7  UNL     1      16.917   1.469  14.664  1.00  0.00    -0.139 N
ATOM     15  H7  UNL     1      16.765   0.501  14.945  1.00  0.00     0.189 HD
BRANCH  11  16
HETATM   16  C5  UNL     1      17.752   3.340  11.623  1.00  0.00     0.292 C
HETATM   17  N5  UNL     1      18.771   4.348  11.589  1.00  0.00    -0.313 N
HETATM   18  C6  UNL     1      18.326   5.488  10.886  1.00  0.00     0.324 C
ATOM     19  H5  UNL     1      19.693   4.254  12.014  1.00  0.00     0.166 HD
HETATM   20  O1  UNL     1      19.007   6.524  10.591  1.00  0.00    -0.247 OA
HETATM   21  N6  UNL     1      16.965   5.288  10.551  1.00  0.00    -0.276 N
HETATM   22  C7  UNL     1      16.560   4.023  11.046  1.00  0.00     0.269 C
ATOM     23  H6  UNL     1      16.375   5.944  10.039  1.00  0.00     0.173 HD
HETATM   24  O2  UNL     1      15.420   3.482  11.045  1.00  0.00    -0.269 OA
ENDBRANCH  11  16
ENDBRANCH   5   7
ENDBRANCH   3   5
TORSDOF 3
ENDMDL