MODEL 2
REMARK VINA RESULT: -6.586724148      1.948      1.986
REMARK  3 active torsions:
REMARK  status: ('A' for Active; 'I' for Inactive)
REMARK       I    between atoms: N1_2  and  C2_4
REMARK       I    between atoms: C2_4  and  N2_6
REMARK    1  A    between atoms: N2_6  and  N3_7
REMARK    2  A    between atoms: C4_12  and  C5_13
REMARK       I    between atoms: C5_13  and  N5_15
REMARK    3  A    between atoms: N5_15  and  N6_17
ROOT
HETATM    1  N3  UNL     1      17.147   3.788  13.159  1.00  0.00    -0.078 N
HETATM    2  C3  UNL     1      16.821   3.333  11.964  1.00  0.00     0.362 A
HETATM    3  O2  UNL     1      16.240   2.197  11.845  1.00  0.00    -0.244 OA
HETATM    4  N4  UNL     1      17.078   4.028  10.828  1.00  0.00    -0.287 N
ATOM      5  H4  UNL     1      16.804   3.629   9.930  1.00  0.00     0.172 HD
HETATM    6  C4  UNL     1      17.681   5.220  10.854  1.00  0.00     0.184 A
HETATM    7  N7  UNL     1      18.023   5.709  12.032  1.00  0.00    -0.287 N
ATOM      8  H7  UNL     1      18.483   6.617  12.082  1.00  0.00     0.172 HD
HETATM    9  C6  UNL     1      17.777   5.037  13.159  1.00  0.00     0.362 A
HETATM   10  O4  UNL     1      18.109   5.519  14.254  1.00  0.00    -0.244 OA
ENDROOT
BRANCH   6  11
HETATM   11  C5  UNL     1      17.934   5.941   9.613  1.00  0.00     0.303 C
HETATM   12  O3  UNL     1      18.909   5.590   8.875  1.00  0.00    -0.263 OA
HETATM   13  N5  UNL     1      17.146   7.024   9.175  1.00  0.00    -0.270 N
ATOM     14  H5  UNL     1      16.362   7.317   9.757  1.00  0.00     0.189 HD
BRANCH  13  15
HETATM   15  N6  UNL     1      17.381   7.715   7.989  1.00  0.00    -0.342 N
ATOM     16  H62 UNL     1      17.433   8.732   8.044  1.00  0.00     0.176 HD
ATOM     17  H61 UNL     1      17.501   7.258   7.085  1.00  0.00     0.176 HD
ENDBRANCH  13  15
ENDBRANCH   6  11
BRANCH   1  18
HETATM   18  N2  UNL     1      16.984   3.271  14.410  1.00  0.00    -0.249 NA
HETATM   19  C2  UNL     1      16.829   2.776  15.608  1.00  0.00     0.412 C
HETATM   20  N1  UNL     1      15.571   2.844  16.327  1.00  0.00    -0.334 N
HETATM   21  O1  UNL     1      17.722   2.173  16.317  1.00  0.00    -0.228 OA
HETATM   22  C1  UNL     1      15.406   2.283  17.659  1.00  0.00     0.152 C
ATOM     23  H1  UNL     1      14.775   3.302  15.883  1.00  0.00     0.164 HD
ENDBRANCH   1  18
TORSDOF 3
ENDMDL