MODEL 2
REMARK VINA RESULT: -6.898185857      0.372      1.227
REMARK  1 active torsions:
REMARK  status: ('A' for Active; 'I' for Inactive)
REMARK       I    between atoms: N1_1  and  C1_5
REMARK       I    between atoms: C1_5  and  N2_6
REMARK       I    between atoms: C1_5  and  N3_10
REMARK    1  A    between atoms: C3_17  and  N6_18
ROOT
HETATM    1  N1  UNL     1      14.777   3.740  18.554  1.00  0.00    -0.033 N
ATOM      2  H11 UNL     1      14.394   4.648  18.292  1.00  0.00     0.278 HD
ATOM      3  H12 UNL     1      15.615   3.805  19.131  1.00  0.00     0.278 HD
ATOM      4  H13 UNL     1      14.199   3.236  19.227  1.00  0.00     0.278 HD
HETATM    5  C1  UNL     1      14.990   2.997  17.288  1.00  0.00     0.481 C
HETATM    6  N2  UNL     1      15.526   1.726  17.654  1.00  0.00    -0.033 N
ATOM      7  H21 UNL     1      15.672   1.215  16.783  1.00  0.00     0.278 HD
ATOM      8  H22 UNL     1      14.948   1.222  18.326  1.00  0.00     0.278 HD
ATOM      9  H23 UNL     1      16.364   1.791  18.231  1.00  0.00     0.278 HD
HETATM   10  N3  UNL     1      15.586   3.750  16.315  1.00  0.00    -0.322 N
ATOM     11  H3  UNL     1      15.355   4.716  16.546  1.00  0.00     0.165 HD
HETATM   12  C2  UNL     1      16.264   3.815  15.300  1.00  0.00     0.189 A
HETATM   13  N4  UNL     1      16.530   5.059  14.757  1.00  0.00    -0.267 N
ATOM     14  H4  UNL     1      16.151   5.886  15.217  1.00  0.00     0.189 HD
HETATM   15  N5  UNL     1      17.250   5.216  13.674  1.00  0.00    -0.130 N
ATOM     16  H5  UNL     1      17.409   6.162  13.327  1.00  0.00     0.205 HD
HETATM   17  C3  UNL     1      17.789   4.186  13.002  1.00  0.00     0.698 A
HETATM   18  N8  UNL     1      17.568   2.952  13.475  1.00  0.00    -0.152 N
ATOM     19  H8  UNL     1      17.961   2.144  12.991  1.00  0.00     0.188 HD
HETATM   20  C8  UNL     1      16.817   2.770  14.606  1.00  0.00     0.305 A
HETATM   21  O1  UNL     1      16.653   1.589  14.990  1.00  0.00    -0.263 OA
ENDROOT
BRANCH  17  22
HETATM   22  N6  UNL     1      18.565   4.377  11.821  1.00  0.00    -0.213 N
HETATM   23  C4  UNL     1      18.384   5.588  11.077  1.00  0.00     0.168 C
HETATM   24  C5  UNL     1      18.827   5.448   9.635  1.00  0.00     0.252 C
HETATM   25  N7  UNL     1      20.023   4.637   9.491  1.00  0.00    -0.072 N
HETATM   26  C6  UNL     1      19.696   3.300   9.952  1.00  0.00     0.252 C
ATOM     27  H72 UNL     1      20.403   4.650   8.545  1.00  0.00     0.277 HD
ATOM     28  H71 UNL     1      20.834   5.035   9.965  1.00  0.00     0.277 HD
HETATM   29  C7  UNL     1      19.491   3.334  11.450  1.00  0.00     0.168 C
ENDBRANCH  17  22
TORSDOF 1
ENDMDL