MODEL 4
REMARK VINA RESULT: -6.802119415      2.009      6.807
REMARK  3 active torsions:
REMARK  status: ('A' for Active; 'I' for Inactive)
REMARK    1  A    between atoms: N1_1  and  N2_4
REMARK       I    between atoms: N2_4  and  C1_6
REMARK       I    between atoms: C1_6  and  N3_8
REMARK    2  A    between atoms: C3_10  and  C4_11
REMARK    3  A    between atoms: N4_12  and  N5_14
ROOT
HETATM    1  N2  UNL     1      15.408   3.027  17.109  1.00  0.00    -0.257 N
ATOM      2  H2  UNL     1      15.675   2.043  17.085  1.00  0.00     0.191 HD
HETATM    3  C1  UNL     1      15.708   3.825  16.022  1.00  0.00     0.348 C
HETATM    4  O1  UNL     1      15.331   5.063  16.138  1.00  0.00    -0.245 OA
HETATM    5  N3  UNL     1      16.354   3.505  14.818  1.00  0.00    -0.224 N
HETATM    6  C2  UNL     1      16.543   4.478  13.870  1.00  0.00     0.125 A
HETATM    7  C3  UNL     1      17.160   4.268  12.666  1.00  0.00     0.065 A
HETATM    8  C6  UNL     1      17.608   2.983  12.424  1.00  0.00     0.262 A
HETATM    9  O2  UNL     1      18.183   2.722  11.339  1.00  0.00    -0.267 OA
HETATM   10  N8  UNL     1      17.441   2.005  13.329  1.00  0.00    -0.274 N
ATOM     11  H8  UNL     1      17.777   1.061  13.135  1.00  0.00     0.173 HD
HETATM   12  C7  UNL     1      16.808   2.288  14.525  1.00  0.00     0.337 A
HETATM   13  O3  UNL     1      16.670   1.344  15.345  1.00  0.00    -0.246 OA
ENDROOT
BRANCH   7  14
HETATM   14  C4  UNL     1      17.340   5.331  11.688  1.00  0.00     0.125 C
HETATM   15  N4  UNL     1      17.059   5.174  10.449  1.00  0.00    -0.309 N
ATOM     16  H4  UNL     1      16.696   4.268  10.151  1.00  0.00     0.186 HD
BRANCH  15  17
HETATM   17  N5  UNL     1      17.215   6.152   9.494  1.00  0.00    -0.276 N
HETATM   18  C5  UNL     1      18.221   6.330   8.740  1.00  0.00     0.215 C
HETATM   19  N6  UNL     1      19.393   5.535   8.745  1.00  0.00    -0.065 NA
HETATM   20  N7  UNL     1      18.176   7.418   7.810  1.00  0.00    -0.065 NA
ATOM     21  H5  UNL     1      16.439   6.804   9.379  1.00  0.00     0.189 HD
ENDBRANCH  15  17
ENDBRANCH   7  14
BRANCH   1  22
HETATM   22  N1  UNL     1      14.738   3.531  18.264  1.00  0.00    -0.341 N
ATOM     23  H12 UNL     1      13.940   4.150  18.119  1.00  0.00     0.177 HD
ATOM     24  H11 UNL     1      15.031   3.294  19.212  1.00  0.00     0.177 HD
ENDBRANCH   1  22
TORSDOF 3
ENDMDL