MODEL 2
REMARK VINA RESULT: -7.494040091      2.455      3.657
REMARK  6 active torsions:
REMARK  status: ('A' for Active; 'I' for Inactive)
REMARK    1  A    between atoms: O1_2  and  N1_3
REMARK    2  A    between atoms: N1_3  and  C2_5
REMARK    3  A    between atoms: C3_8  and  N3_9
REMARK    4  A    between atoms: C6_14  and  N4_15
REMARK    5  A    between atoms: N4_15  and  N5_17
REMARK       I    between atoms: N5_17  and  C7_19
REMARK    6  A    between atoms: C7_19  and  C8_21
ROOT
HETATM    1  C2  UNL     1      16.622   3.831  11.700  1.00  0.00     0.705 C
HETATM    2  N2  UNL     1      16.727   4.754  10.724  1.00  0.00    -0.175 N
ATOM      3  H2  UNL     1      16.333   4.515   9.814  1.00  0.00     0.186 HD
HETATM    4  C3  UNL     1      17.307   5.970  10.841  1.00  0.00     0.114 C
HETATM    5  C4  UNL     1      18.006   6.534  11.912  1.00  0.00     0.052 C
HETATM    6  C5  UNL     1      18.109   6.068  13.206  1.00  0.00     0.054 C
HETATM    7  C6  UNL     1      17.506   4.926  13.691  1.00  0.00     0.135 C
HETATM    8  N7  UNL     1      16.873   3.923  13.019  1.00  0.00    -0.174 N
ATOM      9  H7  UNL     1      16.549   3.141  13.588  1.00  0.00     0.186 HD
ENDROOT
BRANCH   7  10
HETATM   10  N4  UNL     1      17.523   4.745  14.961  1.00  0.00    -0.282 N
ATOM     11  H4  UNL     1      18.332   5.023  15.516  1.00  0.00     0.188 HD
BRANCH  10  12
HETATM   12  N5  UNL     1      16.415   4.162  15.565  1.00  0.00    -0.261 N
HETATM   13  C7  UNL     1      16.591   3.050  16.429  1.00  0.00     0.325 C
HETATM   14  O2  UNL     1      17.731   2.587  16.653  1.00  0.00    -0.261 OA
ATOM     15  H5  UNL     1      15.480   4.531  15.388  1.00  0.00     0.190 HD
BRANCH  13  16
HETATM   16  C8  UNL     1      15.421   2.459  17.047  1.00  0.00     0.324 C
HETATM   17  N6  UNL     1      14.211   3.182  17.151  1.00  0.00    -0.053 NA
HETATM   18  O3  UNL     1      15.472   1.294  17.497  1.00  0.00    -0.266 OA
ENDBRANCH  13  16
ENDBRANCH  10  12
ENDBRANCH   7  10
BRANCH   1  19
HETATM   19  N1  UNL     1      16.209   2.674  11.287  1.00  0.00    -0.097 N
ATOM     20  H1  UNL     1      15.451   2.223  11.799  1.00  0.00     0.213 HD
BRANCH  19  21
HETATM   21  O1  UNL     1      16.729   2.027  10.212  1.00  0.00    -0.272 OA
HETATM   22  C1  UNL     1      17.935   1.328  10.188  1.00  0.00     0.238 C
ENDBRANCH  19  21
ENDBRANCH   1  19
BRANCH   4  23
HETATM   23  N3  UNL     1      17.177   6.699   9.783  1.00  0.00    -0.385 N
ATOM     24  H32 UNL     1      16.255   7.099   9.613  1.00  0.00     0.157 HD
ATOM     25  H31 UNL     1      18.039   6.781   9.244  1.00  0.00     0.157 HD
ENDBRANCH   4  23
TORSDOF 6
ENDMDL