MODEL 5
REMARK VINA RESULT: -6.534844105      1.145      1.272
REMARK  5 active torsions:
REMARK  status: ('A' for Active; 'I' for Inactive)
REMARK    1  A    between atoms: N1_2  and  C2_4
REMARK    2  A    between atoms: C4_11  and  N4_12
REMARK    3  A    between atoms: N7_19  and  C7_21
REMARK    4  A    between atoms: C7_21  and  O2_23
REMARK    5  A    between atoms: O2_23  and  N8_24
ROOT
HETATM    1  N4  UNL     1      17.043   1.829  14.307  1.00  0.00    -0.126 N
ATOM      2  H4  UNL     1      16.878   0.833  14.166  1.00  0.00     0.197 HD
HETATM    3  C5  UNL     1      17.263   2.303  15.603  1.00  0.00     0.196 C
HETATM    4  N5  UNL     1      17.447   2.681  16.692  1.00  0.00    -0.171 NA
ENDROOT
BRANCH   1   5
HETATM    5  C4  UNL     1      17.041   2.612  13.286  1.00  0.00     0.697 C
HETATM    6  N3  UNL     1      16.829   2.046  12.099  1.00  0.00    -0.140 N
HETATM    7  C3  UNL     1      16.762   2.681  10.907  1.00  0.00     0.340 C
ATOM      8  H3  UNL     1      16.706   1.033  12.087  1.00  0.00     0.189 HD
HETATM    9  N2  UNL     1      16.819   4.004  10.626  1.00  0.00    -0.291 N
HETATM   10  O1  UNL     1      16.625   1.956   9.888  1.00  0.00    -0.246 OA
HETATM   11  C2  UNL     1      17.064   5.035  11.452  1.00  0.00     0.150 C
ATOM     12  H2  UNL     1      16.653   4.254   9.651  1.00  0.00     0.172 HD
HETATM   13  C6  UNL     1      17.045   5.001  12.832  1.00  0.00     0.163 C
HETATM   14  N6  UNL     1      17.258   3.904  13.577  1.00  0.00    -0.172 N
HETATM   15  N7  UNL     1      16.811   6.099  13.391  1.00  0.00    -0.345 N
ATOM     16  H6  UNL     1      17.643   4.079  14.505  1.00  0.00     0.186 HD
ATOM     17  H7  UNL     1      16.664   6.881  12.751  1.00  0.00     0.163 HD
BRANCH  11  18
HETATM   18  N1  UNL     1      17.344   6.163  10.884  1.00  0.00    -0.378 N
HETATM   19  C1  UNL     1      18.145   6.253   9.689  1.00  0.00     0.148 C
ATOM     20  H1  UNL     1      16.983   7.022  11.297  1.00  0.00     0.160 HD
ENDBRANCH  11  18
BRANCH  15  21
HETATM   21  C7  UNL     1      16.717   6.435  14.771  1.00  0.00     0.247 C
HETATM   22  C8  UNL     1      15.226   6.615  15.089  1.00  0.00     0.065 C
BRANCH  21  23
HETATM   23  O2  UNL     1      17.424   7.568  15.140  1.00  0.00    -0.262 OA
BRANCH  23  24
HETATM   24  N8  UNL     1      17.751   8.288  14.069  1.00  0.00    -0.309 N
ATOM     25  H82 UNL     1      17.917   7.889  13.145  1.00  0.00     0.184 HD
ATOM     26  H81 UNL     1      17.808   9.279  14.305  1.00  0.00     0.184 HD
ENDBRANCH  23  24
ENDBRANCH  21  23
ENDBRANCH  15  21
ENDBRANCH   1   5
TORSDOF 5
ENDMDL