MODEL 1
REMARK VINA RESULT: -6.664083507      0.000      0.000
REMARK  4 active torsions:
REMARK  status: ('A' for Active; 'I' for Inactive)
REMARK    1  A    between atoms: N1_1  and  C1_4
REMARK    2  A    between atoms: C2_7  and  N3_8
REMARK    3  A    between atoms: N4_11  and  C3_12
REMARK    4  A    between atoms: C3_12  and  N5_13
ROOT
HETATM    1  C1  UNL     1      14.557   3.276  16.876  1.00  0.00     0.694 A
HETATM    2  N2  UNL     1      15.573   2.434  16.622  1.00  0.00    -0.022 N
ATOM      3  H2  UNL     1      15.638   1.570  17.160  1.00  0.00     0.203 HD
HETATM    4  C2  UNL     1      16.502   2.682  15.692  1.00  0.00     0.701 A
HETATM    5  N4  UNL     1      16.449   3.812  14.960  1.00  0.00    -0.094 N
HETATM    6  C7  UNL     1      15.436   4.651  15.214  1.00  0.00     0.360 A
HETATM    7  O2  UNL     1      15.282   5.745  14.591  1.00  0.00    -0.245 OA
HETATM    8  N8  UNL     1      14.486   4.405  16.158  1.00  0.00    -0.140 N
ATOM      9  H8  UNL     1      13.730   5.071  16.317  1.00  0.00     0.189 HD
ENDROOT
BRANCH   5  10
HETATM   10  C3  UNL     1      17.416   4.148  13.963  1.00  0.00     0.204 C
BRANCH  10  11
HETATM   11  N5  UNL     1      17.637   3.218  12.929  1.00  0.00    -0.181 NA
HETATM   12  C4  UNL     1      16.603   3.066  11.970  1.00  0.00     0.223 C
HETATM   13  C5  UNL     1      17.027   2.174  10.840  1.00  0.00     0.237 C
HETATM   14  O1  UNL     1      16.131   1.575  10.211  1.00  0.00    -0.272 OA
HETATM   15  N6  UNL     1      18.398   2.022  10.505  1.00  0.00    -0.321 N
HETATM   16  C6  UNL     1      19.306   2.640  11.199  1.00  0.00     0.195 C
ATOM     17  H6  UNL     1      18.670   1.429   9.722  1.00  0.00     0.169 HD
HETATM   18  N7  UNL     1      18.844   3.450  12.277  1.00  0.00    -0.309 N
ATOM     19  H7  UNL     1      19.423   4.233  12.583  1.00  0.00     0.182 HD
ENDBRANCH  10  11
ENDBRANCH   5  10
BRANCH   4  20
HETATM   20  N3  UNL     1      17.446   1.862  15.482  1.00  0.00    -0.233 N
ATOM     21  H32 UNL     1      18.133   2.078  14.760  1.00  0.00     0.174 HD
ATOM     22  H31 UNL     1      17.521   1.001  16.023  1.00  0.00     0.174 HD
ENDBRANCH   4  20
BRANCH   1  23
HETATM   23  N1  UNL     1      13.684   2.994  17.784  1.00  0.00    -0.234 N
ATOM     24  H12 UNL     1      13.493   3.629  18.559  1.00  0.00     0.174 HD
ATOM     25  H11 UNL     1      13.160   2.120  17.744  1.00  0.00     0.174 HD
ENDBRANCH   1  23
TORSDOF 4
ENDMDL