MODEL 1
REMARK VINA RESULT: -7.652159924      0.000      0.000
REMARK  2 active torsions:
REMARK  status: ('A' for Active; 'I' for Inactive)
REMARK    1  A    between atoms: C5_12  and  N3_13
REMARK    2  A    between atoms: N3_13  and  N4_15
ROOT
HETATM    1  N1  UNL     1      14.046   5.733  17.403  1.00  0.00    -0.234 N
ATOM      2  H11 UNL     1      14.051   6.638  16.933  1.00  0.00     0.174 HD
ATOM      3  H12 UNL     1      13.502   5.653  18.261  1.00  0.00     0.174 HD
HETATM    4  C1  UNL     1      14.706   4.728  16.928  1.00  0.00     0.679 A
HETATM    5  N2  UNL     1      14.700   3.471  17.581  1.00  0.00    -0.153 N
ATOM      6  H2  UNL     1      14.160   3.373  18.440  1.00  0.00     0.187 HD
HETATM    7  C2  UNL     1      15.409   2.342  17.095  1.00  0.00     0.312 A
HETATM    8  O1  UNL     1      15.367   1.250  17.718  1.00  0.00    -0.263 OA
HETATM    9  C3  UNL     1      16.182   2.463  15.872  1.00  0.00     0.268 A
HETATM   10  O2  UNL     1      16.811   1.455  15.445  1.00  0.00    -0.280 OA
HETATM   11  C4  UNL     1      16.192   3.744  15.202  1.00  0.00     0.121 A
HETATM   12  C5  UNL     1      16.874   3.906  14.093  1.00  0.00     0.141 C
HETATM   13  N7  UNL     1      15.468   4.840  15.727  1.00  0.00    -0.186 N
ATOM     14  H7  UNL     1      15.491   5.733  15.234  1.00  0.00     0.184 HD
ENDROOT
BRANCH  12  15
HETATM   15  N3  UNL     1      17.598   2.807  13.568  1.00  0.00    -0.305 N
ATOM     16  H3  UNL     1      18.072   2.169  14.208  1.00  0.00     0.186 HD
BRANCH  15  17
HETATM   17  N4  UNL     1      17.674   2.583  12.208  1.00  0.00    -0.264 N
HETATM   18  C6  UNL     1      16.607   2.147  11.342  1.00  0.00     0.171 C
HETATM   19  C7  UNL     1      17.387   1.534  10.209  1.00  0.00     0.144 C
HETATM   20  N5  UNL     1      18.671   2.157  10.303  1.00  0.00    -0.362 N
HETATM   21  C8  UNL     1      18.862   2.753  11.412  1.00  0.00     0.205 C
ATOM     22  H5  UNL     1      19.365   2.126   9.556  1.00  0.00     0.162 HD
HETATM   23  N6  UNL     1      20.003   3.477  11.865  1.00  0.00    -0.062 NA
ENDBRANCH  15  17
ENDBRANCH  12  15
TORSDOF 2
ENDMDL