MODEL 3
REMARK VINA RESULT: -6.834337723      1.894      3.379
REMARK  13 active torsions:
REMARK  status: ('A' for Active; 'I' for Inactive)
REMARK    1  A    between atoms: N2_6  and  C3_8
REMARK    2  A    between atoms: C3_8  and  O1_9
REMARK    3  A    between atoms: C3_8  and  C4_11
REMARK    4  A    between atoms: C4_11  and  C5_12
REMARK    5  A    between atoms: C4_11  and  N3_18
REMARK    6  A    between atoms: C5_12  and  C6_13
REMARK    7  A    between atoms: C6_13  and  O2_14
REMARK    8  A    between atoms: C6_13  and  O3_16
REMARK    9  A    between atoms: C11_31  and  C12_32
REMARK   10  A    between atoms: C12_32  and  O7_33
REMARK   11  A    between atoms: N6_35  and  C13_36
REMARK   12  A    between atoms: C13_36  and  N7_37
REMARK   13  A    between atoms: C13_36  and  O8_41
ROOT
HETATM    1  N1  UNL     1      17.117   5.683  10.506  1.00  0.00    -0.384 N
ATOM      2  H11 UNL     1      16.954   6.579  10.047  1.00  0.00     0.157 HD
ATOM      3  H12 UNL     1      16.301   5.080  10.603  1.00  0.00     0.157 HD
HETATM    4  C1  UNL     1      18.253   5.334  10.947  1.00  0.00     0.126 C
HETATM    5  C2  UNL     1      18.487   4.054  11.605  1.00  0.00     0.081 C
HETATM    6  N2  UNL     1      17.708   3.591  12.483  1.00  0.00    -0.338 N
ATOM      7  H2  UNL     1      17.995   2.685  12.854  1.00  0.00     0.167 HD
HETATM    8  C10 UNL     1      19.738   3.322  11.175  1.00  0.00     0.295 C
HETATM    9  N5  UNL     1      20.728   4.234  10.693  1.00  0.00    -0.047 N
ATOM     10  H51 UNL     1      20.710   4.270   9.674  1.00  0.00     0.280 HD
ATOM     11  H52 UNL     1      21.662   3.852  10.838  1.00  0.00     0.280 HD
HETATM   12  C11 UNL     1      20.637   5.572  11.248  1.00  0.00     0.315 C
HETATM   13  N6  UNL     1      19.413   6.191  10.809  1.00  0.00    -0.286 N
ENDROOT
BRANCH   6  14
HETATM   14  C3  UNL     1      16.538   4.079  13.040  1.00  0.00     0.140 C
BRANCH  14  15
HETATM   15  O1  UNL     1      15.452   3.687  12.431  1.00  0.00    -0.348 OA
ATOM     16  H1  UNL     1      14.905   4.397  12.116  1.00  0.00     0.219 HD
ENDBRANCH  14  15
BRANCH  14  17
HETATM   17  C4  UNL     1      16.383   4.960  14.194  1.00  0.00     0.177 C
BRANCH  17  18
HETATM   18  C5  UNL     1      17.552   5.759  14.648  1.00  0.00     0.094 C
BRANCH  18  19
HETATM   19  C6  UNL     1      17.488   7.213  14.293  1.00  0.00     0.256 C
BRANCH  19  20
HETATM   20  O2  UNL     1      16.565   7.416  13.234  1.00  0.00    -0.371 OA
ATOM     21  H2  UNL     1      17.030   7.558  12.418  1.00  0.00     0.212 HD
ENDBRANCH  19  20
BRANCH  19  22
HETATM   22  O3  UNL     1      18.702   7.681  13.825  1.00  0.00    -0.371 OA
ATOM     23  H3  UNL     1      18.606   8.156  13.007  1.00  0.00     0.212 HD
ENDBRANCH  19  22
ENDBRANCH  18  19
ENDBRANCH  17  18
BRANCH  17  24
HETATM   24  N3  UNL     1      15.770   4.249  15.325  1.00  0.00    -0.249 N
HETATM   25  C7  UNL     1      14.853   4.777  16.268  1.00  0.00     0.333 A
HETATM   26  O4  UNL     1      14.385   5.966  16.314  1.00  0.00    -0.246 OA
HETATM   27  N4  UNL     1      14.545   3.715  17.169  1.00  0.00    -0.271 N
HETATM   28  C8  UNL     1      15.266   2.549  16.783  1.00  0.00     0.318 A
ATOM     29  H4  UNL     1      13.910   3.781  17.964  1.00  0.00     0.174 HD
HETATM   30  O5  UNL     1      15.263   1.401  17.329  1.00  0.00    -0.262 OA
HETATM   31  C9  UNL     1      16.054   2.882  15.602  1.00  0.00     0.320 A
HETATM   32  O6  UNL     1      16.822   2.097  14.975  1.00  0.00    -0.262 OA
ENDBRANCH  17  24
ENDBRANCH  14  17
ENDBRANCH   6  14
BRANCH  13  33
HETATM   33  C13 UNL     1      19.234   7.496  10.277  1.00  0.00     0.429 C
BRANCH  33  34
HETATM   34  N7  UNL     1      18.760   7.382   8.891  1.00  0.00    -0.035 N
ATOM     35  H73 UNL     1      19.463   7.676   8.213  1.00  0.00     0.279 HD
ATOM     36  H72 UNL     1      18.669   6.412   8.589  1.00  0.00     0.279 HD
ATOM     37  H71 UNL     1      17.888   7.902   8.798  1.00  0.00     0.279 HD
ENDBRANCH  33  34
BRANCH  33  38
HETATM   38  O8  UNL     1      18.165   8.100  10.977  1.00  0.00    -0.354 OA
ATOM     39  H8  UNL     1      17.909   8.878  10.494  1.00  0.00     0.213 HD
ENDBRANCH  33  38
ENDBRANCH  13  33
BRANCH  12  40
HETATM   40  C12 UNL     1      21.865   6.344  10.865  1.00  0.00     0.218 C
BRANCH  40  41
HETATM   41  O7  UNL     1      22.956   5.731  11.512  1.00  0.00    -0.397 OA
ATOM     42  H7  UNL     1      23.657   5.665  10.874  1.00  0.00     0.209 HD
ENDBRANCH  40  41
ENDBRANCH  12  40
TORSDOF 13
ENDMDL