MODEL 5
REMARK VINA RESULT: -7.140695398      2.907      5.210
REMARK  9 active torsions:
REMARK  status: ('A' for Active; 'I' for Inactive)
REMARK    1  A    between atoms: C1_4  and  C2_5
REMARK    2  A    between atoms: C1_4  and  N6_17
REMARK       I    between atoms: N2_6  and  C3_8
REMARK    3  A    between atoms: C3_8  and  C4_10
REMARK    4  A    between atoms: N4_12  and  N5_14
REMARK    5  A    between atoms: N6_17  and  C5_19
REMARK    6  A    between atoms: N7_24  and  N8_25
REMARK    7  A    between atoms: N8_25  and  C7_27
REMARK    8  A    between atoms: C10_35  and  C11_36
REMARK    9  A    between atoms: C11_36  and  O4_37
ROOT
HETATM    1  C5  UNL     1      18.773   5.735  11.203  1.00  0.00     0.105 C
HETATM    2  C6  UNL     1      17.667   4.867  10.624  1.00  0.00     0.184 C
HETATM    3  S1  UNL     1      16.894   3.992  11.966  1.00  0.00     0.230 S
HETATM    4  O2  UNL     1      15.528   3.578  11.507  1.00  0.00    -0.210 OA
HETATM    5  O3  UNL     1      17.743   2.812  12.330  1.00  0.00    -0.210 OA
HETATM    6  N7  UNL     1      16.824   5.110  13.269  1.00  0.00    -0.118 NA
HETATM    7  C9  UNL     1      16.852   6.437  12.684  1.00  0.00     0.141 C
HETATM    8  C10 UNL     1      18.288   6.678  12.243  1.00  0.00     0.049 C
ENDROOT
BRANCH   1   9
HETATM    9  N6  UNL     1      19.402   6.482  10.134  1.00  0.00    -0.369 N
ATOM     10  H6  UNL     1      18.997   7.367   9.828  1.00  0.00     0.161 HD
BRANCH   9  11
HETATM   11  C1  UNL     1      20.576   5.992   9.510  1.00  0.00     0.110 C
HETATM   12  N1  UNL     1      20.479   5.272   8.439  1.00  0.00    -0.385 N
ATOM     13  H12 UNL     1      21.324   4.919   7.990  1.00  0.00     0.157 HD
ATOM     14  H11 UNL     1      19.573   5.048   8.028  1.00  0.00     0.157 HD
BRANCH  11  15
HETATM   15  C2  UNL     1      21.865   6.311  10.095  1.00  0.00     0.139 C
HETATM   16  N2  UNL     1      22.897   6.422   9.344  1.00  0.00    -0.327 N
HETATM   17  C3  UNL     1      24.141   6.734   9.940  1.00  0.00     0.287 C
ATOM     18  H2  UNL     1      22.823   6.288   8.336  1.00  0.00     0.168 HD
HETATM   19  O1  UNL     1      25.101   5.951   9.803  1.00  0.00    -0.264 OA
BRANCH  17  20
HETATM   20  C4  UNL     1      24.277   7.959  10.699  1.00  0.00     0.199 C
HETATM   21  N3  UNL     1      24.023   9.225  10.070  1.00  0.00    -0.075 NA
HETATM   22  N4  UNL     1      24.625   7.991  11.950  1.00  0.00    -0.290 N
ATOM     23  H4  UNL     1      24.709   8.876  12.449  1.00  0.00     0.187 HD
BRANCH  22  24
HETATM   24  N5  UNL     1      24.878   6.786  12.585  1.00  0.00    -0.344 N
ATOM     25  H52 UNL     1      24.782   6.712  13.598  1.00  0.00     0.176 HD
ATOM     26  H51 UNL     1      25.158   5.991  12.010  1.00  0.00     0.176 HD
ENDBRANCH  22  24
ENDBRANCH  17  20
ENDBRANCH  11  15
ENDBRANCH   9  11
ENDBRANCH   1   9
BRANCH   8  27
HETATM   27  C11 UNL     1      19.141   6.601  13.512  1.00  0.00     0.172 C
BRANCH  27  28
HETATM   28  O4  UNL     1      20.055   5.575  13.491  1.00  0.00    -0.400 OA
ATOM     29  H4  UNL     1      19.974   4.985  14.230  1.00  0.00     0.209 HD
ENDBRANCH  27  28
ENDBRANCH   8  27
BRANCH   6  30
HETATM   30  N8  UNL     1      15.783   4.904  14.138  1.00  0.00    -0.276 N
ATOM     31  H8  UNL     1      14.890   5.345  13.916  1.00  0.00     0.185 HD
BRANCH  30  32
HETATM   32  C7  UNL     1      15.853   4.120  15.328  1.00  0.00     0.203 A
HETATM   33  N9  UNL     1      15.176   4.229  16.421  1.00  0.00    -0.345 N
HETATM   34  C8  UNL     1      15.546   3.242  17.386  1.00  0.00     0.259 A
ATOM     35  H9  UNL     1      14.460   4.938  16.577  1.00  0.00     0.163 HD
HETATM   36  N10 UNL     1      16.498   2.399  16.734  1.00  0.00    -0.119 NA
HETATM   37  N11 UNL     1      16.740   3.023  15.505  1.00  0.00    -0.273 N
ATOM     38  H11 UNL     1      17.450   2.732  14.833  1.00  0.00     0.185 HD
ENDBRANCH  30  32
ENDBRANCH   6  30
TORSDOF 9
ENDMDL