MODEL 1
REMARK VINA RESULT: -7.793047880      0.000      0.000
REMARK  11 active torsions:
REMARK  status: ('A' for Active; 'I' for Inactive)
REMARK    1  A    between atoms: C4_7  and  O2_8
REMARK    2  A    between atoms: O2_8  and  C5_9
REMARK    3  A    between atoms: C6_12  and  N3_13
REMARK    4  A    between atoms: N5_17  and  C9_18
REMARK    5  A    between atoms: C9_18  and  O3_19
REMARK    6  A    between atoms: C9_18  and  C10_21
REMARK    7  A    between atoms: C10_21  and  O4_22
REMARK    8  A    between atoms: C10_21  and  C11_24
REMARK    9  A    between atoms: C11_24  and  O5_25
REMARK   10  A    between atoms: C11_24  and  C12_27
REMARK   11  A    between atoms: C12_27  and  O6_29
ROOT
HETATM    1  N3  UNL     1      17.759   5.576  12.884  1.00  0.00    -0.273 N
HETATM    2  C7  UNL     1      17.001   6.768  12.558  1.00  0.00     0.164 C
HETATM    3  C8  UNL     1      16.273   7.079  13.825  1.00  0.00     0.152 C
HETATM    4  N4  UNL     1      17.008   6.366  14.824  1.00  0.00    -0.141 NA
HETATM    5  N5  UNL     1      17.476   5.178  14.198  1.00  0.00    -0.108 NA
ENDROOT
BRANCH   1   6
HETATM    6  C6  UNL     1      18.651   4.955  11.943  1.00  0.00     0.188 A
HETATM    7  N2  UNL     1      19.935   4.918  11.992  1.00  0.00    -0.328 N
HETATM    8  C5  UNL     1      20.513   4.214  10.889  1.00  0.00     0.337 A
ATOM      9  H2  UNL     1      20.484   5.345  12.737  1.00  0.00     0.165 HD
HETATM   10  N6  UNL     1      19.392   3.782  10.087  1.00  0.00    -0.311 N
HETATM   11  C14 UNL     1      18.223   4.245  10.747  1.00  0.00     0.289 A
ATOM     12  H6  UNL     1      19.432   3.249   9.218  1.00  0.00     0.167 HD
HETATM   13  O7  UNL     1      17.016   4.093  10.396  1.00  0.00    -0.264 OA
BRANCH   8  14
HETATM   14  O2  UNL     1      21.379   5.025  10.148  1.00  0.00    -0.310 OA
BRANCH  14  15
HETATM   15  C4  UNL     1      22.100   5.804  11.019  1.00  0.00     0.359 C
HETATM   16  C3  UNL     1      23.447   6.173  10.505  1.00  0.00     0.275 C
HETATM   17  N1  UNL     1      23.752   7.426  11.140  1.00  0.00    -0.331 N
HETATM   18  O1  UNL     1      24.157   5.523   9.692  1.00  0.00    -0.268 OA
HETATM   19  C2  UNL     1      22.519   7.795  11.848  1.00  0.00     0.223 C
ATOM     20  H1  UNL     1      24.631   7.944  11.107  1.00  0.00     0.165 HD
HETATM   21  C1  UNL     1      22.363   9.290  11.691  1.00  0.00     0.063 C
HETATM   22  O8  UNL     1      21.528   7.086  11.180  1.00  0.00    -0.328 OA
ENDBRANCH  14  15
ENDBRANCH   8  14
ENDBRANCH   1   6
BRANCH   5  23
HETATM   23  C9  UNL     1      16.417   4.183  14.161  1.00  0.00     0.262 C
BRANCH  23  24
HETATM   24  O3  UNL     1      17.032   3.003  13.757  1.00  0.00    -0.375 OA
ATOM     25  H3  UNL     1      16.673   2.326  14.319  1.00  0.00     0.211 HD
ENDBRANCH  23  24
BRANCH  23  26
HETATM   26  C10 UNL     1      15.756   4.027  15.514  1.00  0.00     0.195 C
BRANCH  26  27
HETATM   27  O4  UNL     1      14.482   4.519  15.594  1.00  0.00    -0.389 OA
ATOM     28  H4  UNL     1      14.201   4.762  16.468  1.00  0.00     0.210 HD
ENDBRANCH  26  27
BRANCH  26  29
HETATM   29  C11 UNL     1      15.948   2.687  16.142  1.00  0.00     0.179 C
BRANCH  29  30
HETATM   30  O5  UNL     1      17.316   2.621  16.525  1.00  0.00    -0.390 OA
ATOM     31  H5  UNL     1      17.448   1.752  16.887  1.00  0.00     0.210 HD
ENDBRANCH  29  30
BRANCH  29  32
HETATM   32  C12 UNL     1      15.171   2.434  17.401  1.00  0.00     0.145 C
HETATM   33  C13 UNL     1      15.123   3.600  18.353  1.00  0.00     0.042 C
BRANCH  32  34
HETATM   34  O6  UNL     1      13.835   2.222  16.977  1.00  0.00    -0.393 OA
ATOM     35  H6  UNL     1      13.309   2.809  17.507  1.00  0.00     0.210 HD
ENDBRANCH  32  34
ENDBRANCH  29  32
ENDBRANCH  26  29
ENDBRANCH  23  26
ENDBRANCH   5  23
TORSDOF 11
ENDMDL