MODEL 2
REMARK VINA RESULT: -7.894773729      2.980      7.292
REMARK  11 active torsions:
REMARK  status: ('A' for Active; 'I' for Inactive)
REMARK    1  A    between atoms: N3_11  and  C6_12
REMARK    2  A    between atoms: C7_14  and  C8_15
REMARK    3  A    between atoms: C8_15  and  N4_16
REMARK       I    between atoms: N4_16  and  C9_18
REMARK    4  A    between atoms: C9_18  and  C10_20
REMARK    5  A    between atoms: C10_20  and  N5_21
REMARK    6  A    between atoms: C11_25  and  O5_26
REMARK    7  A    between atoms: C11_25  and  O6_28
REMARK    8  A    between atoms: C12_30  and  O7_31
REMARK    9  A    between atoms: C12_30  and  C13_33
REMARK   10  A    between atoms: C13_33  and  O8_34
REMARK   11  A    between atoms: C13_33  and  O9_36
ROOT
HETATM    1  C6  UNL     1      18.815   4.219  11.230  1.00  0.00     0.277 C
HETATM    2  O3  UNL     1      18.406   3.685  12.425  1.00  0.00    -0.350 OA
HETATM    3  C7  UNL     1      17.510   2.693  11.978  1.00  0.00     0.207 C
HETATM    4  C11 UNL     1      16.676   3.409  10.959  1.00  0.00     0.229 C
HETATM    5  C12 UNL     1      17.541   4.642  10.605  1.00  0.00     0.210 C
ENDROOT
BRANCH   1   6
HETATM    6  N3  UNL     1      19.824   5.217  11.390  1.00  0.00    -0.274 N
HETATM    7  C3  UNL     1      20.785   5.746  10.433  1.00  0.00     0.141 A
HETATM    8  C2  UNL     1      21.300   6.594  11.351  1.00  0.00     0.140 A
HETATM    9  C4  UNL     1      21.336   5.767   9.164  1.00  0.00     0.279 A
HETATM   10  N1  UNL     1      22.333   7.448  11.044  1.00  0.00    -0.297 N
HETATM   11  C14 UNL     1      20.359   6.094  12.338  1.00  0.00     0.280 A
HETATM   12  C1  UNL     1      22.860   8.338  12.045  1.00  0.00     0.161 C
HETATM   13  C5  UNL     1      22.860   7.461   9.813  1.00  0.00     0.329 A
HETATM   14  N2  UNL     1      22.346   6.616   8.901  1.00  0.00    -0.273 N
HETATM   15  O2  UNL     1      23.810   8.249   9.537  1.00  0.00    -0.246 OA
ATOM     16  H2  UNL     1      22.742   6.620   7.962  1.00  0.00     0.173 HD
HETATM   17  O10 UNL     1      20.175   6.385  13.526  1.00  0.00    -0.265 OA
HETATM   18  O1  UNL     1      20.881   4.999   8.300  1.00  0.00    -0.265 OA
ENDBRANCH   1   6
BRANCH   5  19
HETATM   19  O7  UNL     1      17.708   4.698   9.239  1.00  0.00    -0.376 OA
ATOM     20  H7  UNL     1      16.934   4.345   8.817  1.00  0.00     0.211 HD
ENDBRANCH   5  19
BRANCH   5  21
HETATM   21  C13 UNL     1      16.893   5.883  11.074  1.00  0.00     0.298 C
BRANCH  21  22
HETATM   22  O8  UNL     1      15.824   6.134  10.162  1.00  0.00    -0.368 OA
ATOM     23  H8  UNL     1      15.838   7.070   9.996  1.00  0.00     0.212 HD
ENDBRANCH  21  22
BRANCH  21  24
HETATM   24  O9  UNL     1      16.229   5.732  12.298  1.00  0.00    -0.368 OA
ATOM     25  H9  UNL     1      15.320   5.472  12.202  1.00  0.00     0.212 HD
ENDBRANCH  21  24
ENDBRANCH   5  21
BRANCH   3  26
HETATM   26  C8  UNL     1      16.722   2.184  13.138  1.00  0.00     0.160 C
BRANCH  26  27
HETATM   27  N4  UNL     1      16.644   3.083  14.246  1.00  0.00    -0.357 N
HETATM   28  C9  UNL     1      16.345   2.621  15.548  1.00  0.00     0.243 C
HETATM   29  O4  UNL     1      16.140   1.421  15.791  1.00  0.00    -0.272 OA
ATOM     30  H4  UNL     1      16.807   4.078  14.094  1.00  0.00     0.162 HD
BRANCH  28  31
HETATM   31  C10 UNL     1      16.273   3.593  16.660  1.00  0.00     0.331 C
BRANCH  31  32
HETATM   32  N5  UNL     1      15.374   3.143  17.702  1.00  0.00    -0.071 N
ATOM     33  H53 UNL     1      15.191   3.881  18.382  1.00  0.00     0.274 HD
ATOM     34  H52 UNL     1      14.426   3.016  17.347  1.00  0.00     0.274 HD
ATOM     35  H51 UNL     1      15.720   2.297  18.154  1.00  0.00     0.274 HD
ENDBRANCH  31  32
ENDBRANCH  28  31
ENDBRANCH  26  27
ENDBRANCH   3  26
BRANCH   4  36
HETATM   36  O5  UNL     1      16.586   2.596   9.820  1.00  0.00    -0.361 OA
ATOM     37  H5  UNL     1      15.755   2.774   9.395  1.00  0.00     0.213 HD
ENDBRANCH   4  36
BRANCH   4  38
HETATM   38  O6  UNL     1      15.447   3.787  11.446  1.00  0.00    -0.361 OA
ATOM     39  H6  UNL     1      15.178   4.647  11.143  1.00  0.00     0.213 HD
ENDBRANCH   4  38
TORSDOF 11
ENDMDL