MODEL 2
REMARK VINA RESULT: -7.721823649      3.437      4.019
REMARK  9 active torsions:
REMARK  status: ('A' for Active; 'I' for Inactive)
REMARK    1  A    between atoms: N3_8  and  N4_9
REMARK    2  A    between atoms: N5_12  and  N6_13
REMARK    3  A    between atoms: N6_13  and  C4_14
REMARK    4  A    between atoms: C4_14  and  C5_15
REMARK    5  A    between atoms: C6_16  and  C7_17
REMARK    6  A    between atoms: C7_17  and  C8_18
REMARK    7  A    between atoms: C8_18  and  O2_19
REMARK    8  A    between atoms: C10_25  and  N8_26
REMARK    9  A    between atoms: C15_35  and  O5_36
ROOT
HETATM    1  C5  UNL     1      17.173   3.994  11.746  1.00  0.00     0.063 C
HETATM    2  C6  UNL     1      17.662   2.662  11.423  1.00  0.00     0.195 C
HETATM    3  N7  UNL     1      19.123   2.588  11.650  1.00  0.00    -0.068 N
ATOM      4  H71 UNL     1      19.501   1.640  11.668  1.00  0.00     0.277 HD
ATOM      5  H72 UNL     1      19.418   2.837  12.594  1.00  0.00     0.277 HD
HETATM    6  C9  UNL     1      19.679   3.447  10.589  1.00  0.00     0.261 C
HETATM    7  C10 UNL     1      19.491   4.848  11.110  1.00  0.00     0.148 C
HETATM    8  C15 UNL     1      18.210   5.088  11.802  1.00  0.00     0.150 C
ENDROOT
BRANCH   1   9
HETATM    9  C4  UNL     1      16.314   4.161  12.979  1.00  0.00     0.146 C
BRANCH   9  10
HETATM   10  N6  UNL     1      17.043   4.133  14.226  1.00  0.00    -0.113 NA
BRANCH  10  11
HETATM   11  N5  UNL     1      16.117   3.939  15.250  1.00  0.00    -0.146 N
HETATM   12  C1  UNL     1      15.245   4.953  15.639  1.00  0.00     0.225 A
HETATM   13  N1  UNL     1      15.210   6.261  15.052  1.00  0.00    -0.061 NA
HETATM   14  N2  UNL     1      14.397   4.761  16.585  1.00  0.00    -0.353 N
HETATM   15  C2  UNL     1      14.214   3.563  17.340  1.00  0.00     0.229 A
ATOM     16  H2  UNL     1      13.791   5.546  16.821  1.00  0.00     0.162 HD
HETATM   17  C3  UNL     1      15.142   2.485  16.931  1.00  0.00     0.276 A
HETATM   18  O1  UNL     1      15.106   1.364  17.511  1.00  0.00    -0.268 OA
HETATM   19  N3  UNL     1      16.082   2.693  15.886  1.00  0.00    -0.145 N
BRANCH  19  20
HETATM   20  N4  UNL     1      16.960   1.676  15.500  1.00  0.00    -0.320 N
ATOM     21  H42 UNL     1      16.904   0.754  15.930  1.00  0.00     0.179 HD
ATOM     22  H41 UNL     1      17.666   1.840  14.781  1.00  0.00     0.179 HD
ENDBRANCH  19  20
ENDBRANCH  10  11
ENDBRANCH   9  10
ENDBRANCH   1   9
BRANCH   2  23
HETATM   23  C7  UNL     1      17.027   1.462  12.019  1.00  0.00     0.059 C
BRANCH  23  24
HETATM   24  C8  UNL     1      17.385   0.188  11.234  1.00  0.00     0.166 C
BRANCH  24  25
HETATM   25  O2  UNL     1      18.515  -0.418  11.715  1.00  0.00    -0.401 OA
ATOM     26  H2  UNL     1      18.321  -1.222  12.181  1.00  0.00     0.209 HD
ENDBRANCH  24  25
ENDBRANCH  23  24
ENDBRANCH   2  23
BRANCH   8  27
HETATM   27  O5  UNL     1      18.409   5.451  13.159  1.00  0.00    -0.393 OA
ATOM     28  H5  UNL     1      19.322   5.306  13.378  1.00  0.00     0.210 HD
ENDBRANCH   8  27
BRANCH   7  29
HETATM   29  N8  UNL     1      19.867   5.878  10.144  1.00  0.00    -0.301 N
HETATM   30  C11 UNL     1      19.604   5.748   8.820  1.00  0.00     0.102 A
HETATM   31  C12 UNL     1      19.946   6.700   7.890  1.00  0.00     0.092 A
HETATM   32  C13 UNL     1      20.585   7.834   8.337  1.00  0.00     0.250 A
HETATM   33  O3  UNL     1      20.940   8.771   7.543  1.00  0.00    -0.268 OA
HETATM   34  N9  UNL     1      20.824   7.920   9.649  1.00  0.00    -0.275 N
HETATM   35  C14 UNL     1      20.492   6.997  10.552  1.00  0.00     0.329 A
ATOM     36  H9  UNL     1      21.296   8.758   9.986  1.00  0.00     0.173 HD
HETATM   37  O4  UNL     1      20.751   7.146  11.788  1.00  0.00    -0.246 OA
ENDBRANCH   7  29
TORSDOF 9
ENDMDL