MODEL 3
REMARK VINA RESULT: -7.484635698      2.096      2.674
REMARK  9 active torsions:
REMARK  status: ('A' for Active; 'I' for Inactive)
REMARK    1  A    between atoms: C2_5  and  C3_6
REMARK    2  A    between atoms: C3_6  and  C4_7
REMARK    3  A    between atoms: C3_6  and  N4_12
REMARK    4  A    between atoms: C4_7  and  N3_8
REMARK    5  A    between atoms: N4_12  and  N5_14
REMARK    6  A    between atoms: N5_14  and  C5_16
REMARK    7  A    between atoms: C12_35  and  N10_36
REMARK    8  A    between atoms: N11_39  and  C13_40
REMARK    9  A    between atoms: C13_40  and  O5_41
ROOT
HETATM    1  C3  UNL     1      18.032   2.298  11.669  1.00  0.00     0.180 C
ENDROOT
BRANCH   1   2
HETATM    2  C2  UNL     1      18.504   3.670  11.377  1.00  0.00     0.104 A
HETATM    3  N2  UNL     1      19.833   3.969  11.298  1.00  0.00    -0.295 N
HETATM    4  N1  UNL     1      20.282   5.177  11.030  1.00  0.00    -0.278 N
ATOM      5  H2  UNL     1      20.510   3.223  11.454  1.00  0.00     0.187 HD
HETATM    6  C1  UNL     1      21.707   5.425  10.961  1.00  0.00     0.179 C
HETATM    7  C11 UNL     1      19.457   6.214  10.811  1.00  0.00     0.169 A
HETATM    8  C10 UNL     1      18.093   6.004  10.871  1.00  0.00     0.152 A
HETATM    9  N9  UNL     1      19.697   7.524  10.524  1.00  0.00    -0.173 N
HETATM   10  C9  UNL     1      17.653   4.729  11.155  1.00  0.00     0.229 A
HETATM   11  N11 UNL     1      17.530   7.193  10.618  1.00  0.00    -0.154 N
HETATM   12  O4  UNL     1      16.394   4.586  11.201  1.00  0.00    -0.284 OA
HETATM   13  C12 UNL     1      18.506   8.130  10.403  1.00  0.00     0.682 A
ATOM     14  H9  UNL     1      20.612   7.962  10.419  1.00  0.00     0.186 HD
BRANCH  11  15
HETATM   15  C13 UNL     1      16.108   7.455  10.571  1.00  0.00     0.314 C
BRANCH  15  16
HETATM   16  O5  UNL     1      15.561   6.834   9.437  1.00  0.00    -0.381 OA
ATOM     17  H5  UNL     1      15.708   7.385   8.677  1.00  0.00     0.211 HD
ENDBRANCH  15  16
ENDBRANCH  11  15
BRANCH  13  18
HETATM   18  N10 UNL     1      18.252   9.374  10.134  1.00  0.00    -0.234 N
ATOM     19 2H10 UNL     1      18.890  10.137  10.358  1.00  0.00     0.174 HD
ATOM     20 1H10 UNL     1      17.429   9.775   9.684  1.00  0.00     0.174 HD
ENDBRANCH  13  18
ENDBRANCH   1   2
BRANCH   1  21
HETATM   21  C4  UNL     1      17.646   1.669  10.309  1.00  0.00     0.262 C
BRANCH  21  22
HETATM   22  N3  UNL     1      16.222   1.594  10.151  1.00  0.00    -0.077 N
ATOM     23  H33 UNL     1      15.884   0.638  10.256  1.00  0.00     0.274 HD
ATOM     24  H32 UNL     1      15.736   2.020  10.941  1.00  0.00     0.274 HD
ATOM     25  H31 UNL     1      15.924   2.001   9.265  1.00  0.00     0.274 HD
ENDBRANCH  21  22
ENDBRANCH   1  21
BRANCH   1  26
HETATM   26  N4  UNL     1      16.898   2.209  12.530  1.00  0.00    -0.310 N
ATOM     27  H4  UNL     1      15.990   2.439  12.126  1.00  0.00     0.181 HD
BRANCH  26  28
HETATM   28  N5  UNL     1      16.920   1.840  13.866  1.00  0.00    -0.135 N
ATOM     29  H5  UNL     1      17.208   0.891  14.104  1.00  0.00     0.205 HD
BRANCH  28  30
HETATM   30  C5  UNL     1      16.592   2.642  14.822  1.00  0.00     0.703 C
HETATM   31  N6  UNL     1      16.339   2.137  16.036  1.00  0.00    -0.140 N
HETATM   32  C6  UNL     1      15.729   2.781  17.066  1.00  0.00     0.341 C
ATOM     33  H6  UNL     1      16.633   1.174  16.204  1.00  0.00     0.189 HD
HETATM   34  O1  UNL     1      15.705   2.150  18.146  1.00  0.00    -0.246 OA
HETATM   35  N7  UNL     1      15.148   3.990  17.098  1.00  0.00    -0.270 N
HETATM   36  C7  UNL     1      15.099   4.910  16.131  1.00  0.00     0.318 C
ATOM     37  H7  UNL     1      14.686   4.238  17.973  1.00  0.00     0.174 HD
HETATM   38  O2  UNL     1      14.323   5.890  16.292  1.00  0.00    -0.262 OA
HETATM   39  C8  UNL     1      15.805   4.945  14.924  1.00  0.00     0.328 C
HETATM   40  O3  UNL     1      15.750   5.996  14.238  1.00  0.00    -0.261 OA
HETATM   41  N8  UNL     1      16.551   3.941  14.420  1.00  0.00    -0.150 N
ATOM     42  H8  UNL     1      17.161   4.187  13.640  1.00  0.00     0.188 HD
ENDBRANCH  28  30
ENDBRANCH  26  28
ENDBRANCH   1  26
TORSDOF 9
ENDMDL