MODEL 3
REMARK VINA RESULT: -7.465523473      1.681      2.776
REMARK  10 active torsions:
REMARK  status: ('A' for Active; 'I' for Inactive)
REMARK    1  A    between atoms: N3_9  and  C4_10
REMARK    2  A    between atoms: C5_11  and  O3_12
REMARK    3  A    between atoms: C7_15  and  C8_16
REMARK    4  A    between atoms: C7_15  and  C9_19
REMARK    5  A    between atoms: C8_16  and  O4_17
REMARK    6  A    between atoms: C9_19  and  N4_20
REMARK    7  A    between atoms: C11_22  and  N5_23
REMARK    8  A    between atoms: C12_28  and  N7_29
REMARK    9  A    between atoms: N8_32  and  N9_33
REMARK   10  A    between atoms: C13_36  and  O5_37
ROOT
HETATM    1  C4  UNL     1      16.244   4.665  13.001  1.00  0.00     0.158 C
HETATM    2  C5  UNL     1      16.394   3.754  11.831  1.00  0.00     0.145 C
HETATM    3  C6  UNL     1      17.494   4.314  10.932  1.00  0.00     0.053 C
HETATM    4  C7  UNL     1      17.502   5.792  11.344  1.00  0.00     0.045 C
HETATM    5  C13 UNL     1      17.442   5.555  12.880  1.00  0.00     0.160 C
ENDROOT
BRANCH   4   6
HETATM    6  C8  UNL     1      16.339   6.567  10.905  1.00  0.00     0.181 C
BRANCH   6   7
HETATM    7  O4  UNL     1      16.095   6.316   9.547  1.00  0.00    -0.400 OA
ATOM      8  H4  UNL     1      16.778   6.717   9.023  1.00  0.00     0.209 HD
ENDBRANCH   6   7
ENDBRANCH   4   6
BRANCH   4   9
HETATM    9  C9  UNL     1      18.859   6.281  10.952  1.00  0.00     0.106 C
BRANCH   9  10
HETATM   10  N4  UNL     1      19.157   7.649  11.045  1.00  0.00    -0.242 N
HETATM   11  C10 UNL     1      19.550   8.206  12.195  1.00  0.00     0.166 A
HETATM   12  C11 UNL     1      19.892   9.543  12.314  1.00  0.00     0.132 A
HETATM   13  N6  UNL     1      19.822  10.310  11.218  1.00  0.00    -0.173 N
HETATM   14  C12 UNL     1      19.424   9.736  10.062  1.00  0.00     0.714 A
ATOM     15  H6  UNL     1      20.063  11.300  11.255  1.00  0.00     0.186 HD
HETATM   16  N8  UNL     1      19.098   8.436   9.966  1.00  0.00    -0.021 N
BRANCH  12  17
HETATM   17  N5  UNL     1      20.272  10.093  13.417  1.00  0.00    -0.384 N
ATOM     18  H52 UNL     1      21.269  10.258  13.551  1.00  0.00     0.157 HD
ATOM     19  H51 UNL     1      19.635  10.375  14.162  1.00  0.00     0.157 HD
ENDBRANCH  12  17
BRANCH  14  20
HETATM   20  N7  UNL     1      19.343  10.446   8.969  1.00  0.00    -0.231 N
ATOM     21  H72 UNL     1      18.416  10.779   8.704  1.00  0.00     0.174 HD
ATOM     22  H71 UNL     1      20.180  10.644   8.423  1.00  0.00     0.174 HD
ENDBRANCH  14  20
BRANCH  16  23
HETATM   23  N9  UNL     1      18.735   7.932   8.684  1.00  0.00    -0.309 N
ATOM     24  H92 UNL     1      17.908   8.322   8.234  1.00  0.00     0.179 HD
ATOM     25  H91 UNL     1      19.292   7.225   8.205  1.00  0.00     0.179 HD
ENDBRANCH  16  23
ENDBRANCH   9  10
ENDBRANCH   4   9
BRANCH   5  26
HETATM   26  O5  UNL     1      18.623   4.846  13.134  1.00  0.00    -0.392 OA
ATOM     27  H5  UNL     1      18.517   3.923  12.934  1.00  0.00     0.210 HD
ENDBRANCH   5  26
BRANCH   2  28
HETATM   28  O3  UNL     1      15.270   3.687  11.018  1.00  0.00    -0.393 OA
ATOM     29  H3  UNL     1      14.859   2.830  10.996  1.00  0.00     0.210 HD
ENDBRANCH   2  28
BRANCH   1  30
HETATM   30  N3  UNL     1      16.109   3.981  14.284  1.00  0.00    -0.241 N
HETATM   31  C3  UNL     1      16.640   2.763  14.438  1.00  0.00     0.335 A
HETATM   32  N2  UNL     1      16.531   2.095  15.615  1.00  0.00    -0.260 N
HETATM   33  O2  UNL     1      17.269   2.118  13.555  1.00  0.00    -0.246 OA
HETATM   34  C2  UNL     1      15.885   2.663  16.630  1.00  0.00     0.334 A
ATOM     35  H2  UNL     1      16.941   1.167  15.720  1.00  0.00     0.175 HD
HETATM   36  N1  UNL     1      15.349   3.880  16.489  1.00  0.00    -0.255 N
HETATM   37  O1  UNL     1      15.792   2.027  17.729  1.00  0.00    -0.246 OA
HETATM   38  C1  UNL     1      14.652   4.473  17.611  1.00  0.00     0.166 C
HETATM   39  C14 UNL     1      15.457   4.545  15.317  1.00  0.00     0.336 A
HETATM   40  O6  UNL     1      14.915   5.701  15.253  1.00  0.00    -0.246 OA
ENDBRANCH   1  30
TORSDOF 10
ENDMDL