MODEL 1
REMARK VINA RESULT: -8.449326963      0.000      0.000
REMARK  9 active torsions:
REMARK  status: ('A' for Active; 'I' for Inactive)
REMARK    1  A    between atoms: N1_1  and  C1_4
REMARK    2  A    between atoms: C2_7  and  O1_8
REMARK    3  A    between atoms: O1_8  and  C3_9
REMARK    4  A    between atoms: N3_11  and  N4_13
REMARK    5  A    between atoms: N4_13  and  C5_15
REMARK    6  A    between atoms: C8_25  and  C9_26
REMARK    7  A    between atoms: C9_26  and  O3_27
REMARK       I    between atoms: N9_30  and  C10_31
REMARK    8  A    between atoms: C10_31  and  C11_33
REMARK    9  A    between atoms: C11_33  and  O5_34
ROOT
HETATM    1  C3  UNL     1      16.737   3.967  14.106  1.00  0.00     0.303 C
HETATM    2  C4  UNL     1      16.274   5.336  13.650  1.00  0.00     0.077 C
HETATM    3  N3  UNL     1      16.859   5.971  12.718  1.00  0.00    -0.301 N
ATOM      4  H3  UNL     1      17.661   5.511  12.288  1.00  0.00     0.186 HD
HETATM    5  C8  UNL     1      15.119   5.622  14.508  1.00  0.00     0.174 C
HETATM    6  N8  UNL     1      15.529   5.030  15.752  1.00  0.00    -0.120 NA
HETATM    7  N9  UNL     1      15.970   3.777  15.324  1.00  0.00    -0.227 N
HETATM    8  C10 UNL     1      15.693   2.569  15.992  1.00  0.00     0.261 C
HETATM    9  O4  UNL     1      16.133   1.491  15.529  1.00  0.00    -0.269 OA
ENDROOT
BRANCH   1  10
HETATM   10  O1  UNL     1      16.347   3.096  13.094  1.00  0.00    -0.288 OA
BRANCH  10  11
HETATM   11  C2  UNL     1      17.159   2.344  12.260  1.00  0.00     0.244 A
HETATM   12  N2  UNL     1      17.191   1.006  12.285  1.00  0.00    -0.155 N
HETATM   13  C1  UNL     1      18.010   0.350  11.440  1.00  0.00     0.683 A
ATOM     14  H2  UNL     1      16.602   0.489  12.938  1.00  0.00     0.188 HD
HETATM   15  N11 UNL     1      18.811   0.972  10.556  1.00  0.00    -0.141 N
HETATM   16  C12 UNL     1      18.749   2.324  10.563  1.00  0.00     0.341 A
ATOM     17  H11 UNL     1      19.424   0.458   9.923  1.00  0.00     0.189 HD
HETATM   18  N10 UNL     1      17.948   2.992  11.388  1.00  0.00    -0.273 N
HETATM   19  O6  UNL     1      19.490   2.960   9.741  1.00  0.00    -0.246 OA
ATOM     20  H10 UNL     1      17.933   4.012  11.358  1.00  0.00     0.174 HD
BRANCH  13  21
HETATM   21  N1  UNL     1      18.034  -0.955  11.474  1.00  0.00    -0.234 N
ATOM     22  H12 UNL     1      17.228  -1.437  11.870  1.00  0.00     0.174 HD
ATOM     23  H11 UNL     1      18.851  -1.441  11.106  1.00  0.00     0.174 HD
ENDBRANCH  13  21
ENDBRANCH  10  11
ENDBRANCH   1  10
BRANCH   3  24
HETATM   24  N4  UNL     1      16.527   7.212  12.225  1.00  0.00    -0.284 N
ATOM     25  H4  UNL     1      16.563   8.021  12.846  1.00  0.00     0.188 HD
BRANCH  24  26
HETATM   26  C5  UNL     1      16.171   7.376  10.995  1.00  0.00     0.141 A
HETATM   27  C6  UNL     1      16.702   6.644   9.957  1.00  0.00     0.157 A
HETATM   28  N5  UNL     1      16.309   6.838   8.689  1.00  0.00    -0.304 N
HETATM   29  N6  UNL     1      15.390   7.745   8.364  1.00  0.00    -0.252 N
ATOM     30  H5  UNL     1      16.728   6.273   7.950  1.00  0.00     0.186 HD
HETATM   31  C7  UNL     1      14.864   8.466   9.369  1.00  0.00     0.340 A
ATOM     32  H6  UNL     1      15.099   7.887   7.396  1.00  0.00     0.191 HD
HETATM   33  O2  UNL     1      13.988   9.344   9.142  1.00  0.00    -0.245 OA
HETATM   34  N7  UNL     1      15.238   8.293  10.649  1.00  0.00    -0.291 N
ATOM     35  H7  UNL     1      14.808   8.865  11.375  1.00  0.00     0.172 HD
ENDBRANCH  24  26
ENDBRANCH   3  24
BRANCH   5  36
HETATM   36  C9  UNL     1      14.733   7.051  14.597  1.00  0.00     0.193 C
BRANCH  36  37
HETATM   37  O3  UNL     1      14.040   7.552  13.537  1.00  0.00    -0.399 OA
ATOM     38  H3  UNL     1      13.539   8.342  13.701  1.00  0.00     0.209 HD
ENDBRANCH  36  37
ENDBRANCH   5  36
BRANCH   8  39
HETATM   39  C11 UNL     1      14.894   2.506  17.233  1.00  0.00     0.268 C
BRANCH  39  40
HETATM   40  O5  UNL     1      13.558   2.636  16.953  1.00  0.00    -0.392 OA
ATOM     41  H5  UNL     1      13.050   1.997  17.440  1.00  0.00     0.210 HD
ENDBRANCH  39  40
ENDBRANCH   8  39
TORSDOF 9
ENDMDL