MODEL 2
REMARK VINA RESULT: -7.293266562      1.783      2.591
REMARK  12 active torsions:
REMARK  status: ('A' for Active; 'I' for Inactive)
REMARK    1  A    between atoms: O1_2  and  C2_3
REMARK    2  A    between atoms: C2_3  and  O3_5
REMARK    3  A    between atoms: O3_5  and  C3_6
REMARK    4  A    between atoms: N1_8  and  C5_9
REMARK    5  A    between atoms: C8_15  and  N3_16
REMARK    6  A    between atoms: C9_21  and  O5_22
REMARK    7  A    between atoms: C9_21  and  C10_24
REMARK       I    between atoms: C10_24  and  N5_26
REMARK    8  A    between atoms: N5_26  and  C11_28
REMARK    9  A    between atoms: C11_28  and  C12_29
REMARK       I    between atoms: C12_29  and  N6_31
REMARK   10  A    between atoms: N6_31  and  N7_33
REMARK   11  A    between atoms: N7_33  and  N8_34
REMARK   12  A    between atoms: C13_37  and  O8_38
ROOT
HETATM    1  C3  UNL     1      18.377   4.888  12.109  1.00  0.00     0.186 C
HETATM    2  C4  UNL     1      17.396   5.339  11.055  1.00  0.00     0.163 C
HETATM    3  N1  UNL     1      16.840   6.590  11.526  1.00  0.00    -0.322 N
HETATM    4  C9  UNL     1      17.095   6.684  12.938  1.00  0.00     0.247 C
HETATM    5  C13 UNL     1      18.465   6.060  13.039  1.00  0.00     0.215 C
ENDROOT
BRANCH   4   6
HETATM    6  O5  UNL     1      17.136   8.023  13.368  1.00  0.00    -0.361 OA
ATOM      7  H5  UNL     1      16.512   8.185  14.065  1.00  0.00     0.213 HD
ENDBRANCH   4   6
BRANCH   4   8
HETATM    8  C10 UNL     1      16.064   5.933  13.702  1.00  0.00     0.277 C
HETATM    9  O6  UNL     1      15.356   5.047  13.179  1.00  0.00    -0.268 OA
HETATM   10  N5  UNL     1      15.869   6.225  15.069  1.00  0.00    -0.348 N
ATOM     11  H5  UNL     1      16.439   6.942  15.518  1.00  0.00     0.163 HD
BRANCH  10  12
HETATM   12  C11 UNL     1      14.856   5.507  15.851  1.00  0.00     0.226 C
BRANCH  12  13
HETATM   13  C12 UNL     1      15.387   4.185  16.271  1.00  0.00     0.252 C
HETATM   14  O7  UNL     1      14.673   3.294  16.793  1.00  0.00    -0.270 OA
HETATM   15  N6  UNL     1      16.753   3.895  16.081  1.00  0.00    -0.253 N
ATOM     16  H6  UNL     1      17.343   4.609  15.655  1.00  0.00     0.187 HD
BRANCH  15  17
HETATM   17  N7  UNL     1      17.343   2.682  16.445  1.00  0.00    -0.027 NA
BRANCH  17  18
HETATM   18  N8  UNL     1      17.017   1.643  15.575  1.00  0.00    -0.329 N
ATOM     19  H82 UNL     1      16.225   1.687  14.935  1.00  0.00     0.174 HD
ATOM     20  H81 UNL     1      17.653   0.848  15.655  1.00  0.00     0.174 HD
ENDBRANCH  17  18
ENDBRANCH  15  17
ENDBRANCH  12  13
ENDBRANCH  10  12
ENDBRANCH   4   8
BRANCH   3  21
HETATM   21  C5  UNL     1      16.177   7.514  10.715  1.00  0.00     0.127 A
HETATM   22  C6  UNL     1      16.100   7.469   9.346  1.00  0.00     0.123 A
HETATM   23  C7  UNL     1      15.411   8.434   8.659  1.00  0.00     0.263 A
HETATM   24  O4  UNL     1      15.322   8.420   7.408  1.00  0.00    -0.268 OA
HETATM   25  N2  UNL     1      14.820   9.414   9.358  1.00  0.00    -0.156 N
HETATM   26  C8  UNL     1      14.872   9.495  10.689  1.00  0.00     0.680 A
ATOM     27  H2  UNL     1      14.306  10.133   8.847  1.00  0.00     0.187 HD
HETATM   28  N4  UNL     1      15.548   8.545  11.342  1.00  0.00    -0.177 N
ATOM     29  H4  UNL     1      15.595   8.596  12.359  1.00  0.00     0.185 HD
BRANCH  26  30
HETATM   30  N3  UNL     1      14.281  10.469  11.326  1.00  0.00    -0.234 N
ATOM     31  H32 UNL     1      14.216  11.405  10.925  1.00  0.00     0.174 HD
ATOM     32  H31 UNL     1      13.868  10.319  12.247  1.00  0.00     0.174 HD
ENDBRANCH  26  30
ENDBRANCH   3  21
BRANCH   5  33
HETATM   33  O8  UNL     1      18.783   5.692  14.340  1.00  0.00    -0.387 OA
ATOM     34  H8  UNL     1      19.543   6.152  14.678  1.00  0.00     0.210 HD
ENDBRANCH   5  33
BRANCH   1  35
HETATM   35  O3  UNL     1      19.649   4.603  11.534  1.00  0.00    -0.288 OA
BRANCH  35  36
HETATM   36  C2  UNL     1      19.831   3.703  10.527  1.00  0.00     0.406 C
HETATM   37  O2  UNL     1      19.750   2.451  10.753  1.00  0.00    -0.229 OA
BRANCH  36  38
HETATM   38  O1  UNL     1      20.110   4.090   9.231  1.00  0.00    -0.303 OA
HETATM   39  C1  UNL     1      20.472   5.363   8.802  1.00  0.00     0.215 C
ENDBRANCH  36  38
ENDBRANCH  35  36
ENDBRANCH   1  35
TORSDOF 12
ENDMDL