MODEL 2
REMARK VINA RESULT: -6.894966870      3.483      7.219
REMARK  9 active torsions:
REMARK  status: ('A' for Active; 'I' for Inactive)
REMARK    1  A    between atoms: C7_12  and  C8_13
REMARK       I    between atoms: C8_13  and  N3_15
REMARK    2  A    between atoms: N3_15  and  C9_17
REMARK    3  A    between atoms: C10_20  and  O4_21
REMARK    4  A    between atoms: N5_25  and  N6_26
REMARK    5  A    between atoms: C12_29  and  C13_30
REMARK    6  A    between atoms: C13_30  and  O6_31
REMARK    7  A    between atoms: C13_30  and  C14_33
REMARK    8  A    between atoms: C14_33  and  O7_34
REMARK    9  A    between atoms: N7_36  and  O8_37
ROOT
HETATM    1  C9  UNL     1      16.797   6.072  12.794  1.00  0.00     0.209 C
HETATM    2  N4  UNL     1      17.579   6.287  13.963  1.00  0.00    -0.367 N
ATOM      3  H4  UNL     1      17.153   6.306  14.890  1.00  0.00     0.158 HD
HETATM    4  C10 UNL     1      18.969   6.473  13.788  1.00  0.00     0.311 C
HETATM    5  C11 UNL     1      19.496   6.047  12.472  1.00  0.00     0.286 C
HETATM    6  O5  UNL     1      20.683   6.329  12.177  1.00  0.00    -0.267 OA
HETATM    7  N5  UNL     1      18.713   5.334  11.536  1.00  0.00    -0.253 N
HETATM    8  C12 UNL     1      17.336   5.026  11.864  1.00  0.00     0.183 C
ENDROOT
BRANCH   1   9
HETATM    9  N3  UNL     1      16.688   7.305  12.037  1.00  0.00    -0.336 N
HETATM   10  C8  UNL     1      15.599   8.200  12.231  1.00  0.00     0.245 C
HETATM   11  O3  UNL     1      14.723   7.890  13.084  1.00  0.00    -0.271 OA
ATOM     12  H3  UNL     1      17.407   7.535  11.351  1.00  0.00     0.164 HD
BRANCH  10  13
HETATM   13  C7  UNL     1      15.459   9.454  11.483  1.00  0.00     0.212 C
HETATM   14  C6  UNL     1      14.097   9.605  10.846  1.00  0.00     0.086 C
HETATM   15  C3  UNL     1      14.379   9.512   9.377  1.00  0.00     0.059 A
HETATM   16  C2  UNL     1      15.732   9.514   9.187  1.00  0.00     0.146 A
HETATM   17  C4  UNL     1      13.504   9.433   8.313  1.00  0.00     0.259 A
HETATM   18  N1  UNL     1      16.168   9.434   7.900  1.00  0.00    -0.287 N
HETATM   19  N7  UNL     1      16.413   9.603  10.423  1.00  0.00    -0.229 N
HETATM   20  C1  UNL     1      17.578   9.434   7.654  1.00  0.00     0.163 C
HETATM   21  C5  UNL     1      15.297   9.358   6.875  1.00  0.00     0.330 A
HETATM   22  N2  UNL     1      13.970   9.356   7.059  1.00  0.00    -0.275 N
HETATM   23  O2  UNL     1      15.726   9.285   5.692  1.00  0.00    -0.246 OA
ATOM     24  H2  UNL     1      13.331   9.298   6.266  1.00  0.00     0.173 HD
HETATM   25  O1  UNL     1      12.274   9.435   8.539  1.00  0.00    -0.267 OA
BRANCH  19  26
HETATM   26  O8  UNL     1      17.731   9.795  10.570  1.00  0.00    -0.285 OA
ATOM     27  H8  UNL     1      18.367   9.119  10.773  1.00  0.00     0.245 HD
ENDBRANCH  19  26
ENDBRANCH  10  13
ENDBRANCH   1   9
BRANCH   8  28
HETATM   28  C13 UNL     1      17.265   3.640  12.373  1.00  0.00     0.170 C
BRANCH  28  29
HETATM   29  O6  UNL     1      16.725   3.641  13.673  1.00  0.00    -0.391 OA
ATOM     30  H6  UNL     1      16.941   2.825  14.108  1.00  0.00     0.210 HD
ENDBRANCH  28  29
BRANCH  28  31
HETATM   31  C14 UNL     1      16.411   2.717  11.539  1.00  0.00     0.198 C
BRANCH  31  32
HETATM   32  O7  UNL     1      15.322   3.429  11.038  1.00  0.00    -0.398 OA
ATOM     33  H7  UNL     1      15.516   3.711  10.151  1.00  0.00     0.209 HD
ENDBRANCH  31  32
ENDBRANCH  28  31
ENDBRANCH   8  28
BRANCH   4  34
HETATM   34  O4  UNL     1      19.293   7.827  13.933  1.00  0.00    -0.368 OA
ATOM     35  H4  UNL     1      19.526   8.011  14.836  1.00  0.00     0.212 HD
ENDBRANCH   4  34
BRANCH   7  36
HETATM   36  N6  UNL     1      19.256   4.936  10.315  1.00  0.00    -0.340 N
ATOM     37  H62 UNL     1      20.261   4.797  10.217  1.00  0.00     0.177 HD
ATOM     38  H61 UNL     1      18.655   4.777   9.508  1.00  0.00     0.177 HD
ENDBRANCH   7  36
TORSDOF 9
ENDMDL