MODEL 4
REMARK VINA RESULT: -8.105303677      0.549      1.137
REMARK  3 active torsions:
REMARK  status: ('A' for Active; 'I' for Inactive)
REMARK    1  A    between atoms: N1_4  and  C3_5
REMARK    2  A    between atoms: C4_8  and  N3_9
REMARK    3  A    between atoms: C10_17  and  N5_18
ROOT
HETATM    1  C3  UNL     1      17.684   3.856  12.462  1.00  0.00     0.709 A
HETATM    2  N2  UNL     1      16.858   3.506  13.482  1.00  0.00    -0.021 N
ATOM      3  H2  UNL     1      16.315   2.646  13.400  1.00  0.00     0.203 HD
HETATM    4  C4  UNL     1      16.729   4.248  14.595  1.00  0.00     0.709 A
HETATM    5  N4  UNL     1      17.462   5.375  14.665  1.00  0.00    -0.021 N
ATOM      6  H4  UNL     1      17.390   5.964  15.495  1.00  0.00     0.203 HD
HETATM    7  C10 UNL     1      18.285   5.743  13.671  1.00  0.00     0.709 A
HETATM    8  N6  UNL     1      18.398   4.989  12.573  1.00  0.00    -0.021 N
ATOM      9  H6  UNL     1      19.026   5.273  11.820  1.00  0.00     0.203 HD
ENDROOT
BRANCH   1  10
HETATM   10  N1  UNL     1      17.801   3.057  11.300  1.00  0.00    -0.206 N
HETATM   11  C2  UNL     1      16.827   3.070  10.229  1.00  0.00     0.244 C
HETATM   12  C1  UNL     1      16.702   1.667   9.736  1.00  0.00     0.236 C
HETATM   13  O1  UNL     1      16.051   1.515   8.660  1.00  0.00    -0.272 OA
HETATM   14  N7  UNL     1      17.280   0.585  10.441  1.00  0.00    -0.358 N
HETATM   15  C16 UNL     1      18.402   0.753  11.357  1.00  0.00     0.143 C
ATOM     16  H7  UNL     1      16.896  -0.350  10.304  1.00  0.00     0.162 HD
HETATM   17  C15 UNL     1      18.936   2.175  11.146  1.00  0.00     0.161 C
ENDBRANCH   1  10
BRANCH   4  18
HETATM   18  N3  UNL     1      15.853   3.869  15.668  1.00  0.00    -0.217 N
HETATM   19  C5  UNL     1      16.190   2.733  16.467  1.00  0.00     0.141 C
HETATM   20  C6  UNL     1      15.629   2.715  17.831  1.00  0.00     0.020 C
HETATM   21  C7  UNL     1      14.464   3.622  18.066  1.00  0.00     0.003 C
HETATM   22  C8  UNL     1      14.582   4.948  17.362  1.00  0.00     0.020 C
HETATM   23  C9  UNL     1      14.674   4.665  15.878  1.00  0.00     0.141 C
ENDBRANCH   4  18
BRANCH   7  24
HETATM   24  N5  UNL     1      19.026   6.928  13.799  1.00  0.00    -0.213 N
HETATM   25  C11 UNL     1      20.333   7.043  13.218  1.00  0.00     0.167 C
HETATM   26  C12 UNL     1      20.318   8.158  12.214  1.00  0.00     0.188 C
HETATM   27  O2  UNL     1      19.350   9.114  12.484  1.00  0.00    -0.388 OA
HETATM   28  C13 UNL     1      19.136   9.308  13.833  1.00  0.00     0.188 C
HETATM   29  C14 UNL     1      18.528   8.098  14.516  1.00  0.00     0.167 C
ENDBRANCH   7  24
TORSDOF 3
ENDMDL