MODEL 5
REMARK VINA RESULT: -8.155622135      1.896      3.855
REMARK  4 active torsions:
REMARK  status: ('A' for Active; 'I' for Inactive)
REMARK    1  A    between atoms: C2_5  and  C3_6
REMARK    2  A    between atoms: C2_5  and  N4_15
REMARK    3  A    between atoms: C8_11  and  N3_12
REMARK       I    between atoms: N5_17  and  C10_18
REMARK    4  A    between atoms: C10_18  and  C11_20
ROOT
HETATM    1  N1  UNL     1      16.070   2.956  10.980  1.00  0.00    -0.172 NA
HETATM    2  C1  UNL     1      16.336   4.063  11.243  1.00  0.00     0.183 C
HETATM    3  N2  UNL     1      16.660   5.324  11.498  1.00  0.00    -0.278 N
ATOM      4  H2  UNL     1      16.946   5.824  10.656  1.00  0.00     0.179 HD
HETATM    5  C2  UNL     1      16.703   6.049  12.508  1.00  0.00     0.133 C
ENDROOT
BRANCH   5   6
HETATM    6  C3  UNL     1      17.165   7.449  12.193  1.00  0.00     0.042 A
HETATM    7  C4  UNL     1      16.240   8.399  11.773  1.00  0.00     0.018 A
HETATM    8  C5  UNL     1      16.644   9.681  11.469  1.00  0.00     0.001 A
HETATM    9  C6  UNL     1      17.966  10.040  11.577  1.00  0.00     0.002 A
HETATM   10  C7  UNL     1      18.868   9.096  11.993  1.00  0.00     0.037 A
HETATM   11  C8  UNL     1      18.461   7.770  12.310  1.00  0.00     0.116 A
BRANCH  11  12
HETATM   12  N3  UNL     1      19.460   6.883  12.747  1.00  0.00    -0.115 N
HETATM   13  O1  UNL     1      20.012   7.000  13.840  1.00  0.00    -0.532 OA
HETATM   14  O2  UNL     1      19.889   5.867  11.925  1.00  0.00    -0.532 OA
ENDBRANCH  11  12
ENDBRANCH   5   6
BRANCH   5  15
HETATM   15  N4  UNL     1      16.375   5.765  13.839  1.00  0.00    -0.284 N
HETATM   16  C9  UNL     1      17.197   4.884  14.703  1.00  0.00     0.263 C
HETATM   17  N5  UNL     1      16.260   4.271  15.615  1.00  0.00    -0.317 N
HETATM   18  C10 UNL     1      16.567   3.171  16.474  1.00  0.00     0.322 C
HETATM   19  C12 UNL     1      14.994   4.925  15.526  1.00  0.00     0.231 C
HETATM   20  O3  UNL     1      17.723   2.677  16.476  1.00  0.00    -0.261 OA
HETATM   21  C13 UNL     1      15.302   6.138  14.683  1.00  0.00     0.244 C
HETATM   22  O6  UNL     1      14.758   7.243  14.696  1.00  0.00    -0.271 OA
BRANCH  18  23
HETATM   23  C11 UNL     1      15.590   2.590  17.360  1.00  0.00     0.270 C
HETATM   24  O4  UNL     1      15.677   2.798  18.596  1.00  0.00    -0.640 OA
HETATM   25  O5  UNL     1      14.553   1.808  16.914  1.00  0.00    -0.640 OA
ENDBRANCH  18  23
ENDBRANCH   5  15
TORSDOF 4
ENDMDL