MODEL 2
REMARK VINA RESULT: -8.367805716      2.799      7.481
REMARK  5 active torsions:
REMARK  status: ('A' for Active; 'I' for Inactive)
REMARK    1  A    between atoms: C2_2  and  C3_3
REMARK    2  A    between atoms: C3_3  and  N1_4
REMARK    3  A    between atoms: N2_12  and  C10_14
REMARK    4  A    between atoms: C10_14  and  C11_15
REMARK    5  A    between atoms: C16_20  and  O2_21
ROOT
HETATM    1  C11 UNL     1      16.475   4.882  14.301  1.00  0.00     0.039 A
HETATM    2  C12 UNL     1      16.608   4.244  13.089  1.00  0.00     0.011 A
HETATM    3  C13 UNL     1      16.582   4.664  11.778  1.00  0.00     0.015 A
HETATM    4  C14 UNL     1      16.742   3.730  10.755  1.00  0.00     0.004 A
HETATM    5  C15 UNL     1      16.926   2.393  10.989  1.00  0.00     0.039 A
HETATM    6  C16 UNL     1      16.952   1.966  12.295  1.00  0.00     0.095 A
HETATM    7  C17 UNL     1      16.796   2.878  13.314  1.00  0.00     0.104 A
HETATM    8  N3  UNL     1      16.779   2.689  14.635  1.00  0.00    -0.222 N
HETATM    9  N4  UNL     1      16.875   1.787  15.581  1.00  0.00    -0.217 N
ATOM     10  H4  UNL     1      17.023   0.793  15.412  1.00  0.00     0.206 HD
HETATM   11  N5  UNL     1      16.754   2.331  16.791  1.00  0.00    -0.005 NA
HETATM   12  N6  UNL     1      16.576   3.627  16.577  1.00  0.00    -0.266 N
ATOM     13  H6  UNL     1      16.450   4.335  17.301  1.00  0.00     0.186 HD
HETATM   14  C18 UNL     1      16.589   3.858  15.256  1.00  0.00     0.154 A
ENDROOT
BRANCH   1  15
HETATM   15  C10 UNL     1      16.304   6.139  14.584  1.00  0.00     0.106 C
BRANCH  15  16
HETATM   16  N2  UNL     1      17.222   7.169  14.363  1.00  0.00    -0.351 N
HETATM   17  C9  UNL     1      17.122   8.037  13.387  1.00  0.00     0.110 A
HETATM   18  N1  UNL     1      18.121   9.031  13.270  1.00  0.00    -0.296 N
HETATM   19  C8  UNL     1      15.989   7.985  12.479  1.00  0.00     0.050 A
HETATM   20  C4  UNL     1      17.952   9.985  12.206  1.00  0.00     0.258 A
HETATM   21  O1  UNL     1      18.801  10.915  12.025  1.00  0.00    -0.267 OA
HETATM   22  C5  UNL     1      16.804   9.904  11.313  1.00  0.00     0.023 A
HETATM   23  C6  UNL     1      16.673  10.788  10.351  1.00  0.00     0.029 C
HETATM   24  C7  UNL     1      15.815   8.849  11.496  1.00  0.00     0.020 A
ATOM     25  H2  UNL     1      18.016   7.250  14.997  1.00  0.00     0.166 HD
BRANCH  18  26
HETATM   26  C3  UNL     1      19.272   9.154  14.098  1.00  0.00     0.160 C
BRANCH  26  27
HETATM   27  C2  UNL     1      19.153  10.055  15.255  1.00  0.00    -0.017 C
HETATM   28  C1  UNL     1      20.189  10.804  15.592  1.00  0.00     0.008 C
ENDBRANCH  26  27
ENDBRANCH  18  26
ENDBRANCH  15  16
ENDBRANCH   1  15
BRANCH   6  29
HETATM   29  O2  UNL     1      17.140   0.620  12.511  1.00  0.00    -0.358 OA
ATOM     30  H2  UNL     1      18.005   0.343  12.789  1.00  0.00     0.217 HD
ENDBRANCH   6  29
TORSDOF 5
ENDMDL