MODEL 2
REMARK VINA RESULT: -8.362858920      1.353      1.892
REMARK  6 active torsions:
REMARK  status: ('A' for Active; 'I' for Inactive)
REMARK    1  A    between atoms: O1_1  and  N1_3
REMARK    2  A    between atoms: N2_6  and  C3_7
REMARK    3  A    between atoms: C3_7  and  C4_12
REMARK    4  A    between atoms: N3_8  and  O2_10
REMARK    5  A    between atoms: N5_16  and  C6_17
REMARK    6  A    between atoms: C11_22  and  N6_23
ROOT
HETATM    1  C4  UNL     1      17.658   4.658  12.247  1.00  0.00     0.112 A
HETATM    2  C5  UNL     1      17.506   3.300  12.402  1.00  0.00     0.144 A
HETATM    3  N4  UNL     1      16.786   3.094  13.544  1.00  0.00    -0.288 N
ATOM      4  H4  UNL     1      16.514   2.187  13.923  1.00  0.00     0.188 HD
HETATM    5  N5  UNL     1      16.502   4.283  14.080  1.00  0.00    -0.194 N
HETATM    6  N7  UNL     1      17.023   5.203  13.304  1.00  0.00    -0.274 N
ATOM      7  H7  UNL     1      16.955   6.205  13.479  1.00  0.00     0.189 HD
ENDROOT
BRANCH   1   8
HETATM    8  C3  UNL     1      18.362   5.317  11.162  1.00  0.00     0.153 C
HETATM    9  N3  UNL     1      17.749   5.841  10.138  1.00  0.00    -0.251 N
ATOM     10  H3  UNL     1      18.287   6.296   9.401  1.00  0.00     0.196 HD
BRANCH   8  11
HETATM   11  N2  UNL     1      19.772   5.449  11.123  1.00  0.00    -0.354 N
HETATM   12  C2  UNL     1      20.542   4.595  10.272  1.00  0.00     0.147 C
HETATM   13  C1  UNL     1      21.619   5.331   9.509  1.00  0.00     0.179 C
HETATM   14  N1  UNL     1      22.461   6.028  10.485  1.00  0.00    -0.226 N
HETATM   15  C13 UNL     1      21.787   6.749  11.507  1.00  0.00     0.261 C
HETATM   16  C12 UNL     1      20.409   6.445  11.944  1.00  0.00     0.229 C
HETATM   17  O5  UNL     1      22.399   7.691  12.063  1.00  0.00    -0.269 OA
BRANCH  14  18
HETATM   18  O1  UNL     1      23.794   6.010  10.449  1.00  0.00    -0.285 OA
ATOM     19  H1  UNL     1      24.336   6.659  10.881  1.00  0.00     0.245 HD
ENDBRANCH  14  18
ENDBRANCH   8  11
BRANCH   9  20
HETATM   20  O2  UNL     1      16.402   5.783  10.052  1.00  0.00    -0.288 OA
ATOM     21  H2  UNL     1      15.864   6.234  10.691  1.00  0.00     0.244 HD
ENDBRANCH   9  20
ENDBRANCH   1   8
BRANCH   5  22
HETATM   22  C6  UNL     1      15.763   4.391  15.289  1.00  0.00     0.107 A
HETATM   23  C7  UNL     1      14.872   5.446  15.481  1.00  0.00     0.036 A
HETATM   24  C8  UNL     1      14.139   5.581  16.638  1.00  0.00     0.003 A
HETATM   25  C9  UNL     1      14.280   4.651  17.641  1.00  0.00     0.003 A
HETATM   26  C10 UNL     1      15.146   3.594  17.494  1.00  0.00     0.038 A
HETATM   27  C11 UNL     1      15.886   3.473  16.308  1.00  0.00     0.133 A
BRANCH  27  28
HETATM   28  N6  UNL     1      16.779   2.383  16.150  1.00  0.00    -0.113 N
HETATM   29  O3  UNL     1      17.970   2.517  16.447  1.00  0.00    -0.532 OA
HETATM   30  O4  UNL     1      16.333   1.184  15.676  1.00  0.00    -0.532 OA
ENDBRANCH  27  28
ENDBRANCH   5  22
TORSDOF 6
ENDMDL