MODEL 4
REMARK VINA RESULT: -7.345445295      2.217      6.159
REMARK  3 active torsions:
REMARK  status: ('A' for Active; 'I' for Inactive)
REMARK    1  A    between atoms: C3_4  and  C4_5
REMARK    2  A    between atoms: C7_8  and  N2_9
REMARK    3  A    between atoms: N3_14  and  N4_15
ROOT
HETATM    1  N1  UNL     1      20.143   3.456  10.081  1.00  0.00    -0.191 NA
HETATM    2  C1  UNL     1      19.296   3.321  10.871  1.00  0.00     0.107 C
HETATM    3  C2  UNL     1      18.257   3.129  11.847  1.00  0.00     0.142 C
HETATM    4  C3  UNL     1      17.798   4.294  12.467  1.00  0.00     0.096 C
HETATM    5  N3  UNL     1      17.036   4.447  13.563  1.00  0.00    -0.216 N
HETATM    6  C13 UNL     1      16.692   3.432  14.374  1.00  0.00     0.335 C
HETATM    7  O3  UNL     1      16.234   3.801  15.483  1.00  0.00    -0.260 OA
HETATM    8  C14 UNL     1      16.741   2.065  14.227  1.00  0.00     0.318 C
HETATM    9  O4  UNL     1      16.435   1.341  15.204  1.00  0.00    -0.262 OA
HETATM   10  N5  UNL     1      17.091   1.384  13.125  1.00  0.00    -0.284 N
ATOM     11  H5  UNL     1      16.775   0.415  13.070  1.00  0.00     0.172 HD
HETATM   12  C15 UNL     1      17.813   1.841  12.085  1.00  0.00     0.271 C
HETATM   13  O5  UNL     1      18.143   1.002  11.197  1.00  0.00    -0.266 OA
ENDROOT
BRANCH   4  14
HETATM   14  C4  UNL     1      18.228   5.495  11.801  1.00  0.00    -0.005 A
HETATM   15  C5  UNL     1      17.518   5.975  10.732  1.00  0.00     0.016 A
HETATM   16  C6  UNL     1      17.944   7.124  10.109  1.00  0.00     0.037 A
HETATM   17  C7  UNL     1      19.067   7.782  10.557  1.00  0.00     0.102 A
HETATM   18  C8  UNL     1      19.798   7.322  11.630  1.00  0.00     0.037 A
HETATM   19  C9  UNL     1      19.343   6.158  12.237  1.00  0.00     0.016 A
BRANCH  17  20
HETATM   20  N2  UNL     1      19.465   8.980   9.868  1.00  0.00    -0.116 N
HETATM   21  O1  UNL     1      20.642   9.387   9.918  1.00  0.00    -0.532 OA
HETATM   22  O2  UNL     1      18.494   9.653   9.152  1.00  0.00    -0.532 OA
ENDBRANCH  17  20
ENDBRANCH   4  14
BRANCH   5  23
HETATM   23  N4  UNL     1      16.570   5.723  13.878  1.00  0.00    -0.318 N
HETATM   24  C10 UNL     1      15.308   6.422  13.568  1.00  0.00     0.145 C
HETATM   25  C11 UNL     1      15.474   7.088  14.932  1.00  0.00     0.043 C
HETATM   26  C12 UNL     1      16.961   6.938  14.566  1.00  0.00     0.145 C
ENDBRANCH   5  23
TORSDOF 3
ENDMDL