MODEL 1
REMARK VINA RESULT: -7.782399992      0.000      0.000
REMARK  4 active torsions:
REMARK  status: ('A' for Active; 'I' for Inactive)
REMARK    1  A    between atoms: N1_4  and  C4_5
REMARK    2  A    between atoms: C5_8  and  N3_9
REMARK    3  A    between atoms: N3_9  and  N4_11
REMARK    4  A    between atoms: C10_19  and  N6_20
ROOT
HETATM    1  C4  UNL     1      18.858   5.212  12.744  1.00  0.00     0.709 A
HETATM    2  N2  UNL     1      18.198   5.574  13.857  1.00  0.00    -0.020 N
ATOM      3  H2  UNL     1      18.508   6.378  14.404  1.00  0.00     0.203 HD
HETATM    4  C5  UNL     1      17.135   4.870  14.236  1.00  0.00     0.725 A
HETATM    5  N5  UNL     1      16.750   3.820  13.501  1.00  0.00    -0.020 N
ATOM      6  H5  UNL     1      15.934   3.285  13.799  1.00  0.00     0.203 HD
HETATM    7  C10 UNL     1      17.398   3.441  12.381  1.00  0.00     0.709 A
HETATM    8  N7  UNL     1      18.467   4.164  12.016  1.00  0.00    -0.021 N
ATOM      9  H7  UNL     1      18.985   3.911  11.175  1.00  0.00     0.203 HD
ENDROOT
BRANCH   4  10
HETATM   10  N3  UNL     1      16.503   5.223  15.309  1.00  0.00    -0.133 N
ATOM     11  H3  UNL     1      16.487   6.214  15.549  1.00  0.00     0.205 HD
BRANCH  10  12
HETATM   12  N4  UNL     1      15.853   4.347  16.146  1.00  0.00    -0.310 N
HETATM   13  C6  UNL     1      14.440   4.446  16.377  1.00  0.00     0.169 C
HETATM   14  C7  UNL     1      14.012   3.323  17.301  1.00  0.00     0.189 C
HETATM   15  O1  UNL     1      14.503   2.099  16.959  1.00  0.00    -0.388 OA
HETATM   16  C8  UNL     1      15.810   2.017  16.582  1.00  0.00     0.189 C
HETATM   17  C9  UNL     1      16.575   3.303  16.816  1.00  0.00     0.169 C
ENDBRANCH  10  12
ENDBRANCH   4  10
BRANCH   1  18
HETATM   18  N1  UNL     1      19.982   6.005  12.394  1.00  0.00    -0.217 N
HETATM   19  C3  UNL     1      20.279   7.164  13.204  1.00  0.00     0.141 C
HETATM   20  C2  UNL     1      20.956   8.174  12.268  1.00  0.00     0.020 C
HETATM   21  C1  UNL     1      22.264   7.581  11.852  1.00  0.00     0.003 C
HETATM   22  C16 UNL     1      22.169   6.194  11.300  1.00  0.00     0.020 C
HETATM   23  C15 UNL     1      20.776   5.638  11.268  1.00  0.00     0.141 C
ENDBRANCH   1  18
BRANCH   7  24
HETATM   24  N6  UNL     1      16.929   2.323  11.660  1.00  0.00    -0.213 N
HETATM   25  C11 UNL     1      17.218   0.958  12.008  1.00  0.00     0.167 C
HETATM   26  C12 UNL     1      18.029   0.373  10.850  1.00  0.00     0.188 C
HETATM   27  O2  UNL     1      17.651   0.891   9.648  1.00  0.00    -0.388 OA
HETATM   28  C13 UNL     1      16.378   1.377   9.543  1.00  0.00     0.188 C
HETATM   29  C14 UNL     1      16.105   2.531  10.489  1.00  0.00     0.167 C
ENDBRANCH   7  24
TORSDOF 4
ENDMDL