MODEL 1
REMARK VINA RESULT: -8.017265305      0.000      0.000
REMARK  3 active torsions:
REMARK  status: ('A' for Active; 'I' for Inactive)
REMARK    1  A    between atoms: C3_4  and  N2_5
REMARK    2  A    between atoms: C8_13  and  N4_14
REMARK    3  A    between atoms: C13_24  and  N7_25
ROOT
HETATM    1  N1  UNL     1      19.656   4.935   9.999  1.00  0.00    -0.191 NA
HETATM    2  C1  UNL     1      19.044   4.731  10.964  1.00  0.00     0.107 C
HETATM    3  C2  UNL     1      18.276   4.503  12.167  1.00  0.00     0.133 A
HETATM    4  C3  UNL     1      18.121   5.516  13.110  1.00  0.00     0.144 A
HETATM    5  N3  UNL     1      17.387   5.206  14.194  1.00  0.00    -0.175 N
ATOM      6  H3  UNL     1      17.266   5.939  14.893  1.00  0.00     0.186 HD
HETATM    7  C8  UNL     1      16.807   4.042  14.443  1.00  0.00     0.683 A
HETATM    8  N6  UNL     1      16.966   3.059  13.511  1.00  0.00    -0.175 N
ATOM      9  H6  UNL     1      16.537   2.146  13.661  1.00  0.00     0.186 HD
HETATM   10  C13 UNL     1      17.682   3.283  12.398  1.00  0.00     0.150 A
ENDROOT
BRANCH   4  11
HETATM   11  N2  UNL     1      18.708   6.799  12.939  1.00  0.00    -0.361 N
HETATM   12  C4  UNL     1      18.088   7.900  12.233  1.00  0.00     0.150 C
HETATM   13  C5  UNL     1      19.032   8.559  11.259  1.00  0.00     0.187 C
HETATM   14  O1  UNL     1      20.344   8.583  11.716  1.00  0.00    -0.388 OA
HETATM   15  C6  UNL     1      20.435   8.430  13.091  1.00  0.00     0.187 C
HETATM   16  C7  UNL     1      20.020   7.054  13.497  1.00  0.00     0.150 C
ENDBRANCH   4  11
BRANCH  10  17
HETATM   17  N7  UNL     1      17.827   2.257  11.452  1.00  0.00    -0.302 N
HETATM   18  C14 UNL     1      18.724   1.158  11.136  1.00  0.00     0.143 C
HETATM   19  C15 UNL     1      17.505   0.480  10.547  1.00  0.00     0.123 C
HETATM   20  C16 UNL     1      17.070   1.868  10.320  1.00  0.00     0.227 C
HETATM   21  O2  UNL     1      16.355   2.477   9.509  1.00  0.00    -0.273 OA
ENDBRANCH  10  17
BRANCH   7  22
HETATM   22  N4  UNL     1      16.044   3.828  15.624  1.00  0.00    -0.214 N
HETATM   23  C9  UNL     1      16.314   2.632  16.401  1.00  0.00     0.168 C
HETATM   24  C10 UNL     1      15.296   2.342  17.450  1.00  0.00     0.252 C
HETATM   25  N5  UNL     1      14.815   3.547  18.046  1.00  0.00    -0.072 N
HETATM   26  C11 UNL     1      14.122   4.336  17.056  1.00  0.00     0.252 C
ATOM     27  H52 UNL     1      14.237   3.366  18.866  1.00  0.00     0.277 HD
ATOM     28  H51 UNL     1      15.559   4.073  18.505  1.00  0.00     0.277 HD
HETATM   29  C12 UNL     1      15.054   4.816  15.963  1.00  0.00     0.168 C
ENDBRANCH   7  22
TORSDOF 3
ENDMDL