MODEL 3
REMARK VINA RESULT: -8.186880384      1.292      1.420
REMARK  4 active torsions:
REMARK  status: ('A' for Active; 'I' for Inactive)
REMARK       I    between atoms: C1_2  and  N1_4
REMARK    1  A    between atoms: N1_4  and  N2_6
REMARK    2  A    between atoms: C2_8  and  C3_9
REMARK    3  A    between atoms: C6_12  and  C7_13
REMARK    4  A    between atoms: N4_22  and  S1_23
ROOT
HETATM    1  C3  UNL     1      17.760   6.293  11.835  1.00  0.00     0.011 A
HETATM    2  C4  UNL     1      17.646   6.955  13.022  1.00  0.00     0.016 A
HETATM    3  C5  UNL     1      17.100   6.370  14.182  1.00  0.00     0.015 A
HETATM    4  C6  UNL     1      16.657   5.080  14.138  1.00  0.00     0.005 A
HETATM    5  C13 UNL     1      16.757   4.377  12.949  1.00  0.00     0.090 A
HETATM    6  N3  UNL     1      16.406   3.120  12.628  1.00  0.00    -0.266 N
ATOM      7  H3  UNL     1      15.981   2.436  13.255  1.00  0.00     0.190 HD
HETATM    8  N4  UNL     1      16.705   2.928  11.373  1.00  0.00    -0.101 N
HETATM    9  N5  UNL     1      17.235   4.018  10.877  1.00  0.00    -0.266 N
ATOM     10  H5  UNL     1      17.557   4.132   9.915  1.00  0.00     0.190 HD
HETATM   11  C14 UNL     1      17.290   4.960  11.829  1.00  0.00     0.091 A
ENDROOT
BRANCH   1  12
HETATM   12  C2  UNL     1      18.309   6.839  10.617  1.00  0.00     0.121 C
HETATM   13  N2  UNL     1      17.718   7.173   9.598  1.00  0.00    -0.306 N
ATOM     14  H2  UNL     1      18.352   7.530   8.883  1.00  0.00     0.186 HD
BRANCH  13  15
HETATM   15  N1  UNL     1      16.445   7.182   9.195  1.00  0.00    -0.244 N
HETATM   16  C1  UNL     1      15.488   8.216   9.487  1.00  0.00     0.303 C
HETATM   17  O1  UNL     1      15.911   9.180  10.180  1.00  0.00    -0.628 OA
HETATM   18  O2  UNL     1      14.185   8.189   9.051  1.00  0.00    -0.628 OA
ATOM     19  H1  UNL     1      16.126   6.392   8.636  1.00  0.00     0.193 HD
ENDBRANCH  13  15
ENDBRANCH   1  12
BRANCH   4  20
HETATM   20  C7  UNL     1      16.091   4.444  15.304  1.00  0.00    -0.024 A
HETATM   21  C8  UNL     1      16.773   3.390  15.916  1.00  0.00     0.012 A
HETATM   22  C9  UNL     1      16.269   2.755  17.031  1.00  0.00     0.001 A
HETATM   23  C10 UNL     1      15.065   3.184  17.536  1.00  0.00     0.000 A
HETATM   24  C11 UNL     1      14.349   4.222  16.971  1.00  0.00     0.001 A
HETATM   25  C12 UNL     1      14.879   4.836  15.858  1.00  0.00     0.012 A
ENDBRANCH   4  20
BRANCH   8  26
HETATM   26  S1  UNL     1      16.430   1.446  10.521  1.00  0.00     0.395 S
HETATM   27  O3  UNL     1      16.184   1.751   8.888  1.00  0.00    -0.184 OA
HETATM   28  O4  UNL     1      17.748   0.428  10.676  1.00  0.00    -0.184 OA
ENDBRANCH   8  26
TORSDOF 4
ENDMDL