MODEL 3
REMARK VINA RESULT: -7.345477426      2.556      3.105
REMARK  3 active torsions:
REMARK  status: ('A' for Active; 'I' for Inactive)
REMARK    1  A    between atoms: C3_4  and  N2_5
REMARK       I    between atoms: N2_5  and  C4_7
REMARK       I    between atoms: C4_7  and  N3_9
REMARK    2  A    between atoms: N4_12  and  C7_13
REMARK    3  A    between atoms: C13_23  and  S1_24
ROOT
HETATM    1  N2  UNL     1      16.393   4.686  12.671  1.00  0.00    -0.305 N
ATOM      2  H2  UNL     1      15.424   5.001  12.628  1.00  0.00     0.171 HD
HETATM    3  C4  UNL     1      17.423   5.639  12.681  1.00  0.00     0.323 C
HETATM    4  O1  UNL     1      18.641   5.245  12.735  1.00  0.00    -0.247 OA
HETATM    5  N3  UNL     1      17.235   7.037  12.635  1.00  0.00    -0.331 N
HETATM    6  C5  UNL     1      15.926   7.607  12.579  1.00  0.00     0.148 C
HETATM    7  C6  UNL     1      15.763   8.475  11.339  1.00  0.00     0.161 C
HETATM    8  N4  UNL     1      16.877   9.410  11.357  1.00  0.00    -0.214 N
HETATM    9  C11 UNL     1      18.237   9.048  11.655  1.00  0.00     0.161 C
HETATM   10  C12 UNL     1      18.373   7.914  12.640  1.00  0.00     0.148 C
ENDROOT
BRANCH   1  11
HETATM   11  C3  UNL     1      16.668   3.299  12.720  1.00  0.00     0.094 A
HETATM   12  C2  UNL     1      16.909   2.353  11.758  1.00  0.00     0.142 A
HETATM   13  N1  UNL     1      17.125   1.123  12.329  1.00  0.00    -0.304 N
HETATM   14  C1  UNL     1      17.408  -0.081  11.567  1.00  0.00     0.177 C
HETATM   15  N7  UNL     1      17.020   1.304  13.608  1.00  0.00    -0.286 N
HETATM   16  C13 UNL     1      16.751   2.561  13.919  1.00  0.00     0.187 A
ATOM     17  H7  UNL     1      17.131   0.560  14.298  1.00  0.00     0.188 HD
BRANCH  16  18
HETATM   18  S1  UNL     1      16.541   3.176  15.520  1.00  0.00     0.307 S
HETATM   19  O2  UNL     1      17.969   3.175  16.398  1.00  0.00    -0.204 OA
HETATM   20  O3  UNL     1      15.321   2.340  16.288  1.00  0.00    -0.204 OA
ENDBRANCH  16  18
ENDBRANCH   1  11
BRANCH   8  21
HETATM   21  C7  UNL     1      16.591  10.775  11.055  1.00  0.00     0.679 A
HETATM   22  N5  UNL     1      17.537  11.734  11.097  1.00  0.00    -0.202 N
HETATM   23  C8  UNL     1      17.291  13.025  10.817  1.00  0.00     0.107 A
ATOM     24  H5  UNL     1      18.487  11.466  11.356  1.00  0.00     0.183 HD
HETATM   25  C9  UNL     1      16.020  13.410  10.467  1.00  0.00     0.035 A
HETATM   26  C10 UNL     1      15.032  12.441  10.416  1.00  0.00     0.107 A
HETATM   27  N6  UNL     1      15.355  11.171  10.710  1.00  0.00    -0.202 N
ATOM     28  H6  UNL     1      14.619  10.466  10.669  1.00  0.00     0.183 HD
ENDBRANCH   8  21
TORSDOF 3
ENDMDL