MODEL 2
REMARK VINA RESULT: -6.977081890      3.372      6.349
REMARK  4 active torsions:
REMARK  status: ('A' for Active; 'I' for Inactive)
REMARK    1  A    between atoms: N2_5  and  C4_6
REMARK    2  A    between atoms: N7_24  and  C15_25
REMARK    3  A    between atoms: C15_25  and  C16_26
REMARK    4  A    between atoms: C16_26  and  O1_27
ROOT
HETATM    1  C4  UNL     1      19.305   5.399  11.233  1.00  0.00     0.135 A
HETATM    2  N3  UNL     1      20.151   5.445  10.162  1.00  0.00    -0.337 N
ATOM      3  H3  UNL     1      20.221   4.628   9.556  1.00  0.00     0.168 HD
HETATM    4  C5  UNL     1      20.890   6.520   9.880  1.00  0.00     0.183 A
HETATM    5  N4  UNL     1      20.826   7.616  10.653  1.00  0.00    -0.336 N
ATOM      6  H4  UNL     1      21.397   8.429  10.424  1.00  0.00     0.168 HD
HETATM    7  C6  UNL     1      20.029   7.651  11.712  1.00  0.00     0.141 A
HETATM    8  C7  UNL     1      19.253   6.533  12.014  1.00  0.00     0.122 A
HETATM    9  N5  UNL     1      18.568   6.857  13.108  1.00  0.00    -0.340 N
ATOM     10  H5  UNL     1      17.906   6.245  13.584  1.00  0.00     0.167 HD
HETATM   11  C8  UNL     1      18.880   8.125  13.500  1.00  0.00     0.085 A
HETATM   12  N6  UNL     1      19.777   8.604  12.640  1.00  0.00    -0.321 N
HETATM   13  C9  UNL     1      20.369   9.932  12.708  1.00  0.00     0.132 C
HETATM   14  C10 UNL     1      19.721  10.789  13.740  1.00  0.00     0.021 C
HETATM   15  C11 UNL     1      19.312  10.025  14.984  1.00  0.00     0.009 C
HETATM   16  C12 UNL     1      18.360   8.905  14.666  1.00  0.00     0.077 C
ENDROOT
BRANCH   1  17
HETATM   17  N2  UNL     1      18.530   4.242  11.513  1.00  0.00    -0.359 N
HETATM   18  C3  UNL     1      17.162   4.430  11.907  1.00  0.00     0.170 C
HETATM   19  C2  UNL     1      16.337   3.194  11.865  1.00  0.00     0.097 C
HETATM   20  N1  UNL     1      16.825   2.078  12.563  1.00  0.00    -0.328 N
HETATM   21  C1  UNL     1      16.796   2.101  13.969  1.00  0.00     0.170 C
HETATM   22  N7  UNL     1      17.749   1.289  11.954  1.00  0.00    -0.227 NA
HETATM   23  C14 UNL     1      18.429   1.873  10.837  1.00  0.00     0.133 C
HETATM   24  C13 UNL     1      19.288   3.007  11.345  1.00  0.00     0.141 C
BRANCH  22  25
HETATM   25  C15 UNL     1      17.248  -0.006  11.540  1.00  0.00     0.139 C
BRANCH  25  26
HETATM   26  C16 UNL     1      18.366  -0.935  11.117  1.00  0.00     0.180 C
BRANCH  26  27
HETATM   27  O1  UNL     1      17.941  -2.239  11.434  1.00  0.00    -0.400 OA
ATOM     28  H1  UNL     1      18.605  -2.607  12.005  1.00  0.00     0.209 HD
ENDBRANCH  26  27
ENDBRANCH  25  26
ENDBRANCH  22  25
ENDBRANCH   1  17
TORSDOF 4
ENDMDL