MODEL 5
REMARK VINA RESULT: -8.728171204      3.344      5.081
REMARK  9 active torsions:
REMARK  status: ('A' for Active; 'I' for Inactive)
REMARK    1  A    between atoms: O1_2  and  C2_3
REMARK    2  A    between atoms: C2_3  and  C3_5
REMARK    3  A    between atoms: C3_5  and  C4_6
REMARK    4  A    between atoms: C8_10  and  O3_11
REMARK    5  A    between atoms: O3_11  and  C9_12
REMARK    6  A    between atoms: C13_16  and  O4_17
REMARK    7  A    between atoms: C25_32  and  O6_34
REMARK    8  A    between atoms: C28_37  and  O7_38
REMARK    9  A    between atoms: O7_38  and  C29_39
ROOT
HETATM    1  C4  UNL     1      40.812   4.271 -18.020  1.00  0.00    -0.010 C
HETATM    2  C5  UNL     1      39.952   3.407 -17.447  1.00  0.00    -0.065 C
HETATM    3  C6  UNL     1      39.361   2.437 -18.373  1.00  0.00     0.043 C
HETATM    4  C7  UNL     1      38.462   3.125 -19.413  1.00  0.00     0.065 C
HETATM    5  C8  UNL     1      36.997   2.693 -19.226  1.00  0.00     0.264 C
HETATM    6  O5  UNL     1      36.319   3.487 -18.373  1.00  0.00    -0.326 OA
HETATM    7  C25 UNL     1      35.969   2.947 -17.119  1.00  0.00     0.163 C
HETATM    8  C26 UNL     1      35.744   1.466 -17.179  1.00  0.00     0.079 C
HETATM    9  C27 UNL     1      36.814   3.508 -16.065  1.00  0.00     0.101 C
HETATM   10  C28 UNL     1      37.528   2.698 -15.082  1.00  0.00     0.144 C
HETATM   11  C31 UNL     1      39.030   2.588 -15.207  1.00  0.00     0.034 C
HETATM   12  C32 UNL     1      39.519   1.190 -15.489  1.00  0.00     0.017 C
HETATM   13  C33 UNL     1      39.747   3.574 -16.011  1.00  0.00    -0.013 C
ENDROOT
BRANCH   5  14
HETATM   14  O3  UNL     1      36.432   2.938 -20.507  1.00  0.00    -0.351 OA
BRANCH  14  15
HETATM   15  C9  UNL     1      35.390   2.109 -20.817  1.00  0.00     0.157 C
HETATM   16  C10 UNL     1      34.370   2.702 -21.722  1.00  0.00    -0.056 C
HETATM   17  C11 UNL     1      33.901   4.115 -21.509  1.00  0.00     0.046 C
HETATM   18  C12 UNL     1      33.811   2.070 -22.748  1.00  0.00     0.010 C
HETATM   19  C13 UNL     1      34.124   0.669 -23.147  1.00  0.00     0.146 C
HETATM   20  C14 UNL     1      34.845   0.031 -22.011  1.00  0.00     0.028 C
HETATM   21  C15 UNL     1      35.209  -1.398 -22.207  1.00  0.00    -0.011 C
HETATM   22  C24 UNL     1      35.996   0.898 -21.547  1.00  0.00     0.026 C
HETATM   23  C16 UNL     1      34.029  -2.302 -21.817  1.00  0.00     0.010 C
HETATM   24  C17 UNL     1      35.735  -1.768 -23.542  1.00  0.00     0.009 C
HETATM   25  C18 UNL     1      37.262  -1.921 -23.547  1.00  0.00     0.037 C
HETATM   26  C19 UNL     1      37.950  -0.637 -23.622  1.00  0.00    -0.046 C
HETATM   27  C20 UNL     1      38.467  -0.302 -24.803  1.00  0.00     0.092 C
HETATM   28  C22 UNL     1      38.216   0.437 -22.613  1.00  0.00     0.037 C
HETATM   29  C21 UNL     1      38.331  -1.215 -25.973  1.00  0.00     0.082 C
HETATM   30  F1  UNL     1      39.130   0.871 -24.983  1.00  0.00    -0.211 F
HETATM   31  C23 UNL     1      36.949   1.304 -22.607  1.00  0.00     0.012 C
BRANCH  19  32
HETATM   32  O4  UNL     1      32.890   0.032 -23.360  1.00  0.00    -0.391 OA
ATOM     33  H4  UNL     1      33.031  -0.891 -23.185  1.00  0.00     0.210 HD
ENDBRANCH  19  32
ENDBRANCH  14  15
ENDBRANCH   5  14
BRANCH   7  34
HETATM   34  O6  UNL     1      34.620   3.422 -16.995  1.00  0.00    -0.365 OA
ATOM     35  H6  UNL     1      34.304   3.281 -17.879  1.00  0.00     0.213 HD
ENDBRANCH   7  34
BRANCH   1  36
HETATM   36  C3  UNL     1      41.527   5.339 -17.273  1.00  0.00     0.138 C
BRANCH  36  37
HETATM   37  C2  UNL     1      42.326   6.113 -18.260  1.00  0.00     0.261 C
HETATM   38  O2  UNL     1      42.352   5.824 -19.486  1.00  0.00    -0.265 OA
BRANCH  37  39
HETATM   39  O1  UNL     1      43.102   7.219 -17.875  1.00  0.00    -0.326 OA
HETATM   40  C1  UNL     1      43.046   8.429 -18.625  1.00  0.00     0.213 C
ENDBRANCH  37  39
ENDBRANCH  36  37
ENDBRANCH   1  36
BRANCH  10  41
HETATM   41  O7  UNL     1      37.087   1.362 -14.900  1.00  0.00    -0.315 OA
BRANCH  41  42
HETATM   42  C29 UNL     1      36.456   0.865 -13.795  1.00  0.00     0.255 C
HETATM   43  C30 UNL     1      37.174   0.868 -12.497  1.00  0.00     0.126 C
HETATM   44  O8  UNL     1      35.287   0.423 -13.927  1.00  0.00    -0.266 OA
ENDBRANCH  41  42
ENDBRANCH  10  41
TORSDOF 9
ENDMDL