MODEL 5
REMARK VINA RESULT: -8.688108571      3.666      5.007
REMARK  7 active torsions:
REMARK  status: ('A' for Active; 'I' for Inactive)
REMARK    1  A    between atoms: C9_9  and  O1_10
REMARK    2  A    between atoms: C10_12  and  C11_13
REMARK    3  A    between atoms: C11_13  and  S1_14
REMARK    4  A    between atoms: S1_14  and  C12_15
REMARK    5  A    between atoms: N4_22  and  C13_23
REMARK    6  A    between atoms: C16_26  and  N5_27
REMARK    7  A    between atoms: N6_29  and  C17_31
ROOT
HETATM    1  S1  UNL     1      33.668  -2.220 -22.723  1.00  0.00    -0.090 SA
ENDROOT
BRANCH   1   2
HETATM    2  C11 UNL     1      33.687  -1.126 -21.320  1.00  0.00     0.090 C
BRANCH   2   3
HETATM    3  C10 UNL     1      33.897   0.348 -21.644  1.00  0.00     0.031 C
HETATM    4  C9  UNL     1      34.694   1.020 -20.557  1.00  0.00     0.070 C
HETATM    5  C8  UNL     1      33.863   1.620 -19.465  1.00  0.00     0.039 C
HETATM    6  C22 UNL     1      35.520   2.078 -21.213  1.00  0.00    -0.009 C
HETATM    7  C7  UNL     1      32.909   2.575 -20.060  1.00  0.00     0.008 C
HETATM    8  C6  UNL     1      33.421   3.509 -21.101  1.00  0.00    -0.004 C
HETATM    9  C5  UNL     1      34.768   3.284 -21.660  1.00  0.00     0.001 C
HETATM   10  C24 UNL     1      33.138   4.935 -20.661  1.00  0.00     0.006 C
HETATM   11  C4  UNL     1      35.647   4.535 -21.694  1.00  0.00     0.007 C
HETATM   12  C3  UNL     1      35.601   5.352 -20.465  1.00  0.00     0.018 C
HETATM   13  C2  UNL     1      34.210   5.662 -19.981  1.00  0.00     0.021 C
HETATM   14  C1  UNL     1      34.129   5.571 -18.450  1.00  0.00     0.024 C
HETATM   15  C27 UNL     1      33.895   7.090 -20.270  1.00  0.00     0.135 C
HETATM   16  C26 UNL     1      33.194   7.181 -21.559  1.00  0.00     0.079 C
HETATM   17  O2  UNL     1      34.167   8.045 -19.565  1.00  0.00    -0.297 OA
HETATM   18  C25 UNL     1      32.654   5.814 -21.797  1.00  0.00     0.013 C
HETATM   19  C21 UNL     1      36.053   1.237 -22.395  1.00  0.00     0.013 C
HETATM   20  C23 UNL     1      36.710   2.323 -20.331  1.00  0.00     0.019 C
HETATM   21  C20 UNL     1      34.847   0.421 -22.819  1.00  0.00     0.009 C
BRANCH   4  22
HETATM   22  O1  UNL     1      35.522   0.076 -19.963  1.00  0.00    -0.389 OA
ATOM     23  H1  UNL     1      36.127   0.550 -19.405  1.00  0.00     0.210 HD
ENDBRANCH   4  22
ENDBRANCH   2   3
ENDBRANCH   1   2
BRANCH   1  24
HETATM   24  C12 UNL     1      34.634  -3.665 -22.614  1.00  0.00     0.183 A
HETATM   25  N1  UNL     1      34.206  -4.937 -22.597  1.00  0.00    -0.263 N
HETATM   26  N2  UNL     1      35.198  -5.778 -22.504  1.00  0.00    -0.226 N
ATOM     27  H1  UNL     1      33.225  -5.212 -22.650  1.00  0.00     0.190 HD
HETATM   28  N3  UNL     1      36.286  -5.059 -22.461  1.00  0.00    -0.219 N
ATOM     29  H2  UNL     1      35.136  -6.796 -22.472  1.00  0.00     0.210 HD
HETATM   30  N4  UNL     1      35.975  -3.749 -22.527  1.00  0.00    -0.217 N
ATOM     31  H3  UNL     1      37.233  -5.433 -22.388  1.00  0.00     0.210 HD
BRANCH  30  32
HETATM   32  C13 UNL     1      36.951  -2.715 -22.500  1.00  0.00     0.062 A
HETATM   33  C14 UNL     1      37.536  -2.373 -21.303  1.00  0.00     0.034 A
HETATM   34  C15 UNL     1      38.489  -1.371 -21.206  1.00  0.00     0.035 A
HETATM   35  C16 UNL     1      38.868  -0.685 -22.362  1.00  0.00     0.070 A
HETATM   36  C18 UNL     1      38.291  -1.015 -23.571  1.00  0.00     0.064 A
HETATM   37 CL1  UNL     1      38.753  -0.164 -25.054  1.00  0.00    -0.082 Cl
HETATM   38  C19 UNL     1      37.338  -2.027 -23.629  1.00  0.00     0.058 A
BRANCH  35  39
HETATM   39  N5  UNL     1      39.840   0.354 -22.325  1.00  0.00    -0.297 N
HETATM   40  N6  UNL     1      41.028   0.150 -21.882  1.00  0.00    -0.278 N
ATOM     41  H6  UNL     1      41.325  -0.763 -21.539  1.00  0.00     0.189 HD
ATOM     42  H5  UNL     1      39.587   1.285 -22.658  1.00  0.00     0.187 HD
BRANCH  40  43
HETATM   43  C17 UNL     1      41.911   1.274 -21.897  1.00  0.00     0.199 C
HETATM   44  N7  UNL     1      41.712   2.310 -22.844  1.00  0.00    -0.068 NA
HETATM   45  S2  UNL     1      43.147   1.386 -20.838  1.00  0.00    -0.043 SA
ENDBRANCH  40  43
ENDBRANCH  35  39
ENDBRANCH  30  32
ENDBRANCH   1  24
TORSDOF 7
ENDMDL