MODEL 5
REMARK VINA RESULT: -10.377306837      2.255      3.517
REMARK  6 active torsions:
REMARK  status: ('A' for Active; 'I' for Inactive)
REMARK    1  A    between atoms: N4_8  and  C3_9
REMARK    2  A    between atoms: C9_16  and  C10_17
REMARK    3  A    between atoms: N5_20  and  C13_21
REMARK    4  A    between atoms: C14_24  and  N7_25
REMARK    5  A    between atoms: C18_33  and  C19_34
REMARK    6  A    between atoms: N9_41  and  C26_42
ROOT
HETATM    1  N1  UNL     1      42.353   4.985 -17.644  1.00  0.00    -0.190 NA
HETATM    2  C1  UNL     1      42.597   4.139 -16.880  1.00  0.00     0.121 C
HETATM    3  C2  UNL     1      42.913   3.132 -15.918  1.00  0.00     0.159 A
HETATM    4  N2  UNL     1      44.168   2.976 -15.476  1.00  0.00    -0.274 N
ATOM      5  H2  UNL     1      44.992   3.492 -15.783  1.00  0.00     0.189 HD
HETATM    6  N3  UNL     1      44.128   2.045 -14.585  1.00  0.00    -0.234 N
ATOM      7  H3  UNL     1      44.938   1.705 -14.067  1.00  0.00     0.209 HD
HETATM    8  N4  UNL     1      42.897   1.587 -14.431  1.00  0.00    -0.239 N
HETATM    9  C9  UNL     1      42.041   2.253 -15.265  1.00  0.00     0.099 A
ENDROOT
BRANCH   9  10
HETATM   10  C10 UNL     1      40.623   1.955 -15.555  1.00  0.00    -0.045 C
HETATM   11  C11 UNL     1      39.727   3.101 -15.286  1.00  0.00     0.057 C
HETATM   12  C12 UNL     1      38.364   3.065 -15.949  1.00  0.00     0.145 C
HETATM   13  N5  UNL     1      38.114   2.018 -16.868  1.00  0.00    -0.217 N
HETATM   14  C32 UNL     1      38.840   0.774 -16.848  1.00  0.00     0.145 C
HETATM   15  C33 UNL     1      40.303   0.900 -16.485  1.00  0.00     0.057 C
BRANCH  13  16
HETATM   16  C13 UNL     1      37.135   2.143 -17.892  1.00  0.00     0.682 A
HETATM   17  N6  UNL     1      36.560   1.024 -18.421  1.00  0.00    -0.175 N
HETATM   18  C14 UNL     1      35.680   0.992 -19.425  1.00  0.00     0.143 A
ATOM     19  H6  UNL     1      36.827   0.130 -18.011  1.00  0.00     0.186 HD
HETATM   20  C15 UNL     1      35.307   2.190 -20.000  1.00  0.00     0.103 A
HETATM   21  C16 UNL     1      35.846   3.351 -19.493  1.00  0.00     0.058 A
HETATM   22  N9  UNL     1      34.549   2.235 -21.180  1.00  0.00    -0.342 N
HETATM   23  N8  UNL     1      36.733   3.275 -18.470  1.00  0.00    -0.193 N
HETATM   24  C17 UNL     1      35.351   4.669 -19.950  1.00  0.00     0.071 C
ATOM     25  H8  UNL     1      37.122   4.150 -18.117  1.00  0.00     0.184 HD
HETATM   26  C18 UNL     1      34.487   4.719 -21.125  1.00  0.00     0.042 C
HETATM   27  C25 UNL     1      33.927   3.448 -21.661  1.00  0.00     0.139 C
BRANCH  18  28
HETATM   28  N7  UNL     1      35.104  -0.109 -19.774  1.00  0.00    -0.383 N
ATOM     29  H72 UNL     1      34.681  -0.202 -20.697  1.00  0.00     0.157 HD
ATOM     30  H71 UNL     1      34.979  -0.873 -19.109  1.00  0.00     0.157 HD
ENDBRANCH  18  28
BRANCH  26  31
HETATM   31  C19 UNL     1      33.317   5.663 -20.909  1.00  0.00    -0.052 A
HETATM   32  C20 UNL     1      32.589   6.148 -21.994  1.00  0.00     0.007 A
HETATM   33  C21 UNL     1      31.561   7.057 -21.772  1.00  0.00     0.001 A
HETATM   34  C22 UNL     1      31.214   7.509 -20.518  1.00  0.00     0.000 A
HETATM   35  C23 UNL     1      31.953   7.013 -19.443  1.00  0.00     0.001 A
HETATM   36  C24 UNL     1      32.972   6.117 -19.665  1.00  0.00     0.007 A
ENDBRANCH  26  31
BRANCH  22  37
HETATM   37  C26 UNL     1      34.406   1.106 -22.024  1.00  0.00     0.035 A
HETATM   38  C27 UNL     1      35.507   0.677 -22.721  1.00  0.00     0.029 A
HETATM   39  C28 UNL     1      35.546  -0.445 -23.513  1.00  0.00     0.002 A
HETATM   40  C29 UNL     1      34.353  -1.175 -23.585  1.00  0.00     0.000 A
HETATM   41  C30 UNL     1      33.244  -0.753 -22.891  1.00  0.00     0.002 A
HETATM   42  C31 UNL     1      33.266   0.403 -22.096  1.00  0.00     0.029 A
ENDBRANCH  22  37
ENDBRANCH  13  16
ENDBRANCH   9  10
BRANCH   8  43
HETATM   43  C3  UNL     1      42.630   0.474 -13.645  1.00  0.00     0.058 A
HETATM   44  C4  UNL     1      42.920  -0.766 -14.253  1.00  0.00     0.033 A
HETATM   45  C5  UNL     1      42.703  -1.899 -13.537  1.00  0.00     0.026 A
HETATM   46  C6  UNL     1      42.210  -1.890 -12.239  1.00  0.00     0.034 A
HETATM   47 CL1  UNL     1      41.970  -3.392 -11.423  1.00  0.00    -0.084 Cl
HETATM   48  C7  UNL     1      41.936  -0.642 -11.662  1.00  0.00     0.026 A
HETATM   49  C8  UNL     1      42.149   0.528 -12.372  1.00  0.00     0.033 A
ENDBRANCH   8  43
TORSDOF 6
ENDMDL