MODEL 1
REMARK VINA RESULT: -10.059349093      0.000      0.000
REMARK  7 active torsions:
REMARK  status: ('A' for Active; 'I' for Inactive)
REMARK    1  A    between atoms: C6_7  and  N1_8
REMARK       I    between atoms: N1_8  and  C7_10
REMARK    2  A    between atoms: C7_10  and  O2_12
REMARK    3  A    between atoms: O2_12  and  C8_13
REMARK    4  A    between atoms: C8_13  and  C9_14
REMARK    5  A    between atoms: C11_18  and  C12_19
REMARK    6  A    between atoms: C21_28  and  C22_29
REMARK    7  A    between atoms: C24_32  and  O6_33
ROOT
HETATM    1  C9  UNL     1      36.349   3.244 -17.982  1.00  0.00     0.156 C
HETATM    2  O3  UNL     1      35.200   4.023 -17.776  1.00  0.00    -0.352 OA
HETATM    3  C10 UNL     1      34.897   4.230 -19.145  1.00  0.00     0.275 C
HETATM    4  O4  UNL     1      33.793   4.970 -19.389  1.00  0.00    -0.354 OA
HETATM    5  C11 UNL     1      34.126   5.941 -20.346  1.00  0.00     0.132 C
HETATM    6  C16 UNL     1      34.854   5.356 -21.521  1.00  0.00     0.033 C
HETATM    7  C17 UNL     1      34.537   3.947 -21.827  1.00  0.00     0.009 C
HETATM    8  C18 UNL     1      35.451   2.943 -21.104  1.00  0.00     0.011 C
HETATM    9  C19 UNL     1      35.327   1.642 -21.912  1.00  0.00     0.020 C
HETATM   10  C20 UNL     1      36.568   0.821 -21.817  1.00  0.00     0.013 C
HETATM   11  C21 UNL     1      34.050   0.943 -21.613  1.00  0.00     0.163 C
HETATM   12  O7  UNL     1      33.670   0.931 -20.308  1.00  0.00    -0.350 OA
HETATM   13  C26 UNL     1      33.620   2.128 -19.647  1.00  0.00     0.275 C
HETATM   14  O8  UNL     1      33.566   1.816 -18.265  1.00  0.00    -0.355 OA
HETATM   15  C27 UNL     1      34.835   1.197 -18.138  1.00  0.00     0.128 C
HETATM   16  C28 UNL     1      34.958   0.739 -16.748  1.00  0.00     0.040 C
HETATM   17  C29 UNL     1      35.821   2.105 -18.732  1.00  0.00     0.064 C
HETATM   18  C30 UNL     1      34.912   2.842 -19.734  1.00  0.00     0.072 C
ENDROOT
BRANCH   1  19
HETATM   19  C8  UNL     1      37.207   3.062 -16.810  1.00  0.00     0.213 C
BRANCH  19  20
HETATM   20  O2  UNL     1      38.198   2.035 -17.013  1.00  0.00    -0.301 OA
BRANCH  20  21
HETATM   21  C7  UNL     1      38.444   1.111 -16.009  1.00  0.00     0.361 C
HETATM   22  N1  UNL     1      38.814   1.544 -14.715  1.00  0.00    -0.330 N
ATOM     23  H1  UNL     1      38.890   2.548 -14.554  1.00  0.00     0.165 HD
HETATM   24  O1  UNL     1      38.334  -0.138 -16.258  1.00  0.00    -0.239 OA
BRANCH  22  25
HETATM   25  C6  UNL     1      39.089   0.670 -13.617  1.00  0.00     0.116 C
HETATM   26  C2  UNL     1      38.842   1.312 -12.273  1.00  0.00     0.028 C
HETATM   27  C1  UNL     1      37.981   0.438 -11.370  1.00  0.00     0.016 C
HETATM   28  C3  UNL     1      40.209   1.433 -11.654  1.00  0.00    -0.023 C
HETATM   29  C4  UNL     1      41.109   0.811 -12.394  1.00  0.00    -0.008 C
HETATM   30  C5  UNL     1      40.499   0.188 -13.601  1.00  0.00     0.128 C
HETATM   31 CL1  UNL     1      40.607  -1.586 -13.519  1.00  0.00    -0.119 Cl
ENDBRANCH  22  25
ENDBRANCH  20  21
ENDBRANCH  19  20
ENDBRANCH   1  19
BRANCH   5  32
HETATM   32  C12 UNL     1      32.984   6.842 -20.697  1.00  0.00    -0.025 C
HETATM   33  C13 UNL     1      32.244   6.409 -21.931  1.00  0.00     0.017 C
HETATM   34  C14 UNL     1      32.008   6.812 -19.528  1.00  0.00     0.017 C
HETATM   35  C15 UNL     1      33.482   8.264 -20.811  1.00  0.00     0.017 C
ENDBRANCH   5  32
BRANCH  11  36
HETATM   36  C22 UNL     1      34.051  -0.460 -22.120  1.00  0.00    -0.002 A
HETATM   37  C23 UNL     1      33.857  -0.837 -23.431  1.00  0.00     0.154 A
HETATM   38  O5  UNL     1      33.920  -2.143 -23.477  1.00  0.00    -0.300 OA
HETATM   39  C24 UNL     1      34.141  -2.659 -22.313  1.00  0.00     0.183 A
HETATM   40  C25 UNL     1      34.231  -1.626 -21.411  1.00  0.00     0.075 A
BRANCH  39  41
HETATM   41  O6  UNL     1      34.262  -4.040 -22.035  1.00  0.00    -0.341 OA
ATOM     42  H6  UNL     1      34.379  -4.422 -21.173  1.00  0.00     0.220 HD
ENDBRANCH  39  41
ENDBRANCH  11  36
TORSDOF 7
ENDMDL