MODEL 3
REMARK VINA RESULT: -9.184968311      4.027     11.954
REMARK  5 active torsions:
REMARK  status: ('A' for Active; 'I' for Inactive)
REMARK    1  A    between atoms: C4_7  and  C5_8
REMARK    2  A    between atoms: N3_12  and  C7_14
REMARK    3  A    between atoms: C10_17  and  N4_18
REMARK    4  A    between atoms: C17_27  and  C18_28
REMARK    5  A    between atoms: C22_34  and  N6_35
ROOT
HETATM    1  C5  UNL     1      38.262   2.606 -15.744  1.00  0.00     0.065 A
HETATM    2  N2  UNL     1      37.091   2.860 -16.296  1.00  0.00    -0.335 N
ATOM      3  H2  UNL     1      36.998   3.584 -17.008  1.00  0.00     0.168 HD
HETATM    4  C6  UNL     1      36.037   2.157 -15.907  1.00  0.00     0.150 A
HETATM    5  N3  UNL     1      34.794   2.249 -16.323  1.00  0.00    -0.337 N
ATOM      6  H3  UNL     1      34.071   1.642 -15.937  1.00  0.00     0.168 HD
HETATM    7  S1  UNL     1      36.675   1.103 -14.735  1.00  0.00    -0.049 SA
HETATM    8  C17 UNL     1      38.299   1.616 -14.793  1.00  0.00     0.062 A
ENDROOT
BRANCH   8   9
HETATM    9  C18 UNL     1      39.475   1.140 -14.029  1.00  0.00     0.053 A
HETATM   10  C19 UNL     1      39.903   1.738 -12.865  1.00  0.00     0.033 A
HETATM   11  C20 UNL     1      41.008   1.254 -12.190  1.00  0.00     0.036 A
HETATM   12  C21 UNL     1      41.690   0.172 -12.672  1.00  0.00     0.093 A
HETATM   13  N5  UNL     1      42.786  -0.529 -12.257  1.00  0.00    -0.188 N
HETATM   14  C28 UNL     1      41.247  -0.412 -13.839  1.00  0.00     0.149 A
HETATM   15  C22 UNL     1      43.034  -1.525 -13.125  1.00  0.00     0.682 A
ATOM     16  H5  UNL     1      43.332  -0.328 -11.419  1.00  0.00     0.184 HD
HETATM   17  N7  UNL     1      42.089  -1.434 -14.073  1.00  0.00    -0.174 N
ATOM     18  H7  UNL     1      42.019  -2.063 -14.874  1.00  0.00     0.186 HD
HETATM   19  N8  UNL     1      40.154   0.086 -14.483  1.00  0.00    -0.339 N
ATOM     20  H8  UNL     1      39.845  -0.364 -15.344  1.00  0.00     0.167 HD
BRANCH  15  21
HETATM   21  N6  UNL     1      44.102  -2.477 -13.030  1.00  0.00    -0.218 N
HETATM   22  C23 UNL     1      43.784  -3.878 -13.062  1.00  0.00     0.141 C
HETATM   23  C24 UNL     1      44.834  -4.709 -13.760  1.00  0.00     0.020 C
HETATM   24  C25 UNL     1      46.230  -4.355 -13.319  1.00  0.00     0.003 C
HETATM   25  C26 UNL     1      46.231  -3.248 -12.281  1.00  0.00     0.020 C
HETATM   26  C27 UNL     1      45.480  -2.074 -12.903  1.00  0.00     0.141 C
ENDBRANCH  15  21
ENDBRANCH   8   9
BRANCH   1  27
HETATM   27  C4  UNL     1      39.499   3.350 -16.124  1.00  0.00     0.009 A
HETATM   28  C3  UNL     1      39.751   4.581 -15.581  1.00  0.00     0.101 A
HETATM   29  N1  UNL     1      40.847   5.305 -15.880  1.00  0.00    -0.373 N
HETATM   30  C2  UNL     1      41.730   4.795 -16.750  1.00  0.00     0.111 A
ATOM     31  H1  UNL     1      41.002   6.219 -15.454  1.00  0.00     0.164 HD
HETATM   32  C1  UNL     1      41.541   3.558 -17.338  1.00  0.00     0.050 A
HETATM   33 CL1  UNL     1      42.736   2.946 -18.470  1.00  0.00    -0.083 Cl
HETATM   34  C29 UNL     1      40.409   2.837 -17.013  1.00  0.00     0.040 A
ENDBRANCH   1  27
BRANCH   5  35
HETATM   35  C7  UNL     1      34.477   3.200 -17.311  1.00  0.00     0.034 A
HETATM   36  C8  UNL     1      34.246   2.792 -18.597  1.00  0.00     0.032 A
HETATM   37  C9  UNL     1      33.939   3.709 -19.555  1.00  0.00     0.031 A
HETATM   38  C10 UNL     1      33.857   5.051 -19.248  1.00  0.00     0.030 A
HETATM   39  C15 UNL     1      34.090   5.465 -17.954  1.00  0.00     0.031 A
HETATM   40  C16 UNL     1      34.405   4.525 -16.965  1.00  0.00     0.032 A
BRANCH  38  41
HETATM   41  N4  UNL     1      33.532   6.004 -20.257  1.00  0.00    -0.377 N
HETATM   42  C11 UNL     1      33.530   7.422 -19.957  1.00  0.00     0.149 C
HETATM   43  C12 UNL     1      33.737   8.163 -21.268  1.00  0.00     0.187 C
HETATM   44  O1  UNL     1      32.752   7.908 -22.191  1.00  0.00    -0.388 OA
HETATM   45  C13 UNL     1      32.182   6.663 -22.100  1.00  0.00     0.187 C
HETATM   46  C14 UNL     1      33.189   5.613 -21.606  1.00  0.00     0.149 C
ENDBRANCH  38  41
ENDBRANCH   5  35
TORSDOF 5
ENDMDL