MODEL 5
REMARK VINA RESULT: -9.265660562      2.005      3.805
REMARK  9 active torsions:
REMARK  status: ('A' for Active; 'I' for Inactive)
REMARK    1  A    between atoms: C2_2  and  O2_4
REMARK    2  A    between atoms: O2_4  and  C3_5
REMARK    3  A    between atoms: C10_13  and  C11_14
REMARK    4  A    between atoms: C11_14  and  C12_15
REMARK    5  A    between atoms: C12_15  and  C13_16
REMARK    6  A    between atoms: C24_32  and  O4_33
REMARK    7  A    between atoms: C24_32  and  C25_35
REMARK    8  A    between atoms: C26_36  and  C27_37
REMARK    9  A    between atoms: C30_41  and  O6_42
ROOT
HETATM    1  C3  UNL     1      39.091   2.180 -15.686  1.00  0.00     0.144 C
HETATM    2  C4  UNL     1      38.571   1.606 -17.021  1.00  0.00     0.039 C
HETATM    3  C5  UNL     1      37.152   2.154 -17.131  1.00  0.00     0.003 C
HETATM    4  C6  UNL     1      36.302   1.221 -16.262  1.00  0.00    -0.004 C
HETATM    5  C7  UNL     1      34.949   1.833 -16.200  1.00  0.00     0.008 C
HETATM    6  C8  UNL     1      34.358   1.847 -17.585  1.00  0.00     0.033 C
HETATM    7  C9  UNL     1      35.320   1.593 -18.688  1.00  0.00     0.131 C
HETATM    8  O3  UNL     1      34.696   1.886 -19.892  1.00  0.00    -0.376 OA
HETATM    9  C10 UNL     1      34.499   3.202 -20.158  1.00  0.00     0.144 C
HETATM   10  C17 UNL     1      35.737   4.052 -20.048  1.00  0.00     0.037 C
HETATM   11  C18 UNL     1      36.623   3.716 -18.921  1.00  0.00     0.015 C
HETATM   12  C19 UNL     1      36.659   2.266 -18.525  1.00  0.00    -0.014 C
HETATM   13  C20 UNL     1      37.598   1.577 -19.526  1.00  0.00     0.018 C
HETATM   14  C21 UNL     1      37.010   0.935 -15.041  1.00  0.00     0.004 C
HETATM   15  C22 UNL     1      36.229   0.910 -13.756  1.00  0.00     0.009 C
HETATM   16  C23 UNL     1      37.361   0.703 -12.759  1.00  0.00     0.043 C
HETATM   17  C24 UNL     1      38.668   0.996 -13.464  1.00  0.00     0.086 C
HETATM   18  C31 UNL     1      38.115   1.876 -14.622  1.00  0.00     0.021 C
HETATM   19  C32 UNL     1      37.610   3.116 -13.926  1.00  0.00     0.022 C
ENDROOT
BRANCH   9  20
HETATM   20  C11 UNL     1      34.073   3.293 -21.605  1.00  0.00     0.006 C
BRANCH  20  21
HETATM   21  C12 UNL     1      33.855   2.255 -22.341  1.00  0.00     0.014 C
BRANCH  21  22
HETATM   22  C13 UNL     1      34.921   1.464 -22.902  1.00  0.00     0.018 A
HETATM   23  C14 UNL     1      36.126   1.991 -23.235  1.00  0.00     0.103 A
HETATM   24  N1  UNL     1      37.124   1.209 -23.770  1.00  0.00    -0.361 N
HETATM   25  C15 UNL     1      36.894  -0.097 -23.962  1.00  0.00     0.181 A
ATOM     26  H1  UNL     1      38.026   1.618 -24.016  1.00  0.00     0.166 HD
HETATM   27  N2  UNL     1      35.715  -0.651 -23.644  1.00  0.00    -0.342 N
HETATM   28  C16 UNL     1      34.721   0.094 -23.119  1.00  0.00     0.116 A
ATOM     29  H2  UNL     1      35.569  -1.649 -23.802  1.00  0.00     0.167 HD
HETATM   30 CL1  UNL     1      33.166  -0.567 -22.686  1.00  0.00    -0.064 Cl
ENDBRANCH  21  22
ENDBRANCH  20  21
ENDBRANCH   9  20
BRANCH   1  31
HETATM   31  O2  UNL     1      40.421   1.928 -15.462  1.00  0.00    -0.315 OA
BRANCH  31  32
HETATM   32  C2  UNL     1      41.439   2.849 -15.611  1.00  0.00     0.255 C
HETATM   33  C1  UNL     1      41.243   4.254 -16.000  1.00  0.00     0.126 C
HETATM   34  O1  UNL     1      42.590   2.396 -15.385  1.00  0.00    -0.266 OA
ENDBRANCH  31  32
ENDBRANCH   1  31
BRANCH  17  35
HETATM   35  O4  UNL     1      39.181  -0.160 -13.941  1.00  0.00    -0.385 OA
ATOM     36  H4  UNL     1      38.468  -0.746 -14.162  1.00  0.00     0.211 HD
ENDBRANCH  17  35
BRANCH  17  37
HETATM   37  C25 UNL     1      39.566   1.829 -12.647  1.00  0.00     0.012 C
HETATM   38  C26 UNL     1      40.605   1.521 -12.002  1.00  0.00     0.015 C
BRANCH  38  39
HETATM   39  C27 UNL     1      41.367   0.332 -11.754  1.00  0.00     0.024 A
HETATM   40  C28 UNL     1      41.039  -0.817 -11.103  1.00  0.00     0.041 A
HETATM   41  C29 UNL     1      42.152  -1.666 -11.162  1.00  0.00     0.145 A
HETATM   42  O5  UNL     1      43.070  -1.051 -11.806  1.00  0.00    -0.300 OA
HETATM   43  C30 UNL     1      42.702   0.125 -12.192  1.00  0.00     0.193 A
BRANCH  43  44
HETATM   44  O6  UNL     1      43.468   1.047 -12.916  1.00  0.00    -0.340 OA
ATOM     45  H6  UNL     1      44.415   1.045 -12.977  1.00  0.00     0.220 HD
ENDBRANCH  43  44
ENDBRANCH  38  39
ENDBRANCH  17  37
TORSDOF 9
ENDMDL