MODEL 4
REMARK VINA RESULT: -9.547499093      2.592      4.827
REMARK  6 active torsions:
REMARK  status: ('A' for Active; 'I' for Inactive)
REMARK    1  A    between atoms: C2_2  and  C3_3
REMARK    2  A    between atoms: C6_6  and  O1_7
REMARK    3  A    between atoms: O1_7  and  C7_8
REMARK    4  A    between atoms: C21_26  and  C23_28
REMARK    5  A    between atoms: C24_29  and  C25_30
REMARK    6  A    between atoms: C31_38  and  O7_39
ROOT
HETATM    1  C7  UNL     1      38.622   1.199 -15.347  1.00  0.00     0.269 C
HETATM    2  C8  UNL     1      37.816   0.034 -15.918  1.00  0.00     0.104 C
HETATM    3  C9  UNL     1      37.874   0.422 -17.378  1.00  0.00     0.123 C
HETATM    4  C10 UNL     1      39.237   0.083 -17.891  1.00  0.00     0.052 C
HETATM    5  O2  UNL     1      36.842  -0.137 -18.137  1.00  0.00    -0.224 OA
HETATM    6  O3  UNL     1      36.771   0.572 -19.190  1.00  0.00    -0.198 OA
HETATM    7  C11 UNL     1      35.892   0.307 -20.152  1.00  0.00     0.215 C
HETATM    8  O4  UNL     1      36.691   0.001 -21.323  1.00  0.00    -0.279 OA
HETATM    9  C12 UNL     1      37.144  -1.285 -21.098  1.00  0.00     0.266 C
HETATM   10  O5  UNL     1      38.278  -1.814 -21.227  1.00  0.00    -0.265 OA
HETATM   11  C13 UNL     1      35.935  -2.011 -20.629  1.00  0.00     0.091 C
HETATM   12  C14 UNL     1      35.366  -2.692 -21.843  1.00  0.00     0.021 C
HETATM   13  C15 UNL     1      35.057  -0.907 -20.063  1.00  0.00     0.065 C
HETATM   14  C16 UNL     1      33.707  -0.928 -20.635  1.00  0.00     0.011 C
HETATM   15  C17 UNL     1      33.231   0.280 -21.374  1.00  0.00     0.005 C
HETATM   16  C18 UNL     1      34.355   1.216 -21.706  1.00  0.00    -0.008 C
HETATM   17  C19 UNL     1      33.963   2.293 -22.670  1.00  0.00     0.010 C
HETATM   18  C20 UNL     1      35.179   1.594 -20.544  1.00  0.00     0.067 C
HETATM   19  C21 UNL     1      34.660   2.391 -19.436  1.00  0.00    -0.017 C
HETATM   20  C22 UNL     1      33.780   1.787 -18.411  1.00  0.00     0.020 C
HETATM   21  C27 UNL     1      35.875   2.961 -18.674  1.00  0.00     0.016 C
HETATM   22  C28 UNL     1      36.178   2.287 -17.392  1.00  0.00     0.036 C
HETATM   23  C29 UNL     1      37.671   1.940 -17.252  1.00  0.00     0.162 C
HETATM   24  O6  UNL     1      38.146   2.291 -16.019  1.00  0.00    -0.352 OA
ENDROOT
BRANCH   1  25
HETATM   25  O1  UNL     1      38.481   1.272 -13.945  1.00  0.00    -0.325 OA
BRANCH  25  26
HETATM   26  C6  UNL     1      39.381   0.580 -13.145  1.00  0.00     0.049 C
HETATM   27  C5  UNL     1      40.645   0.420 -13.411  1.00  0.00     0.019 C
HETATM   28  C3  UNL     1      41.618  -0.301 -12.593  1.00  0.00    -0.005 C
HETATM   29  C4  UNL     1      41.973  -1.621 -13.283  1.00  0.00     0.024 C
HETATM   30  C32 UNL     1      41.114  -0.654 -11.225  1.00  0.00     0.049 C
HETATM   31  C31 UNL     1      39.953   0.213 -10.835  1.00  0.00     0.125 C
HETATM   32  C30 UNL     1      38.851  -0.032 -11.875  1.00  0.00     0.096 C
BRANCH  28  33
HETATM   33  C2  UNL     1      42.860   0.493 -12.442  1.00  0.00    -0.024 C
HETATM   34  C1  UNL     1      43.603   0.406 -11.353  1.00  0.00     0.008 C
ENDBRANCH  28  33
BRANCH  31  35
HETATM   35  O7  UNL     1      39.509  -0.055  -9.562  1.00  0.00    -0.395 OA
ATOM     36  H7  UNL     1      40.146   0.212  -8.909  1.00  0.00     0.210 HD
ENDBRANCH  31  35
ENDBRANCH  25  26
ENDBRANCH   1  25
BRANCH  19  37
HETATM   37  C23 UNL     1      33.882   3.537 -19.990  1.00  0.00    -0.015 C
HETATM   38  C24 UNL     1      33.824   4.743 -19.459  1.00  0.00     0.019 C
BRANCH  38  39
HETATM   39  C25 UNL     1      33.044   5.825 -20.050  1.00  0.00     0.024 C
HETATM   40  C26 UNL     1      32.534   6.789 -19.326  1.00  0.00     0.037 C
HETATM   41 CL1  UNL     1      32.781   5.836 -21.776  1.00  0.00    -0.085 Cl
ENDBRANCH  38  39
ENDBRANCH  19  37
TORSDOF 6
ENDMDL