MODEL 5
REMARK VINA RESULT: -10.749353269      1.418      2.223
REMARK  6 active torsions:
REMARK  status: ('A' for Active; 'I' for Inactive)
REMARK    1  A    between atoms: C6_7  and  N1_8
REMARK    2  A    between atoms: N1_8  and  C7_10
REMARK    3  A    between atoms: C14_21  and  C15_22
REMARK    4  A    between atoms: C15_22  and  N4_23
REMARK    5  A    between atoms: N5_26  and  C18_27
REMARK    6  A    between atoms: C18_27  and  N6_28
ROOT
HETATM    1 CL1  UNL     1      31.604   7.973 -23.151  1.00  0.00    -0.076 Cl
HETATM    2  C1  UNL     1      32.348   7.056 -21.842  1.00  0.00     0.076 A
HETATM    3  C2  UNL     1      32.877   5.799 -21.878  1.00  0.00     0.044 A
HETATM    4  C3  UNL     1      33.392   5.319 -20.725  1.00  0.00    -0.016 A
HETATM    5  C4  UNL     1      33.987   4.062 -20.521  1.00  0.00     0.029 A
HETATM    6  C5  UNL     1      34.475   3.692 -19.288  1.00  0.00     0.019 A
HETATM    7  C6  UNL     1      35.060   2.407 -19.163  1.00  0.00     0.058 A
HETATM    8  C14 UNL     1      35.534   2.087 -17.907  1.00  0.00     0.022 A
HETATM    9  C27 UNL     1      35.432   2.981 -16.853  1.00  0.00     0.103 A
HETATM   10  N9  UNL     1      34.868   4.191 -17.018  1.00  0.00    -0.364 N
ATOM     11  H9  UNL     1      34.800   4.839 -16.233  1.00  0.00     0.165 HD
HETATM   12  C28 UNL     1      34.405   4.530 -18.202  1.00  0.00     0.045 A
HETATM   13  C29 UNL     1      33.826   5.772 -18.374  1.00  0.00     0.050 A
HETATM   14  C30 UNL     1      33.339   6.125 -19.628  1.00  0.00     0.019 A
HETATM   15  S1  UNL     1      32.577   7.531 -20.221  1.00  0.00    -0.077 SA
ENDROOT
BRANCH   8  16
HETATM   16  C15 UNL     1      36.198   0.786 -17.689  1.00  0.00     0.100 C
BRANCH  16  17
HETATM   17  N4  UNL     1      37.503   0.752 -17.232  1.00  0.00    -0.386 N
HETATM   18  C16 UNL     1      38.623   0.746 -18.063  1.00  0.00     0.152 C
HETATM   19  C17 UNL     1      39.865   1.319 -17.370  1.00  0.00     0.294 C
HETATM   20  N5  UNL     1      40.139   0.683 -16.110  1.00  0.00     0.109 N
HETATM   21  C25 UNL     1      39.184  -0.334 -15.849  1.00  0.00     0.294 C
HETATM   22  C26 UNL     1      37.732   0.122 -15.973  1.00  0.00     0.152 C
BRANCH  20  23
HETATM   23  C18 UNL     1      40.305   1.679 -15.105  1.00  0.00     0.403 C
BRANCH  23  24
HETATM   24  N6  UNL     1      40.584   1.167 -13.796  1.00  0.00    -0.314 N
HETATM   25  C19 UNL     1      41.769   0.693 -13.394  1.00  0.00     0.185 A
HETATM   26  N7  UNL     1      41.640   0.309 -12.119  1.00  0.00    -0.349 N
HETATM   27  C20 UNL     1      40.395   0.540 -11.735  1.00  0.00     0.075 A
ATOM     28  H7  UNL     1      42.377  -0.095 -11.542  1.00  0.00     0.166 HD
HETATM   29  C21 UNL     1      39.701   0.346 -10.540  1.00  0.00     0.119 A
HETATM   30  C24 UNL     1      39.704   1.089 -12.791  1.00  0.00     0.066 A
HETATM   31  N8  UNL     1      38.404   0.679 -10.419  1.00  0.00    -0.373 N
HETATM   32  C22 UNL     1      37.697   1.217 -11.428  1.00  0.00     0.090 A
ATOM     33  H8  UNL     1      37.938   0.516  -9.526  1.00  0.00     0.164 HD
HETATM   34  C23 UNL     1      38.371   1.415 -12.616  1.00  0.00     0.049 A
ENDBRANCH  23  24
ENDBRANCH  20  23
ENDBRANCH  16  17
ENDBRANCH   8  16
BRANCH   7  35
HETATM   35  N1  UNL     1      35.088   1.711 -20.163  1.00  0.00    -0.355 N
ATOM     36  H1  UNL     1      35.797   2.142 -20.756  1.00  0.00     0.166 HD
BRANCH  35  37
HETATM   37  C7  UNL     1      34.653   0.667 -20.869  1.00  0.00     0.034 A
HETATM   38  C8  UNL     1      33.662   0.851 -21.847  1.00  0.00     0.032 A
HETATM   39  C9  UNL     1      33.139  -0.140 -22.606  1.00  0.00     0.034 A
HETATM   40  C10 UNL     1      33.596  -1.448 -22.430  1.00  0.00     0.060 A
HETATM   41  N2  UNL     1      33.269  -2.606 -23.029  1.00  0.00    -0.351 N
HETATM   42  C12 UNL     1      34.567  -1.690 -21.488  1.00  0.00     0.062 A
HETATM   43  C11 UNL     1      34.018  -3.571 -22.476  1.00  0.00     0.181 A
ATOM     44  H2  UNL     1      32.577  -2.729 -23.769  1.00  0.00     0.166 HD
HETATM   45  N3  UNL     1      34.809  -3.026 -21.540  1.00  0.00    -0.350 N
ATOM     46  H3  UNL     1      35.482  -3.532 -20.962  1.00  0.00     0.166 HD
HETATM   47  C13 UNL     1      35.079  -0.664 -20.731  1.00  0.00     0.061 A
ENDBRANCH  35  37
ENDBRANCH   7  35
TORSDOF 6
ENDMDL