MODEL 1
REMARK VINA RESULT: -8.435613587      0.000      0.000
REMARK  6 active torsions:
REMARK  status: ('A' for Active; 'I' for Inactive)
REMARK    1  A    between atoms: N1_2  and  C3_4
REMARK    2  A    between atoms: C10_16  and  N4_17
REMARK    3  A    between atoms: N4_17  and  C11_19
REMARK    4  A    between atoms: N5_29  and  C18_30
REMARK    5  A    between atoms: C18_30  and  C19_31
REMARK       I    between atoms: C19_31  and  N6_33
REMARK    6  A    between atoms: N6_33  and  C20_35
ROOT
HETATM    1  C11 UNL     1      36.233   2.080 -16.249  1.00  0.00     0.058 A
HETATM    2  C12 UNL     1      37.284   2.766 -16.772  1.00  0.00     0.062 A
HETATM    3  C13 UNL     1      38.575   2.710 -16.183  1.00  0.00     0.056 A
HETATM    4  C14 UNL     1      38.665   1.922 -15.070  1.00  0.00     0.036 A
HETATM    5  C15 UNL     1      37.566   1.218 -14.543  1.00  0.00     0.047 A
HETATM    6  C16 UNL     1      36.323   1.286 -15.128  1.00  0.00     0.062 A
HETATM    7 CL1  UNL     1      35.018   0.397 -14.432  1.00  0.00    -0.082 Cl
HETATM    8  S2  UNL     1      40.311   2.071 -14.643  1.00  0.00    -0.058 SA
HETATM    9  C17 UNL     1      40.795   3.118 -15.892  1.00  0.00     0.146 A
HETATM   10  S3  UNL     1      42.302   3.746 -16.189  1.00  0.00    -0.052 SA
HETATM   11  N5  UNL     1      39.680   3.315 -16.589  1.00  0.00    -0.322 N
ENDROOT
BRANCH   1  12
HETATM   12  N4  UNL     1      34.965   2.155 -16.868  1.00  0.00    -0.340 N
ATOM     13  H4  UNL     1      34.288   2.802 -16.463  1.00  0.00     0.167 HD
BRANCH  12  14
HETATM   14  C10 UNL     1      34.588   1.480 -17.896  1.00  0.00     0.120 A
HETATM   15  N3  UNL     1      34.568   0.137 -17.822  1.00  0.00    -0.338 N
HETATM   16  C9  UNL     1      34.230  -0.688 -18.797  1.00  0.00     0.182 A
ATOM     17  H3  UNL     1      34.838  -0.283 -16.932  1.00  0.00     0.168 HD
HETATM   18  N2  UNL     1      33.879  -0.112 -19.961  1.00  0.00    -0.346 N
HETATM   19  C8  UNL     1      33.875   1.256 -20.109  1.00  0.00     0.090 A
ATOM     20  H2  UNL     1      33.610  -0.702 -20.749  1.00  0.00     0.167 HD
HETATM   21  S1  UNL     1      33.510   2.285 -21.415  1.00  0.00    -0.075 SA
HETATM   22  C26 UNL     1      34.222   2.122 -19.104  1.00  0.00     0.049 A
HETATM   23  C7  UNL     1      33.797   3.790 -20.681  1.00  0.00    -0.006 A
HETATM   24  C6  UNL     1      34.177   3.457 -19.411  1.00  0.00    -0.028 A
HETATM   25  C27 UNL     1      33.705   5.181 -21.226  1.00  0.00     0.071 C
HETATM   26  C5  UNL     1      34.486   4.615 -18.461  1.00  0.00     0.043 C
HETATM   27  C4  UNL     1      33.585   5.758 -18.891  1.00  0.00     0.030 C
HETATM   28  C3  UNL     1      34.145   6.195 -20.240  1.00  0.00     0.083 C
BRANCH  28  29
HETATM   29  N1  UNL     1      33.725   7.526 -20.508  1.00  0.00    -0.416 N
HETATM   30  C1  UNL     1      34.583   8.566 -20.056  1.00  0.00     0.143 C
HETATM   31  C2  UNL     1      33.111   7.751 -21.777  1.00  0.00     0.143 C
ENDBRANCH  28  29
ENDBRANCH  12  14
ENDBRANCH   1  12
BRANCH  11  32
HETATM   32  C18 UNL     1      39.723   4.207 -17.787  1.00  0.00     0.233 C
BRANCH  32  33
HETATM   33  C19 UNL     1      39.844   3.416 -19.032  1.00  0.00     0.236 C
HETATM   34  O1  UNL     1      40.958   2.992 -19.456  1.00  0.00    -0.272 OA
HETATM   35  N6  UNL     1      38.714   3.090 -19.824  1.00  0.00    -0.355 N
ATOM     36  H6  UNL     1      37.796   3.417 -19.523  1.00  0.00     0.162 HD
BRANCH  35  37
HETATM   37  C20 UNL     1      38.807   2.302 -21.061  1.00  0.00     0.084 C
HETATM   38  C21 UNL     1      37.577   2.496 -21.920  1.00  0.00     0.025 C
HETATM   39  C22 UNL     1      37.173   1.270 -22.681  1.00  0.00     0.002 C
HETATM   40  C23 UNL     1      36.923   0.083 -21.773  1.00  0.00     0.000 C
HETATM   41  C24 UNL     1      37.461   0.385 -20.385  1.00  0.00     0.002 C
HETATM   42  C25 UNL     1      38.894   0.850 -20.588  1.00  0.00     0.025 C
ENDBRANCH  35  37
ENDBRANCH  32  33
ENDBRANCH  11  32
TORSDOF 6
ENDMDL