MODEL 1
REMARK VINA RESULT: -8.852280831      0.000      0.000
REMARK  7 active torsions:
REMARK  status: ('A' for Active; 'I' for Inactive)
REMARK    1  A    between atoms: O1_2  and  C2_3
REMARK    2  A    between atoms: C2_3  and  C3_5
REMARK    3  A    between atoms: C5_7  and  O3_8
REMARK    4  A    between atoms: O3_8  and  C6_9
REMARK    5  A    between atoms: C6_9  and  C10_14
REMARK    6  A    between atoms: C12_17  and  O5_18
REMARK    7  A    between atoms: C13_20  and  C14_21
ROOT
HETATM    1  C6  UNL     1      35.906  -0.960 -21.303  1.00  0.00     0.101 C
HETATM    2  C7  UNL     1      34.657  -1.343 -21.434  1.00  0.00     0.053 C
HETATM    3  C8  UNL     1      33.857  -1.602 -20.190  1.00  0.00     0.063 C
HETATM    4  C9  UNL     1      34.034  -1.543 -22.692  1.00  0.00     0.097 C
HETATM    5  N1  UNL     1      33.507  -1.728 -23.718  1.00  0.00    -0.192 NA
ENDROOT
BRANCH   1   6
HETATM    6  O3  UNL     1      36.454  -0.805 -20.015  1.00  0.00    -0.318 OA
BRANCH   6   7
HETATM    7  C5  UNL     1      36.771   0.408 -19.426  1.00  0.00     0.267 C
HETATM    8  C4  UNL     1      37.141   0.215 -17.973  1.00  0.00     0.076 C
HETATM    9  C3  UNL     1      37.332   1.625 -17.417  1.00  0.00     0.101 C
HETATM   10  C28 UNL     1      35.955   2.270 -17.329  1.00  0.00    -0.005 C
HETATM   11  C15 UNL     1      35.143   1.715 -18.461  1.00  0.00     0.134 C
HETATM   12  C27 UNL     1      36.144   3.764 -17.419  1.00  0.00     0.015 C
HETATM   13  C29 UNL     1      35.363   1.918 -15.998  1.00  0.00     0.019 C
HETATM   14  O6  UNL     1      35.848   1.414 -19.595  1.00  0.00    -0.355 OA
HETATM   15  C16 UNL     1      33.906   2.525 -18.790  1.00  0.00     0.040 C
HETATM   16  C17 UNL     1      34.246   3.826 -19.530  1.00  0.00     0.020 C
HETATM   17  C18 UNL     1      33.424   3.834 -20.750  1.00  0.00     0.008 C
HETATM   18  C25 UNL     1      34.298   4.975 -18.618  1.00  0.00     0.164 C
HETATM   19  C19 UNL     1      33.599   4.850 -21.797  1.00  0.00     0.006 C
HETATM   20  C20 UNL     1      33.823   6.231 -21.418  1.00  0.00    -0.002 C
HETATM   21  C21 UNL     1      33.264   7.429 -22.088  1.00  0.00     0.014 C
HETATM   22  C30 UNL     1      32.830   6.602 -20.361  1.00  0.00     0.001 A
HETATM   23  C22 UNL     1      32.883   7.998 -20.694  1.00  0.00     0.036 A
HETATM   24  C23 UNL     1      33.476   7.541 -19.462  1.00  0.00     0.105 A
HETATM   25  C24 UNL     1      34.798   8.179 -19.397  1.00  0.00     0.050 C
HETATM   26  O7  UNL     1      33.125   6.931 -18.298  1.00  0.00    -0.228 OA
HETATM   27  O8  UNL     1      33.191   5.640 -18.267  1.00  0.00    -0.234 OA
HETATM   28  C31 UNL     1      31.456   6.118 -20.307  1.00  0.00     0.019 C
HETATM   29  C26 UNL     1      34.850   4.456 -17.262  1.00  0.00     0.036 C
BRANCH   9  30
HETATM   30  C2  UNL     1      38.068   1.578 -16.161  1.00  0.00     0.263 C
HETATM   31  O2  UNL     1      38.108   0.466 -15.524  1.00  0.00    -0.265 OA
BRANCH  30  32
HETATM   32  O1  UNL     1      38.748   2.616 -15.552  1.00  0.00    -0.326 OA
HETATM   33  C1  UNL     1      38.269   3.227 -14.348  1.00  0.00     0.213 C
ENDBRANCH  30  32
ENDBRANCH   9  30
ENDBRANCH   6   7
ENDBRANCH   1   6
BRANCH   1  34
HETATM   34  C10 UNL     1      36.697  -0.702 -22.513  1.00  0.00     0.033 A
HETATM   35  C11 UNL     1      37.609  -1.517 -23.137  1.00  0.00     0.159 A
HETATM   36  O4  UNL     1      38.104  -0.865 -24.183  1.00  0.00    -0.299 OA
HETATM   37  C12 UNL     1      37.576   0.312 -24.275  1.00  0.00     0.191 A
HETATM   38  C13 UNL     1      36.679   0.477 -23.252  1.00  0.00     0.029 A
BRANCH  37  39
HETATM   39  O5  UNL     1      37.896   1.245 -25.282  1.00  0.00    -0.340 OA
ATOM     40  H5  UNL     1      38.565   1.914 -25.195  1.00  0.00     0.220 HD
ENDBRANCH  37  39
BRANCH  38  41
HETATM   41  C14 UNL     1      35.866   1.676 -23.000  1.00  0.00     0.159 C
HETATM   42 CL1  UNL     1      36.910   3.007 -22.438  1.00  0.00    -0.125 Cl
ENDBRANCH  38  41
ENDBRANCH   1  34
TORSDOF 7
ENDMDL