MODEL 5
REMARK VINA RESULT: -8.682631386      1.331      2.289
REMARK  6 active torsions:
REMARK  status: ('A' for Active; 'I' for Inactive)
REMARK    1  A    between atoms: C2_2  and  N1_3
REMARK    2  A    between atoms: N1_3  and  C3_4
REMARK    3  A    between atoms: N1_3  and  C5_6
REMARK    4  A    between atoms: C5_6  and  C6_7
REMARK    5  A    between atoms: C6_7  and  N2_8
REMARK    6  A    between atoms: C20_27  and  N5_28
ROOT
HETATM    1  N2  UNL     1     -21.289  -6.746  23.299  1.00  0.00    -0.306 N
HETATM    2  C7  UNL     1     -22.144  -7.844  23.834  1.00  0.00     0.133 C
HETATM    3  C8  UNL     1     -21.374  -8.795  24.678  1.00  0.00     0.021 C
HETATM    4  C9  UNL     1     -22.307  -9.845  25.268  1.00  0.00     0.005 C
HETATM    5  C10 UNL     1     -23.164  -9.325  26.369  1.00  0.00     0.027 C
HETATM    6  C11 UNL     1     -22.966 -10.118  27.622  1.00  0.00    -0.031 C
HETATM    7  C12 UNL     1     -23.836 -10.231  28.591  1.00  0.00    -0.031 C
HETATM    8  C13 UNL     1     -25.174  -9.580  28.595  1.00  0.00     0.027 C
HETATM    9  C14 UNL     1     -25.105  -8.094  28.361  1.00  0.00     0.006 C
HETATM   10  C15 UNL     1     -25.969  -7.300  29.308  1.00  0.00     0.027 C
HETATM   11  C16 UNL     1     -26.235  -5.947  28.611  1.00  0.00     0.176 C
HETATM   12  O1  UNL     1     -26.541  -5.074  29.639  1.00  0.00    -0.345 OA
HETATM   13  C17 UNL     1     -27.475  -4.116  29.840  1.00  0.00     0.142 A
HETATM   14  C18 UNL     1     -27.701  -3.005  29.050  1.00  0.00     0.105 A
HETATM   15  N3  UNL     1     -28.696  -2.114  29.391  1.00  0.00    -0.348 N
ATOM     16  H3  UNL     1     -28.847  -1.300  28.794  1.00  0.00     0.167 HD
HETATM   17  C19 UNL     1     -29.472  -2.267  30.467  1.00  0.00     0.182 A
HETATM   18  N4  UNL     1     -29.253  -3.339  31.228  1.00  0.00    -0.337 N
ATOM     19  H4  UNL     1     -29.838  -3.471  32.054  1.00  0.00     0.168 HD
HETATM   20  C20 UNL     1     -28.307  -4.254  30.969  1.00  0.00     0.136 A
HETATM   21  C21 UNL     1     -26.970  -2.615  27.857  1.00  0.00     0.109 C
HETATM   22  C22 UNL     1     -26.781  -1.276  27.990  1.00  0.00     0.041 C
HETATM   23  C23 UNL     1     -26.145  -0.227  27.209  1.00  0.00     0.026 C
HETATM   24  C24 UNL     1     -25.202  -0.244  26.244  1.00  0.00     0.034 C
HETATM   25 CL1  UNL     1     -24.812   1.349  25.652  1.00  0.00    -0.084 Cl
HETATM   26  C25 UNL     1     -24.465  -1.354  25.625  1.00  0.00     0.037 C
HETATM   27  C26 UNL     1     -24.727  -2.683  25.338  1.00  0.00     0.021 C
HETATM   28  C27 UNL     1     -23.427  -3.012  24.727  1.00  0.00     0.072 C
HETATM   29  C28 UNL     1     -22.896  -4.402  24.901  1.00  0.00     0.185 C
HETATM   30  O2  UNL     1     -22.965  -5.017  23.635  1.00  0.00    -0.303 OA
HETATM   31  C29 UNL     1     -21.927  -5.559  22.891  1.00  0.00     0.366 C
HETATM   32  O3  UNL     1     -21.514  -5.021  21.829  1.00  0.00    -0.238 OA
HETATM   33  C30 UNL     1     -25.922  -3.421  25.609  1.00  0.00     0.294 C
HETATM   34  O4  UNL     1     -26.572  -4.106  24.773  1.00  0.00    -0.259 OA
HETATM   35  O5  UNL     1     -26.608  -3.523  26.866  1.00  0.00    -0.273 OA
ENDROOT
BRANCH   1  36
HETATM   36  C6  UNL     1     -19.910  -7.010  23.244  1.00  0.00     0.099 C
BRANCH  36  37
HETATM   37  C5  UNL     1     -18.982  -6.161  24.035  1.00  0.00     0.317 C
BRANCH  37  38
HETATM   38  N1  UNL     1     -18.754  -6.588  25.402  1.00  0.00     0.092 N
BRANCH  38  39
HETATM   39  C2  UNL     1     -19.454  -5.663  26.287  1.00  0.00     0.268 C
HETATM   40  C1  UNL     1     -20.516  -6.257  27.124  1.00  0.00     0.037 C
ENDBRANCH  38  39
BRANCH  38  41
HETATM   41  C3  UNL     1     -17.309  -6.403  25.680  1.00  0.00     0.268 C
HETATM   42  C4  UNL     1     -16.870  -7.222  26.869  1.00  0.00     0.037 C
ENDBRANCH  38  41
ENDBRANCH  37  38
ENDBRANCH  36  37
ENDBRANCH   1  36
BRANCH  20  43
HETATM   43  N5  UNL     1     -28.226  -5.219  31.820  1.00  0.00    -0.383 N
ATOM     44  H52 UNL     1     -29.058  -5.369  32.389  1.00  0.00     0.157 HD
ATOM     45  H51 UNL     1     -27.401  -5.805  31.949  1.00  0.00     0.157 HD
ENDBRANCH  20  43
TORSDOF 6
ENDMDL