MODEL 2
REMARK VINA RESULT: -8.815540298      3.300      8.194
REMARK  6 active torsions:
REMARK  status: ('A' for Active; 'I' for Inactive)
REMARK    1  A    between atoms: C8_10  and  N1_11
REMARK       I    between atoms: N1_11  and  C9_13
REMARK    2  A    between atoms: C9_13  and  C10_15
REMARK    3  A    between atoms: C16_21  and  C17_22
REMARK    4  A    between atoms: C23_33  and  O4_34
REMARK    5  A    between atoms: O4_34  and  C24_35
REMARK    6  A    between atoms: C30_41  and  O5_42
ROOT
HETATM    1  C1  UNL     1     -19.674  -9.090  22.142  1.00  0.00     0.010 C
HETATM    2  C2  UNL     1     -20.548  -7.897  21.820  1.00  0.00    -0.014 C
HETATM    3  C3  UNL     1     -22.023  -8.293  21.808  1.00  0.00     0.023 C
HETATM    4  C4  UNL     1     -22.517  -7.755  23.159  1.00  0.00     0.092 C
HETATM    5  S1  UNL     1     -21.966  -8.940  24.410  1.00  0.00    -0.121 SA
HETATM    6  C5  UNL     1     -23.051  -8.733  25.844  1.00  0.00     0.021 A
HETATM    7  C6  UNL     1     -22.965  -9.869  26.579  1.00  0.00     0.064 A
HETATM    8  C7  UNL     1     -23.691  -9.945  27.724  1.00  0.00     0.145 A
HETATM    9  F1  UNL     1     -23.581 -11.111  28.444  1.00  0.00    -0.204 F
HETATM   10  C8  UNL     1     -24.473  -8.920  28.117  1.00  0.00     0.086 A
HETATM   11  C16 UNL     1     -24.616  -7.693  27.401  1.00  0.00     0.024 A
HETATM   12  C21 UNL     1     -23.864  -7.667  26.251  1.00  0.00     0.070 A
HETATM   13  C22 UNL     1     -24.132  -6.374  25.640  1.00  0.00     0.298 C
HETATM   14  O2  UNL     1     -25.289  -6.027  25.799  1.00  0.00    -0.259 OA
HETATM   15  O3  UNL     1     -23.266  -5.524  24.927  1.00  0.00    -0.282 OA
HETATM   16  C23 UNL     1     -21.941  -5.620  24.401  1.00  0.00     0.305 C
HETATM   17  C30 UNL     1     -21.819  -6.433  23.194  1.00  0.00     0.121 C
HETATM   18  C31 UNL     1     -20.412  -6.790  22.853  1.00  0.00     0.048 C
ENDROOT
BRANCH  10  19
HETATM   19  N1  UNL     1     -25.199  -9.084  29.327  1.00  0.00    -0.323 N
HETATM   20  C9  UNL     1     -24.599  -8.819  30.587  1.00  0.00     0.226 C
HETATM   21  O1  UNL     1     -23.386  -8.419  30.664  1.00  0.00    -0.273 OA
ATOM     22  H1  UNL     1     -26.168  -9.398  29.291  1.00  0.00     0.169 HD
BRANCH  20  23
HETATM   23  C10 UNL     1     -25.323  -8.983  31.866  1.00  0.00     0.078 C
HETATM   24  C11 UNL     1     -25.110  -7.785  32.780  1.00  0.00     0.014 C
HETATM   25  C12 UNL     1     -26.013  -7.989  33.979  1.00  0.00     0.001 C
HETATM   26  C13 UNL     1     -25.519  -9.182  34.759  1.00  0.00     0.000 C
HETATM   27  C14 UNL     1     -25.643 -10.398  33.863  1.00  0.00     0.001 C
HETATM   28  C15 UNL     1     -24.870 -10.248  32.589  1.00  0.00     0.014 C
ENDBRANCH  20  23
ENDBRANCH  10  19
BRANCH  11  29
HETATM   29  C17 UNL     1     -25.427  -6.664  27.956  1.00  0.00     0.011 A
HETATM   30  C18 UNL     1     -26.764  -6.503  27.900  1.00  0.00     0.121 A
HETATM   31  N2  UNL     1     -27.110  -5.428  28.637  1.00  0.00    -0.310 N
HETATM   32  N3  UNL     1     -26.019  -4.895  29.165  1.00  0.00    -0.307 N
ATOM     33  H2  UNL     1     -28.061  -5.082  28.766  1.00  0.00     0.186 HD
HETATM   34  C19 UNL     1     -25.970  -3.726  30.020  1.00  0.00     0.177 C
HETATM   35  C20 UNL     1     -24.983  -5.649  28.750  1.00  0.00     0.123 A
ENDBRANCH  11  29
BRANCH  16  36
HETATM   36  O4  UNL     1     -21.585  -4.301  24.128  1.00  0.00    -0.352 OA
BRANCH  36  37
HETATM   37  C24 UNL     1     -20.404  -3.894  24.699  1.00  0.00     0.124 C
HETATM   38  C25 UNL     1     -20.244  -2.409  24.496  1.00  0.00     0.032 C
HETATM   39  C26 UNL     1     -21.626  -1.807  24.719  1.00  0.00     0.002 C
HETATM   40  C27 UNL     1     -22.208  -2.267  26.039  1.00  0.00     0.000 C
HETATM   41  C28 UNL     1     -21.119  -2.906  26.886  1.00  0.00     0.002 C
HETATM   42  C29 UNL     1     -20.587  -4.153  26.217  1.00  0.00     0.032 C
ENDBRANCH  36  37
ENDBRANCH  16  36
BRANCH  17  43
HETATM   43  O5  UNL     1     -22.348  -5.702  22.106  1.00  0.00    -0.384 OA
ATOM     44  H5  UNL     1     -22.537  -4.838  22.453  1.00  0.00     0.210 HD
ENDBRANCH  17  43
TORSDOF 6
ENDMDL