MODEL 3
REMARK VINA RESULT: -9.580240637      2.593      3.299
REMARK  6 active torsions:
REMARK  status: ('A' for Active; 'I' for Inactive)
REMARK    1  A    between atoms: N1_1  and  C1_4
REMARK    2  A    between atoms: C2_10  and  C3_11
REMARK    3  A    between atoms: C4_14  and  C5_15
REMARK    4  A    between atoms: C8_18  and  C9_19
REMARK    5  A    between atoms: C19_34  and  C20_35
REMARK    6  A    between atoms: N7_40  and  C24_41
ROOT
HETATM    1  C3  UNL     1     -21.645  -8.490  24.331  1.00  0.00     0.146 A
HETATM    2  N4  UNL     1     -22.126  -8.992  25.480  1.00  0.00    -0.337 N
ATOM      3  H4  UNL     1     -22.286  -9.984  25.655  1.00  0.00     0.167 HD
HETATM    4  C4  UNL     1     -22.370  -8.004  26.375  1.00  0.00     0.074 A
HETATM    5  C19 UNL     1     -22.021  -6.820  25.746  1.00  0.00     0.103 A
HETATM    6  N7  UNL     1     -21.587  -7.137  24.516  1.00  0.00    -0.291 N
ENDROOT
BRANCH   4   7
HETATM    7  C5  UNL     1     -22.892  -8.134  27.727  1.00  0.00    -0.007 A
HETATM    8  C6  UNL     1     -24.203  -8.530  27.881  1.00  0.00     0.014 A
HETATM    9  C7  UNL     1     -24.763  -8.675  29.122  1.00  0.00     0.016 A
HETATM   10  C8  UNL     1     -24.029  -8.429  30.243  1.00  0.00     0.008 A
HETATM   11  C17 UNL     1     -22.707  -8.030  30.086  1.00  0.00     0.016 A
HETATM   12  C18 UNL     1     -22.135  -7.881  28.847  1.00  0.00     0.014 A
BRANCH  10  13
HETATM   13  C9  UNL     1     -24.576  -8.567  31.614  1.00  0.00     0.118 A
HETATM   14  N5  UNL     1     -25.375  -7.601  32.112  1.00  0.00    -0.308 N
HETATM   15  C10 UNL     1     -25.906  -7.662  33.349  1.00  0.00     0.259 A
ATOM     16  H5  UNL     1     -25.587  -6.791  31.529  1.00  0.00     0.170 HD
HETATM   17  O2  UNL     1     -26.647  -6.772  33.819  1.00  0.00    -0.267 OA
HETATM   18  C11 UNL     1     -25.634  -8.750  34.162  1.00  0.00     0.059 A
HETATM   19  C12 UNL     1     -26.155  -8.857  35.437  1.00  0.00     0.019 A
HETATM   20  C16 UNL     1     -24.819  -9.735  33.652  1.00  0.00     0.049 A
HETATM   21  C13 UNL     1     -25.885  -9.944  36.249  1.00  0.00     0.001 A
HETATM   22  C14 UNL     1     -25.067 -10.930  35.737  1.00  0.00     0.002 A
HETATM   23  C15 UNL     1     -24.539 -10.826  34.449  1.00  0.00     0.030 A
HETATM   24  N6  UNL     1     -24.311  -9.620  32.394  1.00  0.00    -0.341 N
ATOM     25  H6  UNL     1     -23.709 -10.362  32.034  1.00  0.00     0.167 HD
ENDBRANCH  10  13
ENDBRANCH   4   7
BRANCH   5  26
HETATM   26  C20 UNL     1     -22.113  -5.480  26.321  1.00  0.00     0.104 A
HETATM   27  C21 UNL     1     -23.198  -4.618  26.320  1.00  0.00     0.041 A
HETATM   28  C22 UNL     1     -22.848  -3.455  26.974  1.00  0.00     0.027 A
HETATM   29  C23 UNL     1     -21.539  -3.652  27.356  1.00  0.00     0.142 A
HETATM   30  O3  UNL     1     -21.159  -4.839  26.954  1.00  0.00    -0.320 OA
ENDBRANCH   5  26
BRANCH   1  31
HETATM   31  C2  UNL     1     -21.245  -9.150  23.101  1.00  0.00     0.146 A
HETATM   32  C1  UNL     1     -22.045  -9.584  22.082  1.00  0.00     0.154 A
HETATM   33  N2  UNL     1     -21.230 -10.142  21.142  1.00  0.00    -0.224 N
HETATM   34  O1  UNL     1     -19.999 -10.052  21.567  1.00  0.00    -0.155 OA
ATOM     35  H2  UNL     1     -21.531 -10.557  20.260  1.00  0.00     0.198 HD
HETATM   36  N3  UNL     1     -19.973  -9.468  22.727  1.00  0.00    -0.234 N
ATOM     37  H3  UNL     1     -19.133  -9.278  23.273  1.00  0.00     0.197 HD
BRANCH  32  38
HETATM   38  N1  UNL     1     -23.316  -9.503  21.989  1.00  0.00    -0.382 N
ATOM     39  H12 UNL     1     -23.893  -8.662  21.966  1.00  0.00     0.157 HD
ATOM     40  H11 UNL     1     -23.947 -10.302  21.922  1.00  0.00     0.157 HD
ENDBRANCH  32  38
ENDBRANCH   1  31
BRANCH   6  41
HETATM   41  C24 UNL     1     -21.139  -6.186  23.563  1.00  0.00     0.041 A
HETATM   42  C25 UNL     1     -19.824  -5.744  23.565  1.00  0.00     0.031 A
HETATM   43  C26 UNL     1     -19.397  -4.815  22.628  1.00  0.00     0.021 A
HETATM   44  C27 UNL     1     -20.270  -4.318  21.684  1.00  0.00     0.011 A
HETATM   45 BR1  UNL     1     -19.667  -3.042  20.405  1.00  0.00    -0.051 Br
HETATM   46  C28 UNL     1     -21.582  -4.739  21.659  1.00  0.00     0.021 A
HETATM   47  C29 UNL     1     -21.971  -5.655  22.594  1.00  0.00     0.031 A
ENDBRANCH   6  41
TORSDOF 6
ENDMDL