MODEL 1
REMARK VINA RESULT: -7.185804415      0.000      0.000
REMARK  8 active torsions:
REMARK  status: ('A' for Active; 'I' for Inactive)
REMARK    1  A    between atoms: O1_2  and  C2_3
REMARK    2  A    between atoms: C3_4  and  O2_5
REMARK    3  A    between atoms: C6_9  and  O3_10
REMARK    4  A    between atoms: C8_12  and  O4_13
REMARK    5  A    between atoms: C10_15  and  O5_16
REMARK    6  A    between atoms: C11_20  and  C12_21
REMARK    7  A    between atoms: C19_31  and  O8_32
REMARK    8  A    between atoms: C24_37  and  O9_38
ROOT
HETATM    1  C2  UNL     1     -21.934  -3.016  30.361  1.00  0.00     0.138 A
HETATM    2  C3  UNL     1     -21.207  -3.997  29.733  1.00  0.00     0.113 A
HETATM    3  C4  UNL     1     -21.735  -4.892  28.778  1.00  0.00     0.018 A
HETATM    4  C5  UNL     1     -23.070  -4.744  28.486  1.00  0.00     0.064 A
HETATM    5  C6  UNL     1     -23.811  -3.727  29.140  1.00  0.00     0.119 A
HETATM    6  C8  UNL     1     -23.255  -2.869  30.069  1.00  0.00     0.139 A
HETATM    7  C10 UNL     1     -23.877  -5.542  27.562  1.00  0.00     0.150 C
HETATM    8  N1  UNL     1     -23.921  -6.868  27.178  1.00  0.00    -0.363 N
ATOM      9  H1  UNL     1     -24.358  -6.970  26.262  1.00  0.00     0.162 HD
HETATM   10  C11 UNL     1     -23.527  -8.134  27.704  1.00  0.00     0.115 C
HETATM   11  C15 UNL     1     -23.452  -9.145  26.535  1.00  0.00     0.138 C
HETATM   12  C16 UNL     1     -22.091  -9.536  26.179  1.00  0.00     0.261 C
HETATM   13  O6  UNL     1     -21.380 -10.015  27.121  1.00  0.00    -0.265 OA
HETATM   14  O7  UNL     1     -21.499  -9.444  24.954  1.00  0.00    -0.314 OA
HETATM   15  C17 UNL     1     -21.851  -9.846  23.700  1.00  0.00     0.156 C
HETATM   16  C18 UNL     1     -23.329 -10.042  23.470  1.00  0.00     0.042 C
HETATM   17  C19 UNL     1     -21.342  -8.918  22.619  1.00  0.00     0.150 C
HETATM   18  C21 UNL     1     -20.437  -7.923  23.271  1.00  0.00     0.041 C
HETATM   19  C22 UNL     1     -21.082  -6.687  23.768  1.00  0.00     0.013 C
HETATM   20  C23 UNL     1     -21.754  -5.875  22.680  1.00  0.00     0.012 C
HETATM   21  C24 UNL     1     -20.066  -5.842  24.526  1.00  0.00     0.128 C
HETATM   22  C26 UNL     1     -20.636  -5.395  25.825  1.00  0.00     0.066 C
HETATM   23  C27 UNL     1     -20.251  -6.067  27.064  1.00  0.00    -0.080 C
HETATM   24  C28 UNL     1     -19.167  -7.128  26.974  1.00  0.00     0.043 C
HETATM   25  C29 UNL     1     -20.741  -5.820  28.277  1.00  0.00     0.018 C
ENDROOT
BRANCH  10  26
HETATM   26  C12 UNL     1     -24.591  -8.786  28.609  1.00  0.00     0.050 C
HETATM   27  C13 UNL     1     -24.551  -8.096  29.951  1.00  0.00     0.034 C
HETATM   28  C14 UNL     1     -25.928  -8.721  27.963  1.00  0.00     0.034 C
HETATM   29 CL1  UNL     1     -24.214 -10.500  28.876  1.00  0.00    -0.118 Cl
ENDBRANCH  10  26
BRANCH   7  30
HETATM   30  O5  UNL     1     -24.781  -4.780  26.956  1.00  0.00    -0.346 OA
ATOM     31  H5  UNL     1     -25.095  -5.201  26.165  1.00  0.00     0.219 HD
ENDBRANCH   7  30
BRANCH   5  32
HETATM   32  O3  UNL     1     -25.171  -3.514  28.887  1.00  0.00    -0.352 OA
HETATM   33  C7  UNL     1     -26.238  -4.006  29.624  1.00  0.00     0.210 C
ENDBRANCH   5  32
BRANCH   2  34
HETATM   34  O2  UNL     1     -19.851  -4.056  30.124  1.00  0.00    -0.357 OA
ATOM     35  H2  UNL     1     -19.271  -3.506  29.610  1.00  0.00     0.217 HD
ENDBRANCH   2  34
BRANCH   6  36
HETATM   36  O4  UNL     1     -24.072  -1.899  30.655  1.00  0.00    -0.351 OA
HETATM   37  C9  UNL     1     -24.439  -2.047  31.993  1.00  0.00     0.210 C
ENDBRANCH   6  36
BRANCH  17  38
HETATM   38  O8  UNL     1     -20.559  -9.703  21.758  1.00  0.00    -0.388 OA
HETATM   39  C20 UNL     1     -19.298  -9.146  21.577  1.00  0.00     0.202 C
ENDBRANCH  17  38
BRANCH   1  40
HETATM   40  O1  UNL     1     -21.350  -2.166  31.294  1.00  0.00    -0.351 OA
HETATM   41  C1  UNL     1     -20.766  -0.935  31.032  1.00  0.00     0.210 C
ENDBRANCH   1  40
BRANCH  21  42
HETATM   42  O9  UNL     1     -18.872  -6.520  24.547  1.00  0.00    -0.390 OA
HETATM   43  C25 UNL     1     -17.791  -5.813  24.052  1.00  0.00     0.202 C
ENDBRANCH  21  42
TORSDOF 8
ENDMDL