MODEL 2
REMARK VINA RESULT: -8.711836816      0.998      1.344
REMARK  9 active torsions:
REMARK  status: ('A' for Active; 'I' for Inactive)
REMARK    1  A    between atoms: O1_2  and  C2_3
REMARK    2  A    between atoms: C2_3  and  O3_5
REMARK    3  A    between atoms: O3_5  and  C3_6
REMARK    4  A    between atoms: C10_14  and  O4_15
REMARK    5  A    between atoms: C11_17  and  N1_18
REMARK    6  A    between atoms: N1_18  and  C12_20
REMARK    7  A    between atoms: C18_27  and  O5_29
REMARK    8  A    between atoms: O5_29  and  C20_30
REMARK    9  A    between atoms: C20_30  and  C21_32
ROOT
HETATM    1  C3  UNL     1     -26.764  -6.616  29.926  1.00  0.00     0.085 C
HETATM    2  C4  UNL     1     -27.811  -7.607  30.372  1.00  0.00     0.048 C
HETATM    3  C5  UNL     1     -25.419  -7.359  29.664  1.00  0.00     0.042 C
HETATM    4  C6  UNL     1     -24.232  -6.663  30.249  1.00  0.00    -0.027 C
HETATM    5  C7  UNL     1     -22.968  -7.471  30.061  1.00  0.00     0.014 C
HETATM    6  C8  UNL     1     -23.394  -8.886  29.825  1.00  0.00     0.048 C
HETATM    7  C9  UNL     1     -24.208  -9.094  28.581  1.00  0.00     0.139 C
HETATM    8  F1  UNL     1     -24.999 -10.208  28.898  1.00  0.00    -0.239 F
HETATM    9  C10 UNL     1     -23.318  -9.433  27.490  1.00  0.00     0.181 C
HETATM   10  C11 UNL     1     -23.639  -9.100  26.093  1.00  0.00     0.113 C
HETATM   11  C13 UNL     1     -24.403  -7.830  25.966  1.00  0.00     0.028 C
HETATM   12  C14 UNL     1     -24.553  -7.081  27.286  1.00  0.00     0.015 C
HETATM   13  C15 UNL     1     -25.212  -7.945  28.345  1.00  0.00     0.002 C
HETATM   14  C16 UNL     1     -26.347  -8.582  27.642  1.00  0.00     0.019 C
HETATM   15  C17 UNL     1     -24.378  -6.667  31.789  1.00  0.00     0.049 C
HETATM   16  C18 UNL     1     -25.725  -6.314  32.199  1.00  0.00     0.078 C
HETATM   17  C19 UNL     1     -25.774  -5.361  33.390  1.00  0.00     0.047 C
HETATM   18  C25 UNL     1     -26.598  -5.674  31.094  1.00  0.00     0.019 C
HETATM   19  C26 UNL     1     -27.836  -5.363  31.869  1.00  0.00     0.021 C
HETATM   20  C27 UNL     1     -25.997  -4.340  30.734  1.00  0.00     0.016 C
HETATM   21  C28 UNL     1     -24.529  -4.231  30.822  1.00  0.00     0.006 C
HETATM   22  C29 UNL     1     -23.964  -5.274  29.845  1.00  0.00    -0.010 C
HETATM   23  C30 UNL     1     -22.464  -4.933  29.846  1.00  0.00     0.011 C
ENDROOT
BRANCH  16  24
HETATM   24  O5  UNL     1     -26.390  -7.478  32.698  1.00  0.00    -0.304 OA
BRANCH  24  25
HETATM   25  C20 UNL     1     -25.905  -8.275  33.702  1.00  0.00     0.318 C
HETATM   26  O6  UNL     1     -26.040  -7.920  34.881  1.00  0.00    -0.257 OA
BRANCH  25  27
HETATM   27  C21 UNL     1     -25.230  -9.539  33.413  1.00  0.00     0.149 A
HETATM   28  C22 UNL     1     -25.423 -10.266  32.264  1.00  0.00     0.045 A
HETATM   29  C23 UNL     1     -24.627 -11.392  32.337  1.00  0.00     0.027 A
HETATM   30  C24 UNL     1     -23.979 -11.286  33.556  1.00  0.00     0.143 A
HETATM   31  O7  UNL     1     -24.361 -10.184  34.158  1.00  0.00    -0.317 OA
ENDBRANCH  25  27
ENDBRANCH  24  25
ENDBRANCH  16  24
BRANCH   1  32
HETATM   32  O3  UNL     1     -26.949  -6.011  28.734  1.00  0.00    -0.286 OA
BRANCH  32  33
HETATM   33  C2  UNL     1     -27.911  -5.358  28.075  1.00  0.00     0.406 C
HETATM   34  O2  UNL     1     -29.039  -5.777  28.113  1.00  0.00    -0.229 OA
BRANCH  33  35
HETATM   35  O1  UNL     1     -27.625  -4.206  27.349  1.00  0.00    -0.303 OA
HETATM   36  C1  UNL     1     -27.145  -4.274  26.035  1.00  0.00     0.215 C
ENDBRANCH  33  35
ENDBRANCH  32  33
ENDBRANCH   1  32
BRANCH   9  37
HETATM   37  O4  UNL     1     -22.021  -8.936  27.782  1.00  0.00    -0.390 OA
ATOM     38  H4  UNL     1     -21.425  -9.206  27.094  1.00  0.00     0.210 HD
ENDBRANCH   9  37
BRANCH  10  39
HETATM   39  N1  UNL     1     -22.372  -9.066  25.359  1.00  0.00    -0.383 N
ATOM     40  H1  UNL     1     -21.668  -8.361  25.577  1.00  0.00     0.160 HD
BRANCH  39  41
HETATM   41  C12 UNL     1     -22.136 -10.028  24.340  1.00  0.00     0.166 C
HETATM   42  S1  UNL     1     -22.905  -9.926  22.900  1.00  0.00    -0.075 SA
ENDBRANCH  39  41
ENDBRANCH  10  39
TORSDOF 9
ENDMDL