MODEL 4
REMARK VINA RESULT: -10.100616747      4.493      5.156
REMARK  7 active torsions:
REMARK  status: ('A' for Active; 'I' for Inactive)
REMARK    1  A    between atoms: O1_1  and  N1_3
REMARK    2  A    between atoms: C1_5  and  O2_6
REMARK    3  A    between atoms: C1_5  and  C2_8
REMARK    4  A    between atoms: C3_9  and  C4_10
REMARK    5  A    between atoms: C19_29  and  C20_30
REMARK    6  A    between atoms: C23_33  and  N3_34
REMARK    7  A    between atoms: N4_37  and  C26_38
ROOT
HETATM    1  C2  UNL     1     -24.487  -6.048  32.333  1.00  0.00     0.109 C
HETATM    2  C3  UNL     1     -25.532  -6.449  33.364  1.00  0.00     0.176 C
HETATM    3  O3  UNL     1     -26.808  -5.951  32.992  1.00  0.00    -0.324 OA
HETATM    4  C14 UNL     1     -27.059  -5.185  31.870  1.00  0.00     0.149 A
HETATM    5  N2  UNL     1     -28.087  -4.325  31.775  1.00  0.00    -0.345 N
ATOM      6  H2  UNL     1     -28.721  -4.227  32.567  1.00  0.00     0.167 HD
HETATM    7  C15 UNL     1     -28.310  -3.589  30.668  1.00  0.00     0.114 A
HETATM    8  C16 UNL     1     -27.456  -3.732  29.615  1.00  0.00     0.050 A
HETATM    9 CL1  UNL     1     -27.722  -2.792  28.168  1.00  0.00    -0.083 Cl
HETATM   10  C17 UNL     1     -26.371  -4.601  29.637  1.00  0.00     0.037 A
HETATM   11  C18 UNL     1     -26.185  -5.331  30.791  1.00  0.00     0.004 A
HETATM   12  C19 UNL     1     -25.096  -6.317  31.000  1.00  0.00     0.072 C
ENDROOT
BRANCH  12  13
HETATM   13  C20 UNL     1     -24.183  -6.505  29.881  1.00  0.00    -0.033 A
HETATM   14  C21 UNL     1     -23.345  -5.583  29.352  1.00  0.00     0.013 A
HETATM   15  C22 UNL     1     -22.540  -5.916  28.280  1.00  0.00     0.049 A
HETATM   16  C23 UNL     1     -22.529  -7.167  27.690  1.00  0.00     0.103 A
HETATM   17  N6  UNL     1     -23.379  -8.063  28.246  1.00  0.00    -0.352 N
HETATM   18  C33 UNL     1     -24.157  -7.770  29.267  1.00  0.00     0.097 A
ATOM     19  H6  UNL     1     -23.419  -9.005  27.857  1.00  0.00     0.166 HD
BRANCH  16  20
HETATM   20  N3  UNL     1     -21.700  -7.495  26.589  1.00  0.00    -0.364 N
HETATM   21  C24 UNL     1     -20.880  -6.427  26.028  1.00  0.00     0.144 C
HETATM   22  C25 UNL     1     -19.670  -7.002  25.318  1.00  0.00     0.144 C
HETATM   23  N4  UNL     1     -20.220  -7.938  24.312  1.00  0.00    -0.364 N
HETATM   24  C31 UNL     1     -20.940  -9.056  24.827  1.00  0.00     0.144 C
HETATM   25  C32 UNL     1     -21.702  -8.829  26.090  1.00  0.00     0.144 C
BRANCH  23  26
HETATM   26  C26 UNL     1     -19.994  -7.648  22.947  1.00  0.00     0.102 A
HETATM   27  C27 UNL     1     -21.036  -7.427  22.092  1.00  0.00     0.048 A
HETATM   28  C28 UNL     1     -20.813  -7.133  20.741  1.00  0.00     0.005 A
HETATM   29  C29 UNL     1     -19.522  -7.078  20.312  1.00  0.00     0.017 A
HETATM   30  C30 UNL     1     -18.473  -7.303  21.178  1.00  0.00     0.089 A
HETATM   31  N5  UNL     1     -18.741  -7.579  22.458  1.00  0.00    -0.352 N
ATOM     32  H5  UNL     1     -17.960  -7.745  23.094  1.00  0.00     0.166 HD
ENDBRANCH  23  26
ENDBRANCH  16  20
ENDBRANCH  12  13
BRANCH   1  33
HETATM   33  C1  UNL     1     -24.096  -4.634  32.578  1.00  0.00     0.143 C
HETATM   34  N1  UNL     1     -24.599  -3.849  33.452  1.00  0.00    -0.251 N
ATOM     35  H1  UNL     1     -25.344  -4.224  34.040  1.00  0.00     0.196 HD
BRANCH  34  36
HETATM   36  O1  UNL     1     -24.235  -2.567  33.667  1.00  0.00    -0.288 OA
ATOM     37  H1  UNL     1     -24.237  -2.121  34.506  1.00  0.00     0.244 HD
ENDBRANCH  34  36
BRANCH  33  38
HETATM   38  O2  UNL     1     -23.069  -4.044  31.801  1.00  0.00    -0.348 OA
ATOM     39  H2  UNL     1     -22.811  -4.562  31.047  1.00  0.00     0.219 HD
ENDBRANCH  33  38
ENDBRANCH   1  33
BRANCH   2  40
HETATM   40  C4  UNL     1     -25.666  -7.879  33.597  1.00  0.00    -0.027 A
HETATM   41  C5  UNL     1     -25.491  -8.706  32.475  1.00  0.00     0.011 A
HETATM   42  C6  UNL     1     -25.597 -10.071  32.580  1.00  0.00     0.013 A
HETATM   43  C7  UNL     1     -25.882 -10.618  33.821  1.00  0.00    -0.026 A
HETATM   44  C8  UNL     1     -26.000 -11.977  33.982  1.00  0.00     0.012 A
HETATM   45  C12 UNL     1     -26.061  -9.825  34.939  1.00  0.00    -0.025 A
HETATM   46  C9  UNL     1     -26.286 -12.501  35.230  1.00  0.00     0.001 A
HETATM   47  C10 UNL     1     -26.466 -11.715  36.351  1.00  0.00     0.001 A
HETATM   48  C11 UNL     1     -26.346 -10.348  36.182  1.00  0.00     0.012 A
HETATM   49  C13 UNL     1     -25.945  -8.442  34.795  1.00  0.00     0.022 A
ENDBRANCH   2  40
TORSDOF 7
ENDMDL