MODEL 5
REMARK VINA RESULT: -10.128196169      1.042      1.215
REMARK  8 active torsions:
REMARK  status: ('A' for Active; 'I' for Inactive)
REMARK    1  A    between atoms: C2_5  and  N3_6
REMARK    2  A    between atoms: N3_6  and  C3_8
REMARK    3  A    between atoms: C13_20  and  C14_21
REMARK    4  A    between atoms: C14_21  and  C29_44
REMARK    5  A    between atoms: N4_22  and  N5_24
REMARK    6  A    between atoms: N5_24  and  C15_26
REMARK    7  A    between atoms: N6_28  and  O1_29
REMARK    8  A    between atoms: N7_37  and  C23_38
ROOT
HETATM    1  C14 UNL     1     -24.200  -8.111  28.043  1.00  0.00     0.102 C
HETATM    2  N4  UNL     1     -24.268  -8.804  29.143  1.00  0.00    -0.295 N
ATOM      3  H4  UNL     1     -23.662  -9.620  29.227  1.00  0.00     0.187 HD
ENDROOT
BRANCH   1   4
HETATM    4  C13 UNL     1     -23.256  -8.576  27.032  1.00  0.00     0.080 A
HETATM    5  C1  UNL     1     -21.932  -8.862  27.189  1.00  0.00     0.138 A
HETATM    6  N1  UNL     1     -21.290  -8.715  28.490  1.00  0.00    -0.081 NA
HETATM    7  N2  UNL     1     -21.264  -9.269  26.141  1.00  0.00    -0.324 N
HETATM    8  C2  UNL     1     -21.904  -9.383  24.979  1.00  0.00     0.151 A
ATOM      9  H2  UNL     1     -20.272  -9.494  26.213  1.00  0.00     0.169 HD
HETATM   10  S1  UNL     1     -23.492  -8.904  25.373  1.00  0.00    -0.048 SA
BRANCH   8  11
HETATM   11  N3  UNL     1     -21.406  -9.774  23.820  1.00  0.00    -0.336 N
ATOM     12  H3  UNL     1     -20.828 -10.613  23.770  1.00  0.00     0.168 HD
BRANCH  11  13
HETATM   13  C3  UNL     1     -21.677  -9.024  22.644  1.00  0.00     0.045 A
HETATM   14  C4  UNL     1     -22.769  -9.276  21.843  1.00  0.00     0.033 A
HETATM   15  C5  UNL     1     -22.934  -8.488  20.728  1.00  0.00     0.045 A
HETATM   16  C6  UNL     1     -22.082  -7.482  20.378  1.00  0.00     0.127 A
HETATM   17  F1  UNL     1     -22.225  -6.694  19.285  1.00  0.00    -0.205 F
HETATM   18  C7  UNL     1     -20.991  -7.246  21.195  1.00  0.00     0.015 A
HETATM   19  C8  UNL     1     -20.097  -6.224  20.868  1.00  0.00     0.015 A
HETATM   20  C12 UNL     1     -20.785  -8.009  22.321  1.00  0.00     0.004 A
HETATM   21  C9  UNL     1     -19.023  -6.026  21.714  1.00  0.00     0.001 A
HETATM   22  C10 UNL     1     -18.808  -6.781  22.841  1.00  0.00     0.001 A
HETATM   23  C11 UNL     1     -19.687  -7.777  23.152  1.00  0.00     0.014 A
ENDBRANCH  11  13
ENDBRANCH   8  11
ENDBRANCH   1   4
BRANCH   1  24
HETATM   24  C29 UNL     1     -25.039  -6.956  27.894  1.00  0.00     0.104 A
HETATM   25  C30 UNL     1     -24.750  -5.632  28.007  1.00  0.00     0.041 A
HETATM   26  C31 UNL     1     -25.913  -4.915  27.767  1.00  0.00     0.027 A
HETATM   27  C32 UNL     1     -26.862  -5.866  27.517  1.00  0.00     0.142 A
HETATM   28  O2  UNL     1     -26.315  -7.026  27.601  1.00  0.00    -0.320 OA
ENDBRANCH   1  24
BRANCH   2  29
HETATM   29  N5  UNL     1     -25.099  -8.514  30.199  1.00  0.00    -0.283 N
ATOM     30  H5  UNL     1     -25.728  -7.717  30.103  1.00  0.00     0.188 HD
BRANCH  29  31
HETATM   31  C15 UNL     1     -25.138  -9.177  31.303  1.00  0.00     0.145 A
HETATM   32  C16 UNL     1     -24.787 -10.507  31.331  1.00  0.00     0.173 A
HETATM   33  N6  UNL     1     -24.826 -11.214  32.494  1.00  0.00    -0.230 N
HETATM   34  C17 UNL     1     -25.206 -10.627  33.634  1.00  0.00     0.089 A
HETATM   35  C18 UNL     1     -25.229 -11.385  34.783  1.00  0.00     0.034 A
HETATM   36  C22 UNL     1     -25.561  -9.293  33.620  1.00  0.00     0.070 A
HETATM   37  C19 UNL     1     -25.614 -10.816  35.963  1.00  0.00     0.002 A
HETATM   38  C20 UNL     1     -25.974  -9.476  35.971  1.00  0.00     0.002 A
HETATM   39  C21 UNL     1     -25.945  -8.728  34.800  1.00  0.00     0.032 A
HETATM   40  N7  UNL     1     -25.519  -8.594  32.450  1.00  0.00    -0.293 N
BRANCH  33  41
HETATM   41  O1  UNL     1     -24.469 -12.524  32.463  1.00  0.00    -0.283 OA
ATOM     42  H1  UNL     1     -24.116 -12.914  33.254  1.00  0.00     0.245 HD
ENDBRANCH  33  41
BRANCH  40  43
HETATM   43  C23 UNL     1     -25.896  -7.226  32.504  1.00  0.00     0.041 A
HETATM   44  C24 UNL     1     -24.911  -6.275  32.731  1.00  0.00     0.030 A
HETATM   45  C25 UNL     1     -25.268  -4.954  32.783  1.00  0.00     0.002 A
HETATM   46  C26 UNL     1     -26.573  -4.546  32.619  1.00  0.00     0.000 A
HETATM   47  C27 UNL     1     -27.543  -5.494  32.395  1.00  0.00     0.002 A
HETATM   48  C28 UNL     1     -27.207  -6.817  32.338  1.00  0.00     0.030 A
ENDBRANCH  40  43
ENDBRANCH  29  31
ENDBRANCH   2  29
TORSDOF 8
ENDMDL