MODEL 1
REMARK VINA RESULT: -9.136412617      0.000      0.000
REMARK  9 active torsions:
REMARK  status: ('A' for Active; 'I' for Inactive)
REMARK    1  A    between atoms: C2_2  and  O1_3
REMARK    2  A    between atoms: C2_2  and  C23_31
REMARK    3  A    between atoms: O1_3  and  C3_4
REMARK    4  A    between atoms: C15_19  and  O5_20
REMARK    5  A    between atoms: C15_19  and  O6_22
REMARK    6  A    between atoms: C23_31  and  C24_32
REMARK    7  A    between atoms: C23_31  and  N1_35
REMARK       I    between atoms: N1_35  and  C28_37
REMARK    8  A    between atoms: C28_37  and  O8_39
REMARK    9  A    between atoms: O8_39  and  C29_40
ROOT
HETATM    1  C3  UNL     1     -25.283  -6.427  28.988  1.00  0.00     0.271 C
HETATM    2  O2  UNL     1     -25.407  -5.455  29.910  1.00  0.00    -0.341 OA
HETATM    3  C4  UNL     1     -26.116  -4.342  29.477  1.00  0.00     0.126 C
HETATM    4  C5  UNL     1     -25.109  -3.381  28.943  1.00  0.00    -0.039 C
HETATM    5  C6  UNL     1     -23.708  -3.506  29.361  1.00  0.00     0.003 C
HETATM    6  C7  UNL     1     -23.226  -3.749  30.692  1.00  0.00    -0.010 C
HETATM    7  C8  UNL     1     -23.662  -3.004  31.885  1.00  0.00     0.126 C
HETATM    8  C9  UNL     1     -24.472  -1.795  31.760  1.00  0.00    -0.014 C
HETATM    9  C10 UNL     1     -25.916  -1.790  31.902  1.00  0.00    -0.022 C
HETATM   10  C11 UNL     1     -26.899  -2.413  30.997  1.00  0.00     0.045 C
HETATM   11  C12 UNL     1     -28.212  -2.095  31.784  1.00  0.00     0.017 C
HETATM   12  C13 UNL     1     -26.797  -3.874  30.766  1.00  0.00     0.135 C
HETATM   13  C14 UNL     1     -28.233  -4.438  30.868  1.00  0.00     0.054 C
HETATM   14  O3  UNL     1     -26.285  -4.397  31.928  1.00  0.00    -0.221 OA
HETATM   15  O4  UNL     1     -25.142  -4.751  32.127  1.00  0.00    -0.170 OA
HETATM   16  C15 UNL     1     -24.243  -4.053  32.853  1.00  0.00     0.317 C
HETATM   17  C16 UNL     1     -25.075  -3.065  27.480  1.00  0.00     0.013 C
HETATM   18  C17 UNL     1     -23.864  -3.648  26.730  1.00  0.00     0.015 C
HETATM   19  C18 UNL     1     -26.342  -3.223  26.742  1.00  0.00     0.009 C
HETATM   20  C19 UNL     1     -27.352  -4.129  27.275  1.00  0.00     0.009 C
HETATM   21  C20 UNL     1     -27.018  -4.963  28.471  1.00  0.00     0.036 C
HETATM   22  C21 UNL     1     -26.497  -6.350  28.148  1.00  0.00     0.045 C
HETATM   23  C22 UNL     1     -26.356  -6.645  26.704  1.00  0.00     0.015 C
ENDROOT
BRANCH   1  24
HETATM   24  O1  UNL     1     -25.163  -7.650  29.685  1.00  0.00    -0.323 OA
BRANCH  24  25
HETATM   25  C2  UNL     1     -24.245  -8.013  30.624  1.00  0.00     0.063 C
HETATM   26  C1  UNL     1     -23.044  -7.463  30.564  1.00  0.00     0.048 C
BRANCH  25  27
HETATM   27  C23 UNL     1     -24.525  -8.993  31.713  1.00  0.00     0.148 C
BRANCH  27  28
HETATM   28  C24 UNL     1     -25.022 -10.264  31.062  1.00  0.00     0.007 C
HETATM   29  C25 UNL     1     -24.431 -10.314  29.656  1.00  0.00     0.012 C
HETATM   30  C26 UNL     1     -24.550 -11.494  31.807  1.00  0.00     0.012 C
ENDBRANCH  27  28
BRANCH  27  31
HETATM   31  N1  UNL     1     -25.515  -8.502  32.648  1.00  0.00    -0.321 N
HETATM   32  C27 UNL     1     -26.721  -7.867  32.165  1.00  0.00     0.156 C
HETATM   33  C28 UNL     1     -25.331  -8.648  34.044  1.00  0.00     0.366 C
HETATM   34  O7  UNL     1     -26.200  -8.216  34.829  1.00  0.00    -0.238 OA
BRANCH  33  35
HETATM   35  O8  UNL     1     -24.207  -9.259  34.564  1.00  0.00    -0.262 OA
BRANCH  35  36
HETATM   36  C29 UNL     1     -24.359 -10.366  35.402  1.00  0.00     0.207 C
HETATM   37  C30 UNL     1     -25.660 -11.056  35.072  1.00  0.00     0.084 C
HETATM   38  C31 UNL     1     -23.239 -11.364  35.276  1.00  0.00     0.084 C
HETATM   39  F1  UNL     1     -24.371  -9.892  36.708  1.00  0.00    -0.212 F
ENDBRANCH  35  36
ENDBRANCH  33  35
ENDBRANCH  27  31
ENDBRANCH  25  27
ENDBRANCH  24  25
ENDBRANCH   1  24
BRANCH  16  40
HETATM   40  O5  UNL     1     -24.580  -3.581  34.063  1.00  0.00    -0.341 OA
ATOM     41  H5  UNL     1     -24.847  -2.668  34.077  1.00  0.00     0.215 HD
ENDBRANCH  16  40
BRANCH  16  42
HETATM   42  O6  UNL     1     -23.160  -4.955  33.067  1.00  0.00    -0.341 OA
ATOM     43  H6  UNL     1     -23.199  -5.141  33.998  1.00  0.00     0.215 HD
ENDBRANCH  16  42
TORSDOF 9
ENDMDL