MODEL 5
REMARK VINA RESULT: -8.769416892      2.141      7.875
REMARK  8 active torsions:
REMARK  status: ('A' for Active; 'I' for Inactive)
REMARK    1  A    between atoms: C3_3  and  O1_4
REMARK    2  A    between atoms: O1_4  and  C4_5
REMARK    3  A    between atoms: C4_5  and  C5_7
REMARK    4  A    between atoms: C13_15  and  O3_16
REMARK    5  A    between atoms: O3_16  and  C14_17
REMARK    6  A    between atoms: C14_17  and  C15_19
REMARK    7  A    between atoms: C26_31  and  C27_32
REMARK    8  A    between atoms: C28_34  and  O7_35
ROOT
HETATM    1  C1  UNL     1     -26.585  -2.840  27.890  1.00  0.00     0.017 C
HETATM    2  C2  UNL     1     -26.469  -4.121  27.737  1.00  0.00    -0.053 C
HETATM    3  C3  UNL     1     -26.887  -4.679  26.377  1.00  0.00     0.161 C
HETATM    4  C8  UNL     1     -25.743  -5.409  25.751  1.00  0.00     0.038 C
HETATM    5  C9  UNL     1     -25.212  -6.429  26.749  1.00  0.00     0.013 C
HETATM    6  C10 UNL     1     -24.746  -5.704  27.996  1.00  0.00    -0.032 C
HETATM    7  C11 UNL     1     -23.777  -4.652  27.504  1.00  0.00     0.016 C
HETATM    8  C12 UNL     1     -23.935  -6.572  28.909  1.00  0.00     0.043 C
HETATM    9  C13 UNL     1     -24.694  -7.768  29.495  1.00  0.00     0.142 C
HETATM   10  C19 UNL     1     -25.648  -7.464  30.556  1.00  0.00    -0.001 C
HETATM   11  C20 UNL     1     -27.023  -8.040  30.252  1.00  0.00     0.019 C
HETATM   12  C21 UNL     1     -25.706  -6.025  31.000  1.00  0.00     0.021 C
HETATM   13  C22 UNL     1     -24.632  -5.865  32.054  1.00  0.00     0.008 C
HETATM   14  C23 UNL     1     -24.114  -7.298  32.345  1.00  0.00     0.015 C
HETATM   15  C24 UNL     1     -25.341  -8.062  31.947  1.00  0.00    -0.012 C
HETATM   16  C25 UNL     1     -25.300  -9.512  31.943  1.00  0.00    -0.004 C
HETATM   17  C26 UNL     1     -25.244 -10.159  33.088  1.00  0.00     0.005 C
HETATM   18  C28 UNL     1     -25.246  -9.537  34.422  1.00  0.00     0.154 C
HETATM   19  C29 UNL     1     -25.948  -8.259  34.368  1.00  0.00     0.037 C
HETATM   20  C30 UNL     1     -26.353  -7.719  33.006  1.00  0.00     0.017 C
HETATM   21  C31 UNL     1     -25.887  -4.908  30.074  1.00  0.00     0.046 C
HETATM   22  C32 UNL     1     -27.116  -4.073  30.512  1.00  0.00     0.034 C
HETATM   23 CL1  UNL     1     -24.497  -3.776  30.305  1.00  0.00    -0.118 Cl
HETATM   24  C33 UNL     1     -25.994  -5.166  28.635  1.00  0.00     0.048 C
ENDROOT
BRANCH   9  25
HETATM   25  O3  UNL     1     -23.782  -8.824  29.641  1.00  0.00    -0.311 OA
BRANCH  25  26
HETATM   26  C14 UNL     1     -23.602  -9.835  28.735  1.00  0.00     0.295 C
HETATM   27  O4  UNL     1     -24.166 -10.902  29.030  1.00  0.00    -0.259 OA
BRANCH  26  28
HETATM   28  C15 UNL     1     -22.804  -9.665  27.514  1.00  0.00     0.063 A
HETATM   29  C16 UNL     1     -23.234  -9.496  26.234  1.00  0.00     0.044 A
HETATM   30  C17 UNL     1     -22.107  -9.380  25.425  1.00  0.00     0.142 A
HETATM   31  O5  UNL     1     -21.048  -9.482  26.221  1.00  0.00    -0.334 OA
HETATM   32  C18 UNL     1     -21.427  -9.652  27.465  1.00  0.00     0.159 A
ENDBRANCH  26  28
ENDBRANCH  25  26
ENDBRANCH   9  25
BRANCH  17  33
HETATM   33  C27 UNL     1     -25.202 -11.635  32.984  1.00  0.00     0.268 C
HETATM   34  O6  UNL     1     -24.303 -12.127  32.261  1.00  0.00    -0.302 OA
ENDBRANCH  17  33
BRANCH  18  35
HETATM   35  O7  UNL     1     -24.025  -9.581  35.067  1.00  0.00    -0.391 OA
ATOM     36  H7  UNL     1     -24.086  -9.610  36.015  1.00  0.00     0.210 HD
ENDBRANCH  18  35
BRANCH   3  37
HETATM   37  O1  UNL     1     -27.501  -3.732  25.591  1.00  0.00    -0.308 OA
BRANCH  37  38
HETATM   38  C4  UNL     1     -27.142  -3.420  24.286  1.00  0.00     0.283 C
HETATM   39  O2  UNL     1     -27.806  -3.959  23.391  1.00  0.00    -0.260 OA
BRANCH  38  40
HETATM   40  C5  UNL     1     -26.043  -2.509  24.078  1.00  0.00     0.078 C
HETATM   41  C6  UNL     1     -26.025  -1.280  24.556  1.00  0.00    -0.025 C
HETATM   42  C7  UNL     1     -24.899  -0.344  24.344  1.00  0.00     0.036 C
ENDBRANCH  38  40
ENDBRANCH  37  38
ENDBRANCH   3  37
TORSDOF 8
ENDMDL