MODEL 1
REMARK VINA RESULT: -9.099760516      0.000      0.000
REMARK  7 active torsions:
REMARK  status: ('A' for Active; 'I' for Inactive)
REMARK    1  A    between atoms: N1_2  and  C3_4
REMARK    2  A    between atoms: C6_13  and  N5_14
REMARK    3  A    between atoms: N5_14  and  C7_16
REMARK    4  A    between atoms: C16_29  and  C17_30
REMARK    5  A    between atoms: C17_30  and  C18_31
REMARK    6  A    between atoms: C21_34  and  C22_35
REMARK    7  A    between atoms: C27_40  and  N7_41
ROOT
HETATM    1  C3  UNL     1     -20.890  -7.480  22.039  1.00  0.00     0.125 A
HETATM    2  N2  UNL     1     -19.777  -6.901  21.777  1.00  0.00    -0.328 N
ATOM      3  H2  UNL     1     -19.501  -6.604  20.841  1.00  0.00     0.169 HD
HETATM    4  C4  UNL     1     -18.967  -6.718  22.934  1.00  0.00     0.121 A
HETATM    5  N3  UNL     1     -17.736  -6.163  23.109  1.00  0.00    -0.338 N
ATOM      6  H3  UNL     1     -17.217  -5.775  22.321  1.00  0.00     0.168 HD
HETATM    7  C5  UNL     1     -17.228  -6.140  24.345  1.00  0.00     0.183 A
HETATM    8  N4  UNL     1     -17.892  -6.644  25.405  1.00  0.00    -0.338 N
ATOM      9  H4  UNL     1     -17.460  -6.602  26.328  1.00  0.00     0.168 HD
HETATM   10  C6  UNL     1     -19.102  -7.199  25.275  1.00  0.00     0.120 A
HETATM   11  C13 UNL     1     -19.658  -7.237  23.996  1.00  0.00     0.076 A
HETATM   12  C14 UNL     1     -20.933  -7.751  23.457  1.00  0.00     0.181 A
HETATM   13  N6  UNL     1     -21.073  -9.141  23.801  1.00  0.00    -0.327 N
ATOM     14  H6  UNL     1     -20.278  -9.769  23.918  1.00  0.00     0.165 HD
HETATM   15  C15 UNL     1     -22.423  -9.560  23.964  1.00  0.00     0.260 C
HETATM   16  O1  UNL     1     -22.757 -10.714  23.538  1.00  0.00    -0.267 OA
HETATM   17  C16 UNL     1     -23.242  -8.587  24.606  1.00  0.00     0.072 C
HETATM   18  S1  UNL     1     -22.363  -7.026  24.307  1.00  0.00    -0.079 SA
ENDROOT
BRANCH   1  19
HETATM   19  N1  UNL     1     -21.847  -7.755  21.007  1.00  0.00    -0.376 N
HETATM   20  C1  UNL     1     -22.031  -9.091  20.483  1.00  0.00     0.150 C
HETATM   21  C2  UNL     1     -22.652  -6.663  20.477  1.00  0.00     0.150 C
ENDBRANCH   1  19
BRANCH  10  22
HETATM   22  N5  UNL     1     -19.774  -7.690  26.228  1.00  0.00    -0.342 N
ATOM     23  H5  UNL     1     -19.953  -8.694  26.254  1.00  0.00     0.167 HD
BRANCH  22  24
HETATM   24  C7  UNL     1     -20.288  -6.850  27.273  1.00  0.00     0.033 A
HETATM   25  C8  UNL     1     -20.539  -5.514  27.087  1.00  0.00     0.031 A
HETATM   26  C9  UNL     1     -21.028  -4.737  28.104  1.00  0.00     0.026 A
HETATM   27  C10 UNL     1     -21.271  -5.312  29.329  1.00  0.00     0.034 A
HETATM   28 CL1  UNL     1     -21.906  -4.317  30.654  1.00  0.00    -0.084 Cl
HETATM   29  C11 UNL     1     -21.031  -6.652  29.554  1.00  0.00     0.026 A
HETATM   30  C12 UNL     1     -20.541  -7.398  28.510  1.00  0.00     0.031 A
ENDBRANCH  22  24
ENDBRANCH  10  22
BRANCH  17  31
HETATM   31  C17 UNL     1     -24.354  -8.682  25.262  1.00  0.00     0.035 C
BRANCH  31  32
HETATM   32  C18 UNL     1     -24.510  -8.977  26.664  1.00  0.00    -0.035 A
HETATM   33  C19 UNL     1     -25.654  -8.852  27.372  1.00  0.00     0.012 A
HETATM   34  C20 UNL     1     -25.697  -9.207  28.723  1.00  0.00     0.013 A
HETATM   35  C21 UNL     1     -24.578  -9.695  29.387  1.00  0.00    -0.024 A
HETATM   36  C28 UNL     1     -23.433  -9.809  28.643  1.00  0.00     0.013 A
HETATM   37  C29 UNL     1     -23.373  -9.466  27.315  1.00  0.00     0.012 A
BRANCH  35  38
HETATM   38  C22 UNL     1     -24.676 -10.092  30.777  1.00  0.00     0.007 A
HETATM   39  C23 UNL     1     -24.667 -11.467  31.072  1.00  0.00     0.015 A
HETATM   40  C24 UNL     1     -24.713 -11.973  32.327  1.00  0.00     0.001 A
HETATM   41  C25 UNL     1     -24.774 -11.105  33.398  1.00  0.00     0.002 A
HETATM   42  C26 UNL     1     -24.786  -9.754  33.155  1.00  0.00     0.037 A
HETATM   43  C27 UNL     1     -24.738  -9.235  31.848  1.00  0.00     0.114 A
BRANCH  43  44
HETATM   44  N7  UNL     1     -24.768  -7.839  31.696  1.00  0.00    -0.115 N
HETATM   45  O2  UNL     1     -23.659  -7.216  31.752  1.00  0.00    -0.532 OA
HETATM   46  O3  UNL     1     -25.861  -7.069  31.489  1.00  0.00    -0.532 OA
ENDBRANCH  43  44
ENDBRANCH  35  38
ENDBRANCH  31  32
ENDBRANCH  17  31
TORSDOF 7
ENDMDL