MODEL 1
REMARK VINA RESULT: -5.558630697      0.000      0.000
REMARK  8 active torsions:
REMARK  status: ('A' for Active; 'I' for Inactive)
REMARK    1  A    between atoms: C2_2  and  C3_3
REMARK    2  A    between atoms: C3_3  and  C4_4
REMARK    3  A    between atoms: C4_4  and  C5_5
REMARK    4  A    between atoms: C11_16  and  C12_17
REMARK    5  A    between atoms: C12_17  and  C13_18
REMARK    6  A    between atoms: C18_25  and  C19_26
REMARK    7  A    between atoms: C19_26  and  C21_28
REMARK    8  A    between atoms: C24_34  and  C25_35
ROOT
HETATM    1  C5  UNL     1       7.464   8.426 -19.870  1.00  0.00     0.155 C
HETATM    2  N1  UNL     1       8.592   8.869 -19.120  1.00  0.00    -0.348 N
ATOM      3  H1  UNL     1       8.485   8.875 -18.106  1.00  0.00     0.163 HD
HETATM    4  C6  UNL     1       9.845   9.302 -19.619  1.00  0.00     0.240 C
HETATM    5  O1  UNL     1      10.425  10.337 -19.123  1.00  0.00    -0.271 OA
HETATM    6  C7  UNL     1      10.578   8.646 -20.700  1.00  0.00     0.175 C
HETATM    7  C8  UNL     1      10.235   9.516 -21.930  1.00  0.00     0.042 C
HETATM    8  N2  UNL     1      12.016   8.579 -20.531  1.00  0.00    -0.338 N
HETATM    9  C9  UNL     1      12.781   8.658 -21.798  1.00  0.00     0.154 C
HETATM   10  C10 UNL     1      12.758   8.456 -19.339  1.00  0.00     0.266 C
HETATM   11  O2  UNL     1      13.642   9.382 -19.179  1.00  0.00    -0.266 OA
HETATM   12  C11 UNL     1      12.685   7.449 -18.259  1.00  0.00     0.082 C
HETATM   13  N3  UNL     1      12.389   6.120 -18.705  1.00  0.00    -0.319 N
HETATM   14  C16 UNL     1      13.446   5.547 -19.604  1.00  0.00     0.159 C
HETATM   15  C17 UNL     1      11.318   5.264 -18.475  1.00  0.00     0.247 C
HETATM   16  O3  UNL     1      10.946   4.565 -19.503  1.00  0.00    -0.271 OA
HETATM   17  C18 UNL     1      10.508   4.983 -17.281  1.00  0.00     0.180 C
HETATM   18  N4  UNL     1       9.328   5.768 -17.100  1.00  0.00    -0.347 N
ATOM     19  H4  UNL     1       9.407   6.455 -16.351  1.00  0.00     0.163 HD
HETATM   20  C23 UNL     1       8.100   5.783 -17.739  1.00  0.00     0.229 C
HETATM   21  O4  UNL     1       7.056   5.632 -16.998  1.00  0.00    -0.273 OA
HETATM   22  C24 UNL     1       7.756   5.949 -19.170  1.00  0.00     0.149 C
HETATM   23  C27 UNL     1       6.897   7.137 -19.401  1.00  0.00     0.162 C
HETATM   24  O5  UNL     1       5.712   7.078 -19.210  1.00  0.00    -0.295 OA
ENDROOT
BRANCH   1  25
HETATM   25  C4  UNL     1       6.403   9.478 -20.032  1.00  0.00     0.033 C
BRANCH  25  26
HETATM   26  C3  UNL     1       6.564  10.344 -21.235  1.00  0.00     0.002 C
BRANCH  26  27
HETATM   27  C2  UNL     1       6.939  11.738 -20.733  1.00  0.00    -0.004 C
HETATM   28  C1  UNL     1       7.404  12.554 -21.935  1.00  0.00     0.005 C
ENDBRANCH  26  27
ENDBRANCH  25  26
ENDBRANCH   1  25
BRANCH  22  29
HETATM   29  C25 UNL     1       7.207   4.672 -19.744  1.00  0.00     0.017 C
HETATM   30  C26 UNL     1       7.729   4.248 -21.055  1.00  0.00     0.006 C
ENDBRANCH  22  29
BRANCH  17  31
HETATM   31  C19 UNL     1      10.166   3.465 -17.251  1.00  0.00     0.013 C
HETATM   32  C20 UNL     1       9.317   3.174 -16.061  1.00  0.00     0.012 C
BRANCH  31  33
HETATM   33  C21 UNL     1      11.513   2.763 -17.034  1.00  0.00     0.002 C
HETATM   34  C22 UNL     1      12.088   3.063 -15.691  1.00  0.00     0.005 C
ENDBRANCH  31  33
ENDBRANCH  17  31
BRANCH  12  35
HETATM   35  C12 UNL     1      12.090   7.901 -16.981  1.00  0.00     0.067 C
BRANCH  35  36
HETATM   36  C13 UNL     1      13.120   7.891 -15.845  1.00  0.00    -0.017 C
HETATM   37  C14 UNL     1      12.564   7.132 -14.679  1.00  0.00     0.010 C
HETATM   38  C15 UNL     1      13.314   9.340 -15.371  1.00  0.00     0.010 C
ENDBRANCH  35  36
ENDBRANCH  12  35
TORSDOF 8
ENDMDL