MODEL 2
REMARK VINA RESULT: -6.229865646      1.923      2.799
REMARK  9 active torsions:
REMARK  status: ('A' for Active; 'I' for Inactive)
REMARK    1  A    between atoms: N2_4  and  C2_6
REMARK       I    between atoms: N3_7  and  C3_9
REMARK    2  A    between atoms: C3_9  and  C4_11
REMARK    3  A    between atoms: C6_15  and  C7_16
REMARK    4  A    between atoms: C7_16  and  C8_17
REMARK    5  A    between atoms: C8_17  and  C9_18
REMARK    6  A    between atoms: C15_24  and  C16_25
REMARK    7  A    between atoms: C16_25  and  N5_26
REMARK    8  A    between atoms: N5_26  and  S1_28
REMARK    9  A    between atoms: S1_28  and  C17_31
ROOT
HETATM    1  C9  UNL     1       9.405  12.625 -21.740  1.00  0.00    -0.057 A
HETATM    2  C10 UNL     1       8.058  12.911 -21.646  1.00  0.00     0.008 A
HETATM    3  C11 UNL     1       7.167  12.113 -20.990  1.00  0.00     0.018 A
HETATM    4  C12 UNL     1       7.600  10.935 -20.370  1.00  0.00     0.040 A
HETATM    5  C13 UNL     1       8.929  10.621 -20.446  1.00  0.00    -0.018 A
HETATM    6  C14 UNL     1       9.823  11.466 -21.129  1.00  0.00     0.017 A
HETATM    7  C15 UNL     1       9.173   9.346 -19.730  1.00  0.00     0.137 A
HETATM    8  N6  UNL     1       7.888   8.955 -19.241  1.00  0.00    -0.347 N
ATOM      9  H6  UNL     1       7.702   8.112 -18.699  1.00  0.00     0.163 HD
HETATM   10  C24 UNL     1       6.911   9.906 -19.617  1.00  0.00     0.252 A
HETATM   11  O4  UNL     1       5.692   9.885 -19.362  1.00  0.00    -0.268 OA
ENDROOT
BRANCH   1  12
HETATM   12  C8  UNL     1      10.349  13.508 -22.457  1.00  0.00     0.044 C
BRANCH  12  13
HETATM   13  C7  UNL     1       9.766  14.026 -23.756  1.00  0.00     0.061 C
BRANCH  13  14
HETATM   14  C6  UNL     1       9.482  15.488 -23.552  1.00  0.00     0.010 A
HETATM   15  N4  UNL     1      10.045  16.508 -24.203  1.00  0.00    -0.368 N
HETATM   16  C5  UNL     1       9.571  17.672 -23.782  1.00  0.00     0.105 A
ATOM     17  H4  UNL     1      10.751  16.406 -24.932  1.00  0.00     0.165 HD
HETATM   18  C4  UNL     1       8.644  17.406 -22.797  1.00  0.00     0.049 A
HETATM   19  C25 UNL     1       8.597  16.033 -22.662  1.00  0.00     0.043 A
BRANCH  18  20
HETATM   20  C3  UNL     1       7.892  18.414 -22.076  1.00  0.00     0.258 C
HETATM   21  N3  UNL     1       7.505  18.213 -20.734  1.00  0.00    -0.318 N
HETATM   22  C2  UNL     1       8.325  17.947 -19.788  1.00  0.00     0.199 C
ATOM     23  H3  UNL     1       6.514  18.284 -20.504  1.00  0.00     0.169 HD
HETATM   24  O1  UNL     1       7.574  19.481 -22.645  1.00  0.00    -0.267 OA
BRANCH  22  25
HETATM   25  N2  UNL     1       7.895  17.754 -18.458  1.00  0.00    -0.301 N
HETATM   26  N1  UNL     1       7.603  16.623 -17.998  1.00  0.00    -0.340 N
HETATM   27  C1  UNL     1       7.703  15.444 -18.837  1.00  0.00     0.167 C
ATOM     28  H1  UNL     1       7.296  16.533 -17.029  1.00  0.00     0.179 HD
ATOM     29  H2  UNL     1       7.817  18.566 -17.846  1.00  0.00     0.187 HD
ENDBRANCH  22  25
ENDBRANCH  18  20
ENDBRANCH  13  14
ENDBRANCH  12  13
ENDBRANCH   1  12
BRANCH   7  30
HETATM   30  C16 UNL     1       9.617   8.330 -20.772  1.00  0.00     0.162 C
BRANCH  30  31
HETATM   31  N5  UNL     1       8.549   7.362 -20.924  1.00  0.00    -0.313 N
ATOM     32  H5  UNL     1       8.060   6.899 -20.158  1.00  0.00     0.172 HD
BRANCH  31  33
HETATM   33  S1  UNL     1       8.232   7.116 -22.613  1.00  0.00     0.258 S
HETATM   34  O2  UNL     1       7.113   6.110 -22.695  1.00  0.00    -0.201 OA
HETATM   35  O3  UNL     1       9.480   6.547 -23.239  1.00  0.00    -0.201 OA
BRANCH  33  36
HETATM   36  C17 UNL     1       7.779   8.635 -23.370  1.00  0.00     0.079 A
HETATM   37  C18 UNL     1       6.487   9.117 -23.330  1.00  0.00     0.026 A
HETATM   38  C19 UNL     1       6.168  10.315 -23.935  1.00  0.00     0.008 A
HETATM   39  C20 UNL     1       7.104  11.079 -24.599  1.00  0.00    -0.062 A
HETATM   40  C21 UNL     1       6.721  12.376 -25.245  1.00  0.00     0.048 C
HETATM   41  C22 UNL     1       8.396  10.598 -24.639  1.00  0.00     0.008 A
HETATM   42  C23 UNL     1       8.720   9.401 -24.036  1.00  0.00     0.026 A
ENDBRANCH  33  36
ENDBRANCH  31  33
ENDBRANCH  30  31
ENDBRANCH   7  30
TORSDOF 9
ENDMDL