MODEL 5
REMARK VINA RESULT: -6.247351768      3.888      7.305
REMARK  11 active torsions:
REMARK  status: ('A' for Active; 'I' for Inactive)
REMARK    1  A    between atoms: C2_3  and  C3_4
REMARK    2  A    between atoms: C3_4  and  C6_7
REMARK    3  A    between atoms: C6_7  and  N2_8
REMARK       I    between atoms: N2_8  and  C7_10
REMARK       I    between atoms: C7_10  and  N3_12
REMARK    4  A    between atoms: N4_15  and  C10_16
REMARK    5  A    between atoms: C10_16  and  C11_17
REMARK    6  A    between atoms: C11_17  and  O2_18
REMARK    7  A    between atoms: C11_17  and  C12_20
REMARK    8  A    between atoms: C12_20  and  C13_21
REMARK    9  A    between atoms: N5_28  and  C19_30
REMARK   10  A    between atoms: C19_30  and  N6_32
REMARK   11  A    between atoms: N6_32  and  C21_34
ROOT
HETATM    1  C1  UNL     1       7.863   8.261 -22.464  1.00  0.00     0.227 C
HETATM    2  N1  UNL     1       6.758   8.366 -22.121  1.00  0.00    -0.445 NA
HETATM    3  C2  UNL     1       5.418   8.474 -21.701  1.00  0.00     0.167 C
ENDROOT
BRANCH   3   4
HETATM    4  C3  UNL     1       5.436   8.361 -20.181  1.00  0.00     0.029 C
HETATM    5  C4  UNL     1       3.959   8.629 -19.713  1.00  0.00     0.027 C
HETATM    6  C5  UNL     1       6.230   9.417 -19.506  1.00  0.00     0.027 C
BRANCH   4   7
HETATM    7  C6  UNL     1       5.700   6.942 -19.815  1.00  0.00     0.081 C
BRANCH   7   8
HETATM    8  N2  UNL     1       6.864   6.605 -19.101  1.00  0.00    -0.321 N
HETATM    9  C7  UNL     1       7.981   5.859 -19.521  1.00  0.00     0.322 C
HETATM   10  O1  UNL     1       8.122   5.364 -20.656  1.00  0.00    -0.247 OA
HETATM   11  N3  UNL     1       9.083   5.613 -18.611  1.00  0.00    -0.324 N
HETATM   12  C8  UNL     1      10.194   4.852 -19.070  1.00  0.00     0.148 C
HETATM   13  C26 UNL     1       8.967   6.173 -17.279  1.00  0.00     0.230 C
HETATM   14  C9  UNL     1      11.519   5.206 -18.486  1.00  0.00     0.146 C
HETATM   15  N4  UNL     1      11.457   5.860 -17.207  1.00  0.00    -0.347 N
HETATM   16  C25 UNL     1      10.214   5.993 -16.497  1.00  0.00     0.237 C
HETATM   17  O4  UNL     1      10.240   5.950 -15.245  1.00  0.00    -0.272 OA
ATOM     18  H2  UNL     1       6.905   6.951 -18.142  1.00  0.00     0.169 HD
BRANCH  15  19
HETATM   19  C10 UNL     1      12.680   6.390 -16.641  1.00  0.00     0.157 C
BRANCH  19  20
HETATM   20  C11 UNL     1      12.735   7.902 -16.691  1.00  0.00     0.140 C
BRANCH  20  21
HETATM   21  O2  UNL     1      13.428   8.400 -15.620  1.00  0.00    -0.394 OA
ATOM     22  H2  UNL     1      12.838   8.635 -14.913  1.00  0.00     0.210 HD
ENDBRANCH  20  21
BRANCH  20  23
HETATM   23  C12 UNL     1      13.373   8.265 -18.014  1.00  0.00     0.072 C
BRANCH  23  24
HETATM   24  C13 UNL     1      12.432   8.928 -18.945  1.00  0.00    -0.053 A
HETATM   25  C14 UNL     1      12.497   8.756 -20.322  1.00  0.00     0.017 A
HETATM   26  C15 UNL     1      11.639   9.360 -21.190  1.00  0.00    -0.025 A
HETATM   27  C16 UNL     1      11.733   9.156 -22.658  1.00  0.00     0.051 C
HETATM   28  C17 UNL     1      10.647  10.188 -20.716  1.00  0.00     0.112 A
HETATM   29  O3  UNL     1       9.714  10.878 -21.287  1.00  0.00    -0.276 OA
HETATM   30  C23 UNL     1      10.551  10.384 -19.343  1.00  0.00     0.070 A
HETATM   31  C18 UNL     1       8.985  11.532 -20.409  1.00  0.00     0.230 A
HETATM   32  N5  UNL     1       7.992  12.300 -20.628  1.00  0.00    -0.312 N
HETATM   33  N7  UNL     1       9.509  11.222 -19.195  1.00  0.00    -0.319 N
ATOM     34  H5  UNL     1       7.524  12.739 -19.835  1.00  0.00     0.170 HD
ATOM     35  H7  UNL     1       9.164  11.574 -18.302  1.00  0.00     0.169 HD
HETATM   36  C24 UNL     1      11.434   9.759 -18.483  1.00  0.00     0.039 A
BRANCH  32  37
HETATM   37  C19 UNL     1       7.519  12.561 -21.930  1.00  0.00     0.075 C
HETATM   38  C20 UNL     1       7.693  13.930 -22.480  1.00  0.00     0.089 C
BRANCH  37  39
HETATM   39  N6  UNL     1       6.942  11.671 -22.674  1.00  0.00    -0.380 N
ATOM     40  H6  UNL     1       6.261  11.022 -22.281  1.00  0.00     0.160 HD
BRANCH  39  41
HETATM   41  C21 UNL     1       7.289  11.622 -24.082  1.00  0.00     0.116 C
HETATM   42  C22 UNL     1       6.284  10.765 -24.815  1.00  0.00     0.026 C
ENDBRANCH  39  41
ENDBRANCH  37  39
ENDBRANCH  32  37
ENDBRANCH  23  24
ENDBRANCH  20  23
ENDBRANCH  19  20
ENDBRANCH  15  19
ENDBRANCH   7   8
ENDBRANCH   4   7
ENDBRANCH   3   4
TORSDOF 11
ENDMDL