MODEL 4
REMARK VINA RESULT: -6.295636355      1.886      2.935
REMARK  12 active torsions:
REMARK  status: ('A' for Active; 'I' for Inactive)
REMARK    1  A    between atoms: C2_2  and  C3_3
REMARK    2  A    between atoms: C4_4  and  C5_5
REMARK    3  A    between atoms: C5_5  and  C6_6
REMARK    4  A    between atoms: C8_11  and  C9_12
REMARK    5  A    between atoms: C9_12  and  C10_13
REMARK    6  A    between atoms: C10_13  and  N2_14
REMARK    7  A    between atoms: N2_14  and  C11_16
REMARK    8  A    between atoms: C15_20  and  S1_21
REMARK    9  A    between atoms: S1_21  and  N3_22
REMARK   10  A    between atoms: N5_32  and  C18_33
REMARK   11  A    between atoms: C18_33  and  C19_34
REMARK   12  A    between atoms: C19_34  and  C20_35
ROOT
HETATM    1  C6  UNL     1       8.157   7.901 -19.683  1.00  0.00     0.079 A
HETATM    2  N1  UNL     1       8.864   8.978 -19.354  1.00  0.00    -0.317 N
ATOM      3  H1  UNL     1       9.700   8.893 -18.775  1.00  0.00     0.169 HD
HETATM    4  C7  UNL     1       8.471  10.147 -19.786  1.00  0.00     0.263 A
HETATM    5  O1  UNL     1       9.141  11.215 -19.482  1.00  0.00    -0.267 OA
HETATM    6  C8  UNL     1       7.357  10.226 -20.552  1.00  0.00     0.076 A
HETATM    7  S2  UNL     1       6.892   8.556 -20.631  1.00  0.00    -0.067 SA
ENDROOT
BRANCH   1   8
HETATM    8  C5  UNL     1       8.373   6.610 -19.351  1.00  0.00     0.068 C
BRANCH   8   9
HETATM    9  C4  UNL     1       9.728   6.120 -19.458  1.00  0.00     0.058 A
HETATM   10  C3  UNL     1      10.609   6.015 -18.403  1.00  0.00     0.039 A
HETATM   11  N5  UNL     1      11.774   5.529 -18.842  1.00  0.00    -0.344 N
HETATM   12  C17 UNL     1      11.615   5.332 -20.184  1.00  0.00     0.183 A
HETATM   13  N4  UNL     1      10.380   5.691 -20.544  1.00  0.00    -0.351 N
ATOM     14  H4  UNL     1       9.999   5.644 -21.488  1.00  0.00     0.166 HD
BRANCH  10  15
HETATM   15  C2  UNL     1      10.323   6.452 -17.016  1.00  0.00     0.055 C
HETATM   16  C1  UNL     1       9.952   5.382 -16.060  1.00  0.00     0.011 C
ENDBRANCH  10  15
BRANCH  11  17
HETATM   17  C18 UNL     1      13.005   5.207 -18.148  1.00  0.00     0.134 C
BRANCH  17  18
HETATM   18  C19 UNL     1      14.033   6.264 -18.096  1.00  0.00     0.058 C
BRANCH  18  19
HETATM   19  C20 UNL     1      13.676   7.526 -17.460  1.00  0.00    -0.057 A
HETATM   20  C21 UNL     1      13.762   7.661 -16.072  1.00  0.00     0.007 A
HETATM   21  C22 UNL     1      13.447   8.832 -15.419  1.00  0.00     0.001 A
HETATM   22  C23 UNL     1      13.032   9.896 -16.202  1.00  0.00     0.000 A
HETATM   23  C24 UNL     1      12.928   9.818 -17.573  1.00  0.00     0.001 A
HETATM   24  C25 UNL     1      13.254   8.630 -18.184  1.00  0.00     0.007 A
ENDBRANCH  18  19
ENDBRANCH  17  18
ENDBRANCH  11  17
ENDBRANCH   8   9
ENDBRANCH   1   8
BRANCH   6  25
HETATM   25  C9  UNL     1       6.725  11.237 -21.120  1.00  0.00     0.041 C
BRANCH  25  26
HETATM   26  C10 UNL     1       7.236  12.021 -22.203  1.00  0.00     0.090 C
BRANCH  26  27
HETATM   27  N2  UNL     1       8.241  12.819 -21.999  1.00  0.00    -0.366 N
ATOM     28  H2  UNL     1       9.179  12.484 -22.218  1.00  0.00     0.165 HD
BRANCH  27  29
HETATM   29  C11 UNL     1       8.096  14.131 -21.489  1.00  0.00     0.033 A
HETATM   30  C12 UNL     1       7.801  14.390 -20.168  1.00  0.00     0.029 A
HETATM   31  C13 UNL     1       7.668  15.685 -19.708  1.00  0.00     0.004 A
HETATM   32  C14 UNL     1       7.830  16.769 -20.568  1.00  0.00     0.025 A
HETATM   33  C15 UNL     1       8.126  16.526 -21.897  1.00  0.00     0.081 A
HETATM   34  C16 UNL     1       8.254  15.225 -22.337  1.00  0.00     0.054 A
BRANCH  33  35
HETATM   35  S1  UNL     1       8.346  17.840 -23.049  1.00  0.00     0.256 S
HETATM   36  O2  UNL     1       7.820  19.119 -22.461  1.00  0.00    -0.201 OA
HETATM   37  O3  UNL     1       7.581  17.587 -24.317  1.00  0.00    -0.201 OA
BRANCH  35  38
HETATM   38  N3  UNL     1      10.007  18.021 -23.446  1.00  0.00    -0.324 N
ATOM     39  H32 UNL     1      10.612  18.739 -23.049  1.00  0.00     0.169 HD
ATOM     40  H31 UNL     1      10.291  17.315 -24.125  1.00  0.00     0.169 HD
ENDBRANCH  35  38
ENDBRANCH  33  35
ENDBRANCH  27  29
ENDBRANCH  26  27
ENDBRANCH  25  26
ENDBRANCH   6  25
TORSDOF 12
ENDMDL