MODEL 2
REMARK VINA RESULT: -6.934039559      1.953      3.039
REMARK  9 active torsions:
REMARK  status: ('A' for Active; 'I' for Inactive)
REMARK    1  A    between atoms: C5_5  and  C6_6
REMARK    2  A    between atoms: C6_6  and  C7_7
REMARK    3  A    between atoms: C7_7  and  C8_8
REMARK       I    between atoms: C8_8  and  N1_10
REMARK    4  A    between atoms: N1_10  and  C9_12
REMARK    5  A    between atoms: C10_17  and  C11_18
REMARK    6  A    between atoms: C11_18  and  C12_19
REMARK    7  A    between atoms: C12_19  and  C13_20
REMARK    8  A    between atoms: C13_20  and  C14_21
REMARK    9  A    between atoms: C14_21  and  C15_22
ROOT
HETATM    1  C11 UNL     1      11.673  10.711 -22.781  1.00  0.00     0.066 C
ENDROOT
BRANCH   1   2
HETATM    2  C10 UNL     1      10.783   9.790 -21.986  1.00  0.00     0.069 A
HETATM    3  N3  UNL     1      10.463   9.778 -20.708  1.00  0.00    -0.296 N
HETATM    4  N2  UNL     1       9.691   8.892 -20.233  1.00  0.00    -0.279 N
ATOM      5  H3  UNL     1      10.843  10.494 -20.090  1.00  0.00     0.187 HD
HETATM    6  C9  UNL     1       9.199   7.958 -21.052  1.00  0.00     0.167 A
ATOM      7  H2  UNL     1       9.450   8.892 -19.242  1.00  0.00     0.189 HD
HETATM    8  S1  UNL     1       9.904   8.418 -22.551  1.00  0.00    -0.038 SA
BRANCH   6   9
HETATM    9  N1  UNL     1       8.403   6.948 -20.789  1.00  0.00    -0.306 N
HETATM   10  C8  UNL     1       7.569   6.964 -19.631  1.00  0.00     0.223 C
HETATM   11  O1  UNL     1       8.128   7.204 -18.507  1.00  0.00    -0.273 OA
ATOM     12  H1  UNL     1       8.379   6.145 -21.417  1.00  0.00     0.171 HD
BRANCH  10  13
HETATM   13  C7  UNL     1       6.142   6.710 -19.747  1.00  0.00     0.108 C
BRANCH  13  14
HETATM   14  C6  UNL     1       5.222   7.876 -19.836  1.00  0.00     0.048 C
BRANCH  14  15
HETATM   15  C5  UNL     1       5.759   9.025 -20.586  1.00  0.00    -0.058 A
HETATM   16  C4  UNL     1       6.266  10.135 -19.895  1.00  0.00     0.007 A
HETATM   17  C3  UNL     1       6.797  11.215 -20.546  1.00  0.00     0.007 A
HETATM   18  C2  UNL     1       6.858  11.258 -21.911  1.00  0.00    -0.062 A
HETATM   19  C1  UNL     1       7.439  12.451 -22.590  1.00  0.00     0.048 C
HETATM   20  C27 UNL     1       6.369  10.182 -22.611  1.00  0.00     0.007 A
HETATM   21  C26 UNL     1       5.832   9.091 -21.953  1.00  0.00     0.007 A
ENDBRANCH  14  15
ENDBRANCH  13  14
ENDBRANCH  10  13
ENDBRANCH   6   9
ENDBRANCH   1   2
BRANCH   1  22
HETATM   22  C12 UNL     1      11.084  12.071 -22.986  1.00  0.00     0.007 C
BRANCH  22  23
HETATM   23  C13 UNL     1      11.659  12.772 -24.165  1.00  0.00     0.005 C
BRANCH  23  24
HETATM   24  C14 UNL     1      11.706  14.262 -23.984  1.00  0.00     0.038 C
BRANCH  24  25
HETATM   25  C15 UNL     1      10.343  14.846 -23.897  1.00  0.00    -0.057 A
HETATM   26  C16 UNL     1       9.558  14.856 -25.062  1.00  0.00     0.009 A
HETATM   27  C17 UNL     1       8.283  15.349 -25.093  1.00  0.00     0.031 A
HETATM   28  C18 UNL     1       7.746  15.864 -23.902  1.00  0.00     0.046 A
HETATM   29  C19 UNL     1       8.482  15.870 -22.746  1.00  0.00     0.009 A
HETATM   30  N6  UNL     1       6.446  16.413 -23.662  1.00  0.00    -0.319 N
HETATM   31  C20 UNL     1       9.782  15.354 -22.766  1.00  0.00     0.019 A
HETATM   32  C21 UNL     1       7.672  16.472 -21.688  1.00  0.00     0.161 A
HETATM   33  C22 UNL     1       8.366  17.747 -21.244  1.00  0.00     0.171 C
HETATM   34  N5  UNL     1       7.565  15.649 -20.504  1.00  0.00    -0.319 N
HETATM   35  C24 UNL     1       6.377  16.774 -22.300  1.00  0.00     0.259 A
HETATM   36  N4  UNL     1       7.942  17.870 -19.871  1.00  0.00    -0.340 N
HETATM   37  C23 UNL     1       7.652  16.553 -19.396  1.00  0.00     0.317 C
ATOM     38  H4  UNL     1       7.865  18.736 -19.337  1.00  0.00     0.164 HD
HETATM   39  O2  UNL     1       7.502  16.263 -18.190  1.00  0.00    -0.247 OA
ATOM     40  H5  UNL     1       7.452  14.635 -20.466  1.00  0.00     0.166 HD
HETATM   41  O3  UNL     1       5.337  17.275 -21.745  1.00  0.00    -0.270 OA
HETATM   42  C25 UNL     1       5.402  16.561 -24.669  1.00  0.00     0.159 C
ENDBRANCH  24  25
ENDBRANCH  23  24
ENDBRANCH  22  23
ENDBRANCH   1  22
TORSDOF 9
ENDMDL