MODEL 1
REMARK VINA RESULT: -6.905484159      0.000      0.000
REMARK  9 active torsions:
REMARK  status: ('A' for Active; 'I' for Inactive)
REMARK    1  A    between atoms: C4_5  and  C5_6
REMARK       I    between atoms: C5_6  and  N2_8
REMARK    2  A    between atoms: N3_11  and  C8_12
REMARK    3  A    between atoms: C8_12  and  C9_13
REMARK       I    between atoms: C9_13  and  N4_15
REMARK    4  A    between atoms: N4_15  and  C10_17
REMARK    5  A    between atoms: C10_17  and  C11_18
REMARK    6  A    between atoms: C14_21  and  C15_22
REMARK    7  A    between atoms: C15_22  and  N5_23
REMARK    8  A    between atoms: C19_27  and  C20_28
REMARK    9  A    between atoms: C27_37  and  O3_38
ROOT
HETATM    1  N1  UNL     1       8.063  16.871 -17.593  1.00  0.00    -0.191 NA
HETATM    2  C1  UNL     1       7.925  16.449 -18.671  1.00  0.00     0.102 C
HETATM    3  C2  UNL     1       7.731  15.929 -19.985  1.00  0.00     0.078 A
HETATM    4  C3  UNL     1       7.892  14.584 -20.246  1.00  0.00     0.042 A
HETATM    5  C4  UNL     1       7.719  14.038 -21.491  1.00  0.00     0.034 A
HETATM    6  C25 UNL     1       7.360  14.926 -22.513  1.00  0.00     0.020 A
HETATM    7  C26 UNL     1       7.195  16.271 -22.266  1.00  0.00     0.039 A
HETATM    8  C27 UNL     1       7.379  16.799 -20.990  1.00  0.00     0.086 A
ENDROOT
BRANCH   8   9
HETATM    9  O3  UNL     1       7.199  18.162 -20.808  1.00  0.00    -0.359 OA
ATOM     10  H3  UNL     1       7.533  18.826 -21.400  1.00  0.00     0.217 HD
ENDBRANCH   8   9
BRANCH   5  11
HETATM   11  C5  UNL     1       7.888  12.654 -21.859  1.00  0.00     0.262 C
HETATM   12  O1  UNL     1       6.898  11.876 -21.674  1.00  0.00    -0.267 OA
HETATM   13  N2  UNL     1       9.074  12.123 -22.406  1.00  0.00    -0.283 N
HETATM   14  C6  UNL     1      10.230  12.730 -22.705  1.00  0.00     0.118 A
HETATM   15  C24 UNL     1       9.287  10.814 -22.743  1.00  0.00     0.193 A
HETATM   16  C7  UNL     1      11.125  11.823 -23.210  1.00  0.00     0.110 A
HETATM   17  N3  UNL     1      10.512  10.631 -23.224  1.00  0.00    -0.343 N
BRANCH  17  18
HETATM   18  C8  UNL     1      11.136   9.393 -23.694  1.00  0.00     0.231 C
BRANCH  18  19
HETATM   19  C9  UNL     1      12.473   9.346 -23.020  1.00  0.00     0.236 C
HETATM   20  O2  UNL     1      13.540   9.494 -23.635  1.00  0.00    -0.272 OA
HETATM   21  N4  UNL     1      12.489   9.124 -21.624  1.00  0.00    -0.355 N
ATOM     22  H4  UNL     1      11.616   9.002 -21.111  1.00  0.00     0.162 HD
BRANCH  21  23
HETATM   23  C10 UNL     1      13.757   9.074 -20.936  1.00  0.00     0.161 C
BRANCH  23  24
HETATM   24  C11 UNL     1      13.530   8.489 -19.580  1.00  0.00    -0.041 A
HETATM   25  C12 UNL     1      13.071   9.270 -18.530  1.00  0.00     0.009 A
HETATM   26  C13 UNL     1      12.857   8.750 -17.263  1.00  0.00     0.009 A
HETATM   27  C14 UNL     1      13.096   7.417 -17.004  1.00  0.00    -0.040 A
HETATM   28  C22 UNL     1      13.554   6.633 -18.050  1.00  0.00     0.009 A
HETATM   29  C23 UNL     1      13.767   7.157 -19.313  1.00  0.00     0.009 A
BRANCH  27  30
HETATM   30  C15 UNL     1      12.884   6.800 -15.679  1.00  0.00     0.166 C
BRANCH  30  31
HETATM   31  N5  UNL     1      12.092   5.586 -15.757  1.00  0.00    -0.361 N
HETATM   32  C16 UNL     1      12.604   4.356 -15.780  1.00  0.00     0.090 A
HETATM   33  C17 UNL     1      11.753   3.265 -15.852  1.00  0.00     0.018 A
HETATM   34  C18 UNL     1      10.372   3.404 -15.904  1.00  0.00     0.017 A
HETATM   35  C19 UNL     1       9.879   4.691 -15.878  1.00  0.00     0.015 A
HETATM   36  C21 UNL     1      10.760   5.747 -15.805  1.00  0.00     0.105 A
BRANCH  35  37
HETATM   37  C20 UNL     1       8.426   4.905 -15.931  1.00  0.00     0.124 C
HETATM   38  N6  UNL     1       7.921   6.092 -16.511  1.00  0.00    -0.089 NA
HETATM   39  S1  UNL     1       7.393   3.808 -15.338  1.00  0.00    -0.063 SA
ENDBRANCH  35  37
ENDBRANCH  30  31
ENDBRANCH  27  30
ENDBRANCH  23  24
ENDBRANCH  21  23
ENDBRANCH  18  19
ENDBRANCH  17  18
ENDBRANCH   5  11
TORSDOF 9
ENDMDL