MODEL 3
REMARK VINA RESULT: -6.337237554      3.683      4.979
REMARK  10 active torsions:
REMARK  status: ('A' for Active; 'I' for Inactive)
REMARK    1  A    between atoms: C1_2  and  C2_3
REMARK       I    between atoms: C1_2  and  N6_34
REMARK    2  A    between atoms: C2_3  and  N1_4
REMARK    3  A    between atoms: N1_4  and  C3_6
REMARK    4  A    between atoms: N3_11  and  C5_12
REMARK    5  A    between atoms: C5_12  and  C6_13
REMARK    6  A    between atoms: C12_19  and  N4_20
REMARK    7  A    between atoms: N4_20  and  C13_22
REMARK    8  A    between atoms: N6_34  and  C23_36
REMARK    9  A    between atoms: C23_36  and  C24_37
REMARK   10  A    between atoms: C24_37  and  N7_38
ROOT
HETATM    1  C3  UNL     1      11.083  14.809 -24.076  1.00  0.00     0.697 A
HETATM    2  N2  UNL     1      10.253  15.807 -24.382  1.00  0.00    -0.140 N
ATOM      3  H2  UNL     1      10.479  16.410 -25.173  1.00  0.00     0.189 HD
HETATM    4  C4  UNL     1       9.108  16.050 -23.673  1.00  0.00     0.355 A
HETATM    5  O2  UNL     1       8.418  17.007 -24.058  1.00  0.00    -0.245 OA
HETATM    6  N3  UNL     1       8.826  15.248 -22.639  1.00  0.00    -0.127 N
HETATM    7  C12 UNL     1       9.657  14.242 -22.327  1.00  0.00     0.703 A
HETATM    8  N5  UNL     1      10.761  14.029 -23.032  1.00  0.00    -0.022 N
ATOM      9  H5  UNL     1      11.377  13.258 -22.775  1.00  0.00     0.203 HD
ENDROOT
BRANCH   1  10
HETATM   10  N1  UNL     1      12.179  14.562 -24.753  1.00  0.00    -0.217 N
ATOM     11  H1  UNL     1      12.351  15.028 -25.643  1.00  0.00     0.178 HD
BRANCH  10  12
HETATM   12  C2  UNL     1      13.130  13.634 -24.231  1.00  0.00     0.240 C
BRANCH  12  13
HETATM   13  C1  UNL     1      14.483  14.203 -24.080  1.00  0.00     0.235 C
HETATM   14  O1  UNL     1      14.920  14.985 -24.980  1.00  0.00    -0.272 OA
HETATM   15  N6  UNL     1      15.264  13.874 -22.955  1.00  0.00    -0.358 N
ATOM     16  H6  UNL     1      14.897  13.235 -22.250  1.00  0.00     0.162 HD
BRANCH  15  17
HETATM   17  C23 UNL     1      16.588  14.438 -22.797  1.00  0.00     0.143 C
BRANCH  17  18
HETATM   18  C24 UNL     1      17.175  13.992 -21.491  1.00  0.00     0.147 C
BRANCH  18  19
HETATM   19  N7  UNL     1      17.630  15.221 -20.818  1.00  0.00    -0.365 N
HETATM   20  C25 UNL     1      18.620  15.148 -19.916  1.00  0.00     0.090 A
HETATM   21  C26 UNL     1      19.028  16.330 -19.295  1.00  0.00     0.017 A
HETATM   22  C27 UNL     1      18.432  17.548 -19.596  1.00  0.00     0.003 A
HETATM   23  C28 UNL     1      17.416  17.579 -20.531  1.00  0.00     0.017 A
HETATM   24  C29 UNL     1      17.053  16.397 -21.110  1.00  0.00     0.090 A
ENDBRANCH  18  19
ENDBRANCH  17  18
ENDBRANCH  15  17
ENDBRANCH  12  13
ENDBRANCH  10  12
ENDBRANCH   1  10
BRANCH   7  25
HETATM   25  N4  UNL     1       9.359  13.422 -21.338  1.00  0.00    -0.191 N
ATOM     26  H4  UNL     1       9.781  13.553 -20.418  1.00  0.00     0.184 HD
BRANCH  25  27
HETATM   27  C13 UNL     1       8.443  12.347 -21.559  1.00  0.00     0.050 A
HETATM   28  C14 UNL     1       8.223  11.838 -22.826  1.00  0.00     0.031 A
HETATM   29  C15 UNL     1       7.347  10.803 -23.084  1.00  0.00     0.014 A
HETATM   30  C16 UNL     1       6.646  10.234 -22.041  1.00  0.00    -0.026 A
HETATM   31  C17 UNL     1       5.753   9.194 -22.238  1.00  0.00     0.012 A
HETATM   32  C21 UNL     1       6.842  10.719 -20.764  1.00  0.00    -0.024 A
HETATM   33  C18 UNL     1       5.084   8.671 -21.152  1.00  0.00     0.001 A
HETATM   34  C19 UNL     1       5.256   9.130 -19.863  1.00  0.00     0.001 A
HETATM   35  C20 UNL     1       6.150  10.169 -19.693  1.00  0.00     0.012 A
HETATM   36  C22 UNL     1       7.734  11.769 -20.525  1.00  0.00     0.042 A
ENDBRANCH  25  27
ENDBRANCH   7  25
BRANCH   6  37
HETATM   37  C5  UNL     1       7.600  15.493 -21.911  1.00  0.00     0.191 C
BRANCH  37  38
HETATM   38  C6  UNL     1       7.828  16.138 -20.614  1.00  0.00    -0.039 A
HETATM   39  C7  UNL     1       8.425  17.347 -20.406  1.00  0.00     0.009 A
HETATM   40  C8  UNL     1       8.632  17.905 -19.133  1.00  0.00     0.001 A
HETATM   41  C9  UNL     1       8.218  17.210 -18.029  1.00  0.00     0.000 A
HETATM   42  C10 UNL     1       7.613  15.986 -18.212  1.00  0.00     0.001 A
HETATM   43  C11 UNL     1       7.416  15.449 -19.460  1.00  0.00     0.009 A
ENDBRANCH  37  38
ENDBRANCH   6  37
TORSDOF 10
ENDMDL