MODEL 2
REMARK VINA RESULT: -5.877404562      4.435      9.707
REMARK  10 active torsions:
REMARK  status: ('A' for Active; 'I' for Inactive)
REMARK    1  A    between atoms: S1_2  and  C2_3
REMARK    2  A    between atoms: C2_3  and  C3_4
REMARK    3  A    between atoms: C3_4  and  C4_5
REMARK    4  A    between atoms: N1_8  and  C6_9
REMARK    5  A    between atoms: C6_9  and  C7_10
REMARK    6  A    between atoms: C10_13  and  C11_14
REMARK    7  A    between atoms: C14_21  and  O2_22
REMARK    8  A    between atoms: C18_29  and  O3_30
REMARK    9  A    between atoms: C19_32  and  C20_33
REMARK   10  A    between atoms: C20_33  and  C21_34
ROOT
HETATM    1  C4  UNL     1      10.590   9.798 -22.214  1.00  0.00     0.171 C
HETATM    2  C5  UNL     1       9.747  11.000 -22.027  1.00  0.00     0.239 C
HETATM    3  O1  UNL     1      10.435  12.058 -21.750  1.00  0.00    -0.272 OA
HETATM    4  N1  UNL     1       8.335  11.135 -22.109  1.00  0.00    -0.295 N
HETATM    5  C14 UNL     1       7.378  10.283 -21.494  1.00  0.00     0.149 C
HETATM    6  C15 UNL     1       7.228   9.722 -20.183  1.00  0.00     0.089 C
HETATM    7  C16 UNL     1       6.122  10.503 -19.386  1.00  0.00     0.047 C
HETATM    8  C17 UNL     1       6.514   8.346 -20.322  1.00  0.00     0.047 C
HETATM    9  N4  UNL     1       8.281   9.477 -19.294  1.00  0.00    -0.357 N
ATOM     10  H4  UNL     1       7.996   9.675 -18.334  1.00  0.00     0.162 HD
HETATM   11  C18 UNL     1       9.596   9.044 -19.337  1.00  0.00     0.136 C
HETATM   12  C19 UNL     1      10.227   7.856 -19.917  1.00  0.00     0.161 C
HETATM   13  N5  UNL     1       9.829   7.526 -21.271  1.00  0.00    -0.344 N
HETATM   14  C24 UNL     1       9.418   6.154 -21.631  1.00  0.00     0.153 C
HETATM   15  C25 UNL     1       9.854   8.521 -22.255  1.00  0.00     0.233 C
HETATM   16  O4  UNL     1       9.153   8.276 -23.301  1.00  0.00    -0.272 OA
ENDROOT
BRANCH   4  17
HETATM   17  C6  UNL     1       7.861  12.285 -22.928  1.00  0.00     0.172 C
BRANCH  17  18
HETATM   18  C7  UNL     1       7.980  13.571 -22.237  1.00  0.00    -0.040 A
HETATM   19  C8  UNL     1       8.466  14.705 -22.802  1.00  0.00     0.010 A
HETATM   20  C9  UNL     1       8.565  15.906 -22.137  1.00  0.00     0.015 A
HETATM   21  C10 UNL     1       8.158  15.999 -20.833  1.00  0.00     0.004 A
HETATM   22  C12 UNL     1       7.655  14.857 -20.223  1.00  0.00     0.015 A
HETATM   23  C13 UNL     1       7.568  13.654 -20.924  1.00  0.00     0.010 A
BRANCH  21  24
HETATM   24  C11 UNL     1       8.241  17.262 -20.070  1.00  0.00     0.120 C
HETATM   25  N2  UNL     1       8.277  18.375 -20.675  1.00  0.00    -0.387 N
ATOM     26  H22 UNL     1       8.250  18.394 -21.695  1.00  0.00     0.157 HD
ATOM     27  H21 UNL     1       8.335  19.246 -20.148  1.00  0.00     0.157 HD
HETATM   28  N3  UNL     1       8.279  17.236 -18.650  1.00  0.00    -0.082 NA
ENDBRANCH  21  24
ENDBRANCH  17  18
ENDBRANCH   4  17
BRANCH   5  29
HETATM   29  O2  UNL     1       6.440   9.967 -22.344  1.00  0.00    -0.347 OA
ATOM     30  H2  UNL     1       5.901   9.267 -21.995  1.00  0.00     0.219 HD
ENDBRANCH   5  29
BRANCH   1  31
HETATM   31  C3  UNL     1      11.243   9.918 -23.575  1.00  0.00     0.034 C
BRANCH  31  32
HETATM   32  C2  UNL     1      12.519   9.189 -23.757  1.00  0.00     0.075 C
BRANCH  32  33
HETATM   33  S1  UNL     1      13.470   9.450 -22.195  1.00  0.00    -0.173 SA
HETATM   34  C1  UNL     1      13.705   7.836 -21.365  1.00  0.00     0.089 C
ENDBRANCH  32  33
ENDBRANCH  31  32
ENDBRANCH   1  31
BRANCH  11  35
HETATM   35  O3  UNL     1      10.423   9.859 -18.742  1.00  0.00    -0.348 OA
ATOM     36  H3  UNL     1      10.090  10.193 -17.918  1.00  0.00     0.219 HD
ENDBRANCH  11  35
BRANCH  12  37
HETATM   37  C20 UNL     1      10.156   6.599 -19.125  1.00  0.00     0.037 C
BRANCH  37  38
HETATM   38  C21 UNL     1       9.634   6.642 -17.751  1.00  0.00    -0.020 C
HETATM   39  C22 UNL     1       8.571   5.684 -17.363  1.00  0.00     0.009 C
HETATM   40  C23 UNL     1      10.832   6.352 -16.823  1.00  0.00     0.009 C
ENDBRANCH  37  38
ENDBRANCH  12  37
TORSDOF 10
ENDMDL