MODEL 3
REMARK VINA RESULT: -4.784299950      2.430      3.329
REMARK  10 active torsions:
REMARK  status: ('A' for Active; 'I' for Inactive)
REMARK    1  A    between atoms: C2_2  and  C3_3
REMARK    2  A    between atoms: C3_3  and  C4_4
REMARK    3  A    between atoms: C4_4  and  C5_5
REMARK    4  A    between atoms: C10_16  and  C11_17
REMARK    5  A    between atoms: C11_17  and  C12_18
REMARK    6  A    between atoms: C15_24  and  C16_25
REMARK    7  A    between atoms: C16_25  and  C17_26
REMARK    8  A    between atoms: N4_29  and  S1_30
REMARK    9  A    between atoms: S1_30  and  C21_33
REMARK   10  A    between atoms: C24_37  and  O5_38
ROOT
HETATM    1  C5  UNL     1       8.461  18.724 -22.658  1.00  0.00     0.064 C
HETATM    2  N1  UNL     1       8.741  18.176 -21.335  1.00  0.00    -0.327 N
ATOM      3  H1  UNL     1       9.622  18.463 -20.908  1.00  0.00     0.168 HD
HETATM    4  C6  UNL     1       7.950  17.307 -20.584  1.00  0.00     0.223 C
HETATM    5  O1  UNL     1       7.739  17.636 -19.361  1.00  0.00    -0.273 OA
HETATM    6  C7  UNL     1       7.311  16.043 -21.005  1.00  0.00     0.122 C
HETATM    7  C8  UNL     1       8.097  14.811 -20.618  1.00  0.00     0.132 C
HETATM    8  N2  UNL     1       9.285  14.592 -21.377  1.00  0.00    -0.359 N
ATOM      9  H2  UNL     1      10.121  15.089 -21.069  1.00  0.00     0.162 HD
HETATM   10  C9  UNL     1       9.427  13.758 -22.514  1.00  0.00     0.240 C
HETATM   11  O2  UNL     1      10.401  12.925 -22.516  1.00  0.00    -0.271 OA
HETATM   12  C10 UNL     1       8.562  13.755 -23.700  1.00  0.00     0.176 C
HETATM   13  N3  UNL     1       9.148  14.443 -24.858  1.00  0.00    -0.346 N
ATOM     14  H3  UNL     1      10.161  14.397 -24.961  1.00  0.00     0.163 HD
HETATM   15  C14 UNL     1       8.446  15.149 -25.825  1.00  0.00     0.243 C
HETATM   16  O3  UNL     1       8.680  14.904 -27.049  1.00  0.00    -0.271 OA
HETATM   17  C15 UNL     1       7.390  16.220 -25.523  1.00  0.00     0.209 C
HETATM   18  N4  UNL     1       7.854  17.490 -25.836  1.00  0.00    -0.233 N
HETATM   19  N5  UNL     1       9.013  17.794 -25.055  1.00  0.00    -0.264 N
HETATM   20  C23 UNL     1      10.231  17.907 -25.894  1.00  0.00     0.181 C
HETATM   21  C24 UNL     1       9.166  17.996 -23.705  1.00  0.00     0.180 C
ENDROOT
BRANCH  18  22
HETATM   22  S1  UNL     1       7.693  18.475 -27.358  1.00  0.00     0.037 S
HETATM   23  C20 UNL     1       8.408  20.213 -27.650  1.00  0.00     0.138 C
HETATM   24  O4  UNL     1       6.229  19.233 -26.520  1.00  0.00    -0.249 OA
BRANCH  22  25
HETATM   25  C21 UNL     1       6.387  17.934 -28.762  1.00  0.00     0.114 C
HETATM   26  C22 UNL     1       6.892  16.667 -29.482  1.00  0.00     0.019 C
ENDBRANCH  22  25
ENDBRANCH  18  22
BRANCH  17  27
HETATM   27  C16 UNL     1       6.126  15.635 -25.946  1.00  0.00     0.041 C
BRANCH  27  28
HETATM   28  C17 UNL     1       4.839  16.371 -25.772  1.00  0.00    -0.020 C
HETATM   29  C18 UNL     1       3.720  15.305 -25.892  1.00  0.00     0.009 C
HETATM   30  C19 UNL     1       4.671  16.907 -24.365  1.00  0.00     0.009 C
ENDBRANCH  27  28
ENDBRANCH  17  27
BRANCH  21  31
HETATM   31  O5  UNL     1      10.217  17.385 -23.218  1.00  0.00    -0.344 OA
ATOM     32  H5  UNL     1      10.955  17.460 -23.811  1.00  0.00     0.219 HD
ENDBRANCH  21  31
BRANCH   1  33
HETATM   33  C4  UNL     1       7.058  19.117 -22.896  1.00  0.00     0.062 C
BRANCH  33  34
HETATM   34  C3  UNL     1       6.946  20.465 -23.553  1.00  0.00     0.006 C
BRANCH  34  35
HETATM   35  C2  UNL     1       5.714  21.235 -23.252  1.00  0.00    -0.004 C
HETATM   36  C1  UNL     1       6.174  22.660 -22.896  1.00  0.00     0.005 C
ENDBRANCH  34  35
ENDBRANCH  33  34
ENDBRANCH   1  33
BRANCH  12  37
HETATM   37  C11 UNL     1       8.240  12.335 -24.163  1.00  0.00     0.034 C
BRANCH  37  38
HETATM   38  C12 UNL     1       6.940  11.813 -23.675  1.00  0.00    -0.002 C
HETATM   39  C13 UNL     1       6.939  11.323 -22.260  1.00  0.00     0.005 C
ENDBRANCH  37  38
ENDBRANCH  12  37
TORSDOF 10
ENDMDL