MODEL 3
REMARK VINA RESULT: -5.484835416      2.420      4.265
REMARK  9 active torsions:
REMARK  status: ('A' for Active; 'I' for Inactive)
REMARK    1  A    between atoms: C2_2  and  C3_3
REMARK    2  A    between atoms: C3_3  and  C4_4
REMARK    3  A    between atoms: C9_13  and  C10_14
REMARK    4  A    between atoms: C10_14  and  C11_15
REMARK    5  A    between atoms: C11_15  and  C13_17
REMARK    6  A    between atoms: C16_23  and  C17_24
REMARK    7  A    between atoms: C21_31  and  C22_32
REMARK    8  A    between atoms: C22_32  and  C23_33
REMARK    9  A    between atoms: C27_38  and  O5_39
ROOT
HETATM    1  C4  UNL     1       6.748   7.559 -20.623  1.00  0.00     0.159 C
HETATM    2  N1  UNL     1       7.102   7.451 -21.980  1.00  0.00    -0.349 N
ATOM      3  H1  UNL     1       7.867   6.809 -22.188  1.00  0.00     0.163 HD
HETATM    4  C5  UNL     1       6.543   8.107 -23.079  1.00  0.00     0.218 C
HETATM    5  O1  UNL     1       6.356   7.357 -24.116  1.00  0.00    -0.274 OA
HETATM    6  C6  UNL     1       6.138   9.497 -23.245  1.00  0.00     0.110 C
HETATM    7  C7  UNL     1       7.105  10.516 -22.682  1.00  0.00     0.090 C
HETATM    8  C8  UNL     1       8.416  10.470 -23.375  1.00  0.00     0.149 C
HETATM    9  O2  UNL     1       8.543  10.198 -24.535  1.00  0.00    -0.296 OA
HETATM   10  C9  UNL     1       9.642  10.784 -22.572  1.00  0.00     0.154 C
HETATM   11  N2  UNL     1      10.617   9.788 -22.853  1.00  0.00    -0.348 N
ATOM     12  H2  UNL     1      10.675   9.497 -23.829  1.00  0.00     0.163 HD
HETATM   13  C15 UNL     1      11.505   9.154 -21.988  1.00  0.00     0.241 C
HETATM   14  O3  UNL     1      12.727   9.065 -22.316  1.00  0.00    -0.271 OA
HETATM   15  C16 UNL     1      11.156   8.538 -20.653  1.00  0.00     0.180 C
HETATM   16  N3  UNL     1      11.354   7.111 -20.791  1.00  0.00    -0.342 N
ATOM     17  H3  UNL     1      12.301   6.827 -21.041  1.00  0.00     0.163 HD
HETATM   18  C20 UNL     1      10.437   6.055 -20.632  1.00  0.00     0.265 C
HETATM   19  O4  UNL     1      10.325   5.284 -21.662  1.00  0.00    -0.266 OA
HETATM   20  C21 UNL     1       9.599   5.691 -19.498  1.00  0.00     0.081 C
HETATM   21  N4  UNL     1       8.180   5.538 -19.666  1.00  0.00    -0.333 N
HETATM   22  C26 UNL     1       7.706   4.127 -19.796  1.00  0.00     0.158 C
HETATM   23  C27 UNL     1       7.145   6.485 -19.693  1.00  0.00     0.141 C
ENDROOT
BRANCH  10  24
HETATM   24  C10 UNL     1      10.062  12.201 -22.712  1.00  0.00     0.037 C
BRANCH  24  25
HETATM   25  C11 UNL     1       9.853  13.086 -21.534  1.00  0.00    -0.017 C
HETATM   26  C12 UNL     1       9.479  12.360 -20.266  1.00  0.00     0.010 C
BRANCH  25  27
HETATM   27  C13 UNL     1       8.744  14.115 -21.800  1.00  0.00    -0.000 C
HETATM   28  C14 UNL     1       7.578  13.766 -20.900  1.00  0.00     0.005 C
ENDBRANCH  25  27
ENDBRANCH  24  25
ENDBRANCH  10  24
BRANCH  15  29
HETATM   29  C17 UNL     1      12.079   9.189 -19.667  1.00  0.00     0.009 C
HETATM   30  C18 UNL     1      13.141   8.225 -19.149  1.00  0.00     0.012 C
HETATM   31  C19 UNL     1      11.458   9.808 -18.473  1.00  0.00     0.012 C
ENDBRANCH  15  29
BRANCH   1  32
HETATM   32  C3  UNL     1       5.317   8.013 -20.472  1.00  0.00     0.033 C
BRANCH  32  33
HETATM   33  C2  UNL     1       5.022   9.251 -19.759  1.00  0.00    -0.002 C
HETATM   34  C1  UNL     1       6.151  10.193 -19.472  1.00  0.00     0.005 C
ENDBRANCH  32  33
ENDBRANCH   1  32
BRANCH  20  35
HETATM   35  C22 UNL     1      10.008   6.309 -18.164  1.00  0.00     0.067 C
BRANCH  35  36
HETATM   36  C23 UNL     1      11.130   5.562 -17.501  1.00  0.00    -0.017 C
HETATM   37  C24 UNL     1      11.535   6.373 -16.276  1.00  0.00     0.010 C
HETATM   38  C25 UNL     1      10.738   4.203 -17.026  1.00  0.00     0.010 C
ENDBRANCH  35  36
ENDBRANCH  20  35
BRANCH  23  39
HETATM   39  O5  UNL     1       6.304   6.458 -18.684  1.00  0.00    -0.348 OA
ATOM     40  H5  UNL     1       5.652   5.785 -18.842  1.00  0.00     0.219 HD
ENDBRANCH  23  39
TORSDOF 9
ENDMDL