MODEL 2
REMARK VINA RESULT: -8.670550625      3.079      4.255
REMARK  6 active torsions:
REMARK  status: ('A' for Active; 'I' for Inactive)
REMARK       I    between atoms: N1_2  and  C2_4
REMARK       I    between atoms: C2_4  and  N2_5
REMARK    1  A    between atoms: N2_5  and  N3_7
REMARK    2  A    between atoms: N3_7  and  N4_8
REMARK    3  A    between atoms: N5_11  and  C3_13
REMARK    4  A    between atoms: C6_17  and  C7_18
REMARK    5  A    between atoms: C7_18  and  C8_20
REMARK    6  A    between atoms: C9_21  and  C10_22
ROOT
HETATM    1  C3  UNL     1      32.981  36.128  23.010  1.00  0.00     0.090 A
HETATM    2  C4  UNL     1      33.626  35.294  22.136  1.00  0.00     0.075 A
HETATM    3  N6  UNL     1      33.374  33.870  22.105  1.00  0.00    -0.100 NA
HETATM    4  C5  UNL     1      34.530  35.843  21.234  1.00  0.00     0.044 A
HETATM    5  C6  UNL     1      34.829  37.175  21.150  1.00  0.00     0.017 A
HETATM    6  C15 UNL     1      34.154  37.995  22.054  1.00  0.00     0.037 A
HETATM    7  C16 UNL     1      33.255  37.505  22.963  1.00  0.00     0.041 A
HETATM    8 BR1  UNL     1      32.399  38.732  24.143  1.00  0.00    -0.049 Br
ENDROOT
BRANCH   1   9
HETATM    9  N5  UNL     1      32.084  35.687  23.973  1.00  0.00    -0.187 N
HETATM   10  C2  UNL     1      32.281  35.209  25.122  1.00  0.00     0.704 C
HETATM   11  N1  UNL     1      33.555  35.020  25.696  1.00  0.00    -0.228 N
HETATM   12  N2  UNL     1      31.170  34.812  25.957  1.00  0.00    -0.046 N
HETATM   13  C1  UNL     1      33.833  33.955  26.670  1.00  0.00     0.165 C
ATOM     14  H1  UNL     1      34.313  35.648  25.426  1.00  0.00     0.177 HD
ATOM     15  H2  UNL     1      30.805  35.454  26.660  1.00  0.00     0.223 HD
ATOM     16  H5  UNL     1      31.102  35.763  23.707  1.00  0.00     0.184 HD
BRANCH  12  17
HETATM   17  N3  UNL     1      30.661  33.685  25.819  1.00  0.00    -0.229 NA
BRANCH  17  18
HETATM   18  N4  UNL     1      30.251  32.628  25.315  1.00  0.00    -0.260 N
ATOM     19  H42 UNL     1      29.350  32.639  25.793  1.00  0.00     0.193 HD
ATOM     20  H41 UNL     1      30.198  31.772  24.763  1.00  0.00     0.193 HD
ENDBRANCH  17  18
ENDBRANCH  12  17
ENDBRANCH   1   9
BRANCH   5  21
HETATM   21  C7  UNL     1      35.797  37.751  20.184  1.00  0.00     0.182 C
HETATM   22  O1  UNL     1      35.428  38.814  19.663  1.00  0.00    -0.288 OA
BRANCH  21  23
HETATM   23  C8  UNL     1      37.025  37.112  19.907  1.00  0.00     0.058 C
HETATM   24  C9  UNL     1      37.396  36.429  18.871  1.00  0.00     0.035 C
BRANCH  24  25
HETATM   25  C10 UNL     1      36.671  36.096  17.664  1.00  0.00     0.055 A
HETATM   26  N7  UNL     1      35.542  35.426  17.439  1.00  0.00    -0.299 N
HETATM   27  N8  UNL     1      35.189  35.325  16.188  1.00  0.00    -0.307 N
ATOM     28  H7  UNL     1      34.992  35.018  18.194  1.00  0.00     0.187 HD
HETATM   29  C11 UNL     1      34.024  34.666  15.603  1.00  0.00     0.177 C
HETATM   30  C12 UNL     1      36.142  35.972  15.502  1.00  0.00     0.118 A
HETATM   31  C13 UNL     1      37.088  36.473  16.359  1.00  0.00    -0.017 A
HETATM   32  C14 UNL     1      38.301  37.247  16.023  1.00  0.00     0.052 C
ENDBRANCH  24  25
ENDBRANCH  21  23
ENDBRANCH   5  21
TORSDOF 6
ENDMDL