MODEL 4
REMARK VINA RESULT: -7.880321026      3.784      8.007
REMARK  6 active torsions:
REMARK  status: ('A' for Active; 'I' for Inactive)
REMARK    1  A    between atoms: C2_2  and  C3_3
REMARK       I    between atoms: N1_5  and  C5_7
REMARK    2  A    between atoms: C5_7  and  C6_9
REMARK    3  A    between atoms: C6_9  and  N2_10
REMARK    4  A    between atoms: C9_17  and  C10_18
REMARK    5  A    between atoms: C10_18  and  C11_19
REMARK    6  A    between atoms: C14_23  and  O3_24
ROOT
HETATM    1  N2  UNL     1      34.420  38.471  25.103  1.00  0.00    -0.362 N
ATOM      2  H2  UNL     1      35.089  37.939  25.660  1.00  0.00     0.162 HD
HETATM    3  C7  UNL     1      34.625  38.636  23.860  1.00  0.00     0.148 C
HETATM    4  N3  UNL     1      33.850  39.320  22.923  1.00  0.00    -0.303 N
ATOM      5  H3  UNL     1      33.044  39.878  23.205  1.00  0.00     0.171 HD
HETATM    6  C8  UNL     1      34.229  39.208  21.581  1.00  0.00     0.264 C
HETATM    7  O2  UNL     1      33.604  39.791  20.616  1.00  0.00    -0.267 OA
HETATM    8  C9  UNL     1      35.387  38.392  21.313  1.00  0.00     0.079 C
HETATM    9  S1  UNL     1      36.032  38.015  22.974  1.00  0.00    -0.049 SA
ENDROOT
BRANCH   1  10
HETATM   10  C6  UNL     1      33.228  39.041  25.742  1.00  0.00     0.224 C
BRANCH  10  11
HETATM   11  C5  UNL     1      32.338  37.972  26.227  1.00  0.00     0.239 C
HETATM   12  N1  UNL     1      32.362  36.685  25.639  1.00  0.00    -0.333 N
HETATM   13  C3  UNL     1      31.740  36.453  24.520  1.00  0.00    -0.015 C
ATOM     14  H1  UNL     1      32.873  35.930  26.098  1.00  0.00     0.168 HD
HETATM   15  C4  UNL     1      31.011  37.563  23.888  1.00  0.00     0.063 C
HETATM   16  O1  UNL     1      31.543  38.203  27.176  1.00  0.00    -0.271 OA
BRANCH  13  17
HETATM   17  C2  UNL     1      31.737  35.129  23.873  1.00  0.00     0.047 C
HETATM   18  C1  UNL     1      32.828  35.098  22.816  1.00  0.00     0.011 C
ENDBRANCH  13  17
ENDBRANCH  10  11
ENDBRANCH   1  10
BRANCH   8  19
HETATM   19  C10 UNL     1      35.960  37.935  20.237  1.00  0.00     0.062 C
BRANCH  19  20
HETATM   20  C11 UNL     1      35.441  36.964  19.291  1.00  0.00     0.081 A
HETATM   21  C12 UNL     1      34.861  37.100  18.056  1.00  0.00     0.061 A
HETATM   22  C13 UNL     1      34.556  35.846  17.588  1.00  0.00     0.071 A
HETATM   23 BR1  UNL     1      33.728  35.471  15.902  1.00  0.00    -0.046 Br
HETATM   24  C14 UNL     1      34.963  34.977  18.556  1.00  0.00     0.201 A
HETATM   25  O4  UNL     1      35.475  35.651  19.539  1.00  0.00    -0.287 OA
BRANCH  24  26
HETATM   26  O3  UNL     1      34.815  33.590  18.433  1.00  0.00    -0.340 OA
ATOM     27  H3  UNL     1      34.741  33.015  19.186  1.00  0.00     0.220 HD
ENDBRANCH  24  26
ENDBRANCH  19  20
ENDBRANCH   8  19
TORSDOF 6
ENDMDL