MODEL 4
REMARK VINA RESULT: -7.523666751      2.354      2.922
REMARK  4 active torsions:
REMARK  status: ('A' for Active; 'I' for Inactive)
REMARK    1  A    between atoms: C6_9  and  C7_10
REMARK    2  A    between atoms: C7_10  and  C8_11
REMARK    3  A    between atoms: C7_10  and  N4_26
REMARK    4  A    between atoms: C9_14  and  C10_15
ROOT
HETATM    1  C8  UNL     1      35.038  37.018  21.778  1.00  0.00     0.085 A
HETATM    2  N2  UNL     1      35.951  36.830  20.813  1.00  0.00    -0.349 N
ATOM      3  H2  UNL     1      36.735  37.476  20.720  1.00  0.00     0.166 HD
HETATM    4  C9  UNL     1      35.839  35.829  19.999  1.00  0.00     0.083 A
HETATM    5  S1  UNL     1      34.421  35.041  20.500  1.00  0.00    -0.065 SA
HETATM    6  C15 UNL     1      34.019  36.096  21.809  1.00  0.00     0.082 A
HETATM    7 BR1  UNL     1      32.472  35.994  22.968  1.00  0.00    -0.041 Br
ENDROOT
BRANCH   1   8
HETATM    8  C7  UNL     1      35.309  38.017  22.857  1.00  0.00     0.067 C
BRANCH   8   9
HETATM    9  C6  UNL     1      35.224  37.743  24.246  1.00  0.00     0.002 C
HETATM   10  C2  UNL     1      35.336  36.599  25.070  1.00  0.00    -0.056 C
HETATM   11  C1  UNL     1      35.782  35.359  24.884  1.00  0.00     0.019 C
HETATM   12  C3  UNL     1      34.885  36.767  26.518  1.00  0.00     0.066 C
HETATM   13  C4  UNL     1      34.909  38.132  27.053  1.00  0.00     0.237 C
HETATM   14  N1  UNL     1      34.615  39.180  26.095  1.00  0.00    -0.071 N
HETATM   15  C5  UNL     1      35.645  39.016  25.067  1.00  0.00     0.273 C
ATOM     16  H12 UNL     1      33.659  39.168  25.738  1.00  0.00     0.277 HD
ATOM     17  H11 UNL     1      34.569  40.117  26.498  1.00  0.00     0.277 HD
ENDBRANCH   8   9
BRANCH   8  18
HETATM   18  N4  UNL     1      34.736  39.323  22.454  1.00  0.00    -0.387 N
HETATM   19  C16 UNL     1      33.318  39.288  22.406  1.00  0.00     0.149 C
HETATM   20  C17 UNL     1      35.367  39.993  21.398  1.00  0.00     0.149 C
ENDBRANCH   8  18
ENDBRANCH   1   8
BRANCH   4  21
HETATM   21  C10 UNL     1      36.796  35.467  18.887  1.00  0.00     0.242 C
HETATM   22  C11 UNL     1      36.210  35.956  17.584  1.00  0.00     0.040 C
HETATM   23  C12 UNL     1      37.294  36.147  16.527  1.00  0.00     0.004 C
HETATM   24  C13 UNL     1      38.422  36.997  17.019  1.00  0.00     0.027 C
HETATM   25  C14 UNL     1      38.105  37.444  18.435  1.00  0.00     0.233 C
HETATM   26  N3  UNL     1      38.024  36.201  19.226  1.00  0.00    -0.065 N
ATOM     27  H32 UNL     1      38.098  36.380  20.227  1.00  0.00     0.278 HD
ATOM     28  H31 UNL     1      38.857  35.624  19.115  1.00  0.00     0.278 HD
ENDBRANCH   4  21
TORSDOF 4
ENDMDL