MODEL 2
REMARK VINA RESULT: -8.647966072      0.887      1.303
REMARK  6 active torsions:
REMARK  status: ('A' for Active; 'I' for Inactive)
REMARK    1  A    between atoms: C5_6  and  O1_7
REMARK    2  A    between atoms: O1_7  and  S1_8
REMARK    3  A    between atoms: S1_8  and  C6_11
REMARK    4  A    between atoms: C15_20  and  C16_22
REMARK    5  A    between atoms: C16_22  and  O4_23
REMARK    6  A    between atoms: N2_25  and  O5_27
ROOT
HETATM    1  C1  UNL     1      34.608  34.630  21.905  1.00  0.00     0.310 C
HETATM    2  N1  UNL     1      34.636  36.078  21.840  1.00  0.00     0.090 N
HETATM    3  C2  UNL     1      34.998  36.580  23.154  1.00  0.00     0.284 C
HETATM    4  C3  UNL     1      35.151  38.063  23.182  1.00  0.00     0.014 C
HETATM    5  C4  UNL     1      36.569  38.427  23.597  1.00  0.00     0.020 C
HETATM    6  C5  UNL     1      34.134  38.735  24.089  1.00  0.00     0.152 C
HETATM    7  C9  UNL     1      33.250  39.593  23.211  1.00  0.00     0.034 C
HETATM    8  C10 UNL     1      33.421  38.882  21.855  1.00  0.00     0.009 C
HETATM    9  C11 UNL     1      34.907  38.729  21.848  1.00  0.00     0.008 C
HETATM   10  C12 UNL     1      35.482  37.984  20.685  1.00  0.00     0.046 C
HETATM   11  C13 UNL     1      34.779  38.283  19.426  1.00  0.00    -0.020 C
HETATM   12  C14 UNL     1      35.022  37.559  18.354  1.00  0.00     0.021 C
HETATM   13  C15 UNL     1      36.022  36.451  18.495  1.00  0.00     0.189 C
HETATM   14  F1  UNL     1      37.306  36.949  18.727  1.00  0.00    -0.229 F
HETATM   15  C17 UNL     1      35.600  35.659  19.683  1.00  0.00     0.093 C
HETATM   16  C18 UNL     1      35.656  36.530  20.909  1.00  0.00     0.234 C
ENDROOT
BRANCH  13  17
HETATM   17  C16 UNL     1      36.113  35.693  17.234  1.00  0.00     0.180 C
HETATM   18  N2  UNL     1      35.221  34.982  16.690  1.00  0.00    -0.248 N
ATOM     19  H2  UNL     1      35.487  34.537  15.811  1.00  0.00     0.196 HD
BRANCH  17  20
HETATM   20  O4  UNL     1      37.348  35.786  16.567  1.00  0.00    -0.345 OA
ATOM     21  H4  UNL     1      37.338  36.295  15.765  1.00  0.00     0.219 HD
ENDBRANCH  17  20
BRANCH  18  22
HETATM   22  O5  UNL     1      33.965  34.729  17.111  1.00  0.00    -0.288 OA
ATOM     23  H5  UNL     1      33.439  33.947  16.988  1.00  0.00     0.244 HD
ENDBRANCH  18  22
ENDBRANCH  13  17
BRANCH   6  24
HETATM   24  O1  UNL     1      33.323  37.782  24.684  1.00  0.00    -0.269 OA
BRANCH  24  25
HETATM   25  S1  UNL     1      33.063  38.038  26.302  1.00  0.00     0.269 S
HETATM   26  O2  UNL     1      31.581  38.203  26.581  1.00  0.00    -0.198 OA
HETATM   27  O3  UNL     1      33.844  39.236  26.750  1.00  0.00    -0.198 OA
BRANCH  25  28
HETATM   28  C6  UNL     1      33.668  36.635  27.196  1.00  0.00     0.136 A
HETATM   29  C7  UNL     1      34.380  35.544  26.482  1.00  0.00     0.024 A
HETATM   30  C8  UNL     1      32.972  35.323  26.928  1.00  0.00     0.024 A
ENDBRANCH  25  28
ENDBRANCH  24  25
ENDBRANCH   6  24
TORSDOF 6
ENDMDL