MODEL 5
REMARK VINA RESULT: -7.761005506      2.000      2.325
REMARK  5 active torsions:
REMARK  status: ('A' for Active; 'I' for Inactive)
REMARK    1  A    between atoms: C2_2  and  N1_3
REMARK    2  A    between atoms: N1_3  and  C3_5
REMARK    3  A    between atoms: C6_11  and  C7_12
REMARK    4  A    between atoms: C7_12  and  C8_13
REMARK    5  A    between atoms: C9_14  and  C10_15
ROOT
HETATM    1  C1  UNL     1      32.281  35.686  24.357  1.00  0.00     0.043 C
HETATM    2  C2  UNL     1      33.515  36.578  24.425  1.00  0.00     0.090 C
HETATM    3  C6  UNL     1      33.921  37.019  23.020  1.00  0.00     0.224 C
HETATM    4  N4  UNL     1      33.993  38.366  23.515  1.00  0.00    -0.057 N
HETATM    5  C14 UNL     1      35.322  38.827  23.877  1.00  0.00     0.273 C
HETATM    6  C15 UNL     1      33.351  39.413  22.744  1.00  0.00     0.273 C
HETATM    7  C16 UNL     1      33.160  37.987  24.624  1.00  0.00     0.149 C
HETATM    8  C17 UNL     1      33.501  38.623  25.950  1.00  0.00     0.049 C
HETATM    9  C18 UNL     1      31.692  38.263  24.317  1.00  0.00     0.049 C
ENDROOT
BRANCH   3  10
HETATM   10  C7  UNL     1      35.194  36.406  22.567  1.00  0.00     0.063 C
BRANCH  10  11
HETATM   11  C8  UNL     1      35.733  36.790  21.261  1.00  0.00    -0.026 C
HETATM   12  C9  UNL     1      35.503  36.291  20.076  1.00  0.00     0.012 C
BRANCH  12  13
HETATM   13  C10 UNL     1      36.160  36.838  18.857  1.00  0.00     0.269 C
HETATM   14  N3  UNL     1      35.891  36.025  17.691  1.00  0.00    -0.058 N
HETATM   15  C11 UNL     1      36.345  36.788  16.533  1.00  0.00     0.255 C
ATOM     16  H32 UNL     1      36.303  35.094  17.746  1.00  0.00     0.278 HD
ATOM     17  H31 UNL     1      34.917  35.731  17.621  1.00  0.00     0.278 HD
HETATM   18  C12 UNL     1      37.823  36.660  16.305  1.00  0.00     0.117 C
HETATM   19 CL1  UNL     1      38.213  37.448  14.764  1.00  0.00    -0.122 Cl
HETATM   20  C13 UNL     1      38.641  37.315  17.384  1.00  0.00     0.098 C
HETATM   21  S2  UNL     1      37.960  36.948  19.047  1.00  0.00    -0.131 SA
ENDBRANCH  12  13
ENDBRANCH  10  11
ENDBRANCH   3  10
BRANCH   2  22
HETATM   22  N1  UNL     1      34.555  36.008  25.222  1.00  0.00    -0.357 N
ATOM     23  H1  UNL     1      35.530  36.275  25.086  1.00  0.00     0.162 HD
BRANCH  22  24
HETATM   24  C3  UNL     1      34.181  35.044  26.224  1.00  0.00     0.140 C
HETATM   25  N2  UNL     1      34.295  33.788  26.207  1.00  0.00    -0.350 N
HETATM   26  C4  UNL     1      33.873  33.004  27.276  1.00  0.00     0.073 C
ATOM     27  H2  UNL     1      34.706  33.336  25.391  1.00  0.00     0.167 HD
HETATM   28  C5  UNL     1      33.790  33.801  28.565  1.00  0.00     0.127 C
HETATM   29  S1  UNL     1      33.439  35.443  27.803  1.00  0.00    -0.089 SA
ENDBRANCH  22  24
ENDBRANCH   2  22
TORSDOF 5
ENDMDL