MODEL 3
REMARK VINA RESULT: -8.612452747      1.677      2.277
REMARK  7 active torsions:
REMARK  status: ('A' for Active; 'I' for Inactive)
REMARK    1  A    between atoms: O1_2  and  C2_3
REMARK    2  A    between atoms: C2_3  and  C3_5
REMARK    3  A    between atoms: C7_10  and  C8_11
REMARK    4  A    between atoms: C8_11  and  N1_12
REMARK       I    between atoms: N1_12  and  C10_14
REMARK       I    between atoms: C10_14  and  N2_16
REMARK    5  A    between atoms: N2_16  and  C11_18
REMARK    6  A    between atoms: C13_21  and  C14_22
REMARK    7  A    between atoms: C19_27  and  O5_28
ROOT
HETATM    1  N1  UNL     1      34.874  36.889  20.208  1.00  0.00    -0.334 N
HETATM    2  C9  UNL     1      35.222  38.028  19.368  1.00  0.00     0.154 C
HETATM    3  C10 UNL     1      34.243  37.117  21.443  1.00  0.00     0.318 C
HETATM    4  O3  UNL     1      33.984  38.287  21.799  1.00  0.00    -0.247 OA
HETATM    5  N2  UNL     1      33.899  36.045  22.283  1.00  0.00    -0.334 N
ATOM      6  H2  UNL     1      34.121  35.100  21.970  1.00  0.00     0.164 HD
ENDROOT
BRANCH   1   7
HETATM    7  C8  UNL     1      35.187  35.549  19.750  1.00  0.00     0.165 C
BRANCH   7   8
HETATM    8  C7  UNL     1      35.423  35.519  18.297  1.00  0.00    -0.036 A
HETATM    9  C6  UNL     1      36.694  35.698  17.793  1.00  0.00     0.051 A
HETATM   10  C5  UNL     1      36.865  35.663  16.431  1.00  0.00     0.117 A
HETATM   11  C4  UNL     1      35.778  35.453  15.610  1.00  0.00     0.059 A
HETATM   12  F1  UNL     1      38.081  35.833  15.900  1.00  0.00    -0.206 F
HETATM   13  C3  UNL     1      34.500  35.271  16.086  1.00  0.00     0.043 A
HETATM   14  C20 UNL     1      34.337  35.308  17.455  1.00  0.00     0.026 A
BRANCH  13  15
HETATM   15  C2  UNL     1      33.372  35.050  15.187  1.00  0.00     0.293 C
HETATM   16  O2  UNL     1      32.619  36.003  14.883  1.00  0.00    -0.259 OA
BRANCH  15  17
HETATM   17  O1  UNL     1      33.126  33.800  14.667  1.00  0.00    -0.323 OA
HETATM   18  C1  UNL     1      32.857  33.541  13.311  1.00  0.00     0.213 C
ENDBRANCH  15  17
ENDBRANCH  13  15
ENDBRANCH   7   8
ENDBRANCH   1   7
BRANCH   5  19
HETATM   19  C11 UNL     1      33.248  36.202  23.566  1.00  0.00     0.138 C
HETATM   20  C12 UNL     1      34.078  35.629  24.694  1.00  0.00     0.196 C
HETATM   21  O4  UNL     1      33.569  34.380  25.026  1.00  0.00    -0.383 OA
HETATM   22  C13 UNL     1      32.393  34.487  25.766  1.00  0.00     0.131 C
HETATM   23  C18 UNL     1      31.489  35.446  25.069  1.00  0.00     0.066 C
HETATM   24  C19 UNL     1      31.890  35.572  23.610  1.00  0.00     0.145 C
BRANCH  22  25
HETATM   25  C14 UNL     1      31.768  33.128  25.986  1.00  0.00    -0.025 C
HETATM   26  C15 UNL     1      32.602  32.388  27.023  1.00  0.00     0.017 C
HETATM   27  C16 UNL     1      31.706  32.299  24.745  1.00  0.00     0.017 C
HETATM   28  C17 UNL     1      30.359  33.260  26.524  1.00  0.00     0.017 C
ENDBRANCH  22  25
BRANCH  24  29
HETATM   29  O5  UNL     1      30.921  36.360  22.996  1.00  0.00    -0.393 OA
ATOM     30  H5  UNL     1      30.534  36.989  23.594  1.00  0.00     0.210 HD
ENDBRANCH  24  29
ENDBRANCH   5  19
TORSDOF 7
ENDMDL