MODEL 5
REMARK VINA RESULT: -7.074260006      2.138      2.667
REMARK  6 active torsions:
REMARK  status: ('A' for Active; 'I' for Inactive)
REMARK    1  A    between atoms: S1_2  and  C2_3
REMARK    2  A    between atoms: C2_3  and  C3_4
REMARK       I    between atoms: C3_4  and  N1_6
REMARK    3  A    between atoms: N1_6  and  C4_8
REMARK    4  A    between atoms: C8_15  and  C9_16
REMARK    5  A    between atoms: C9_16  and  O2_17
REMARK    6  A    between atoms: C9_16  and  C10_19
ROOT
HETATM    1  C4  UNL     1      34.558  36.939  22.643  1.00  0.00     0.152 A
HETATM    2  N2  UNL     1      34.571  36.005  21.694  1.00  0.00    -0.334 N
ATOM      3  H2  UNL     1      34.022  35.153  21.798  1.00  0.00     0.168 HD
HETATM    4  C5  UNL     1      35.307  36.204  20.620  1.00  0.00     0.069 A
HETATM    5  C6  UNL     1      35.443  35.330  19.518  1.00  0.00     0.039 A
HETATM    6 BR1  UNL     1      34.524  33.649  19.441  1.00  0.00    -0.049 Br
HETATM    7  C7  UNL     1      36.251  35.681  18.471  1.00  0.00     0.031 A
HETATM    8  C8  UNL     1      36.971  36.851  18.385  1.00  0.00    -0.027 A
HETATM    9  C13 UNL     1      36.841  37.715  19.465  1.00  0.00     0.031 A
HETATM   10  C14 UNL     1      36.016  37.372  20.552  1.00  0.00     0.037 A
HETATM   11  S2  UNL     1      35.600  38.135  22.028  1.00  0.00    -0.052 SA
ENDROOT
BRANCH   1  12
HETATM   12  N1  UNL     1      33.887  36.914  23.779  1.00  0.00    -0.306 N
HETATM   13  C3  UNL     1      32.490  36.917  23.823  1.00  0.00     0.232 C
HETATM   14  O1  UNL     1      31.782  36.057  23.257  1.00  0.00    -0.272 OA
ATOM     15  H1  UNL     1      34.407  36.891  24.656  1.00  0.00     0.171 HD
BRANCH  13  16
HETATM   16  C2  UNL     1      31.771  37.998  24.585  1.00  0.00     0.176 C
BRANCH  16  17
HETATM   17  S1  UNL     1      32.141  37.927  26.346  1.00  0.00    -0.164 SA
HETATM   18  C1  UNL     1      33.404  39.200  26.696  1.00  0.00     0.090 C
ENDBRANCH  16  17
ENDBRANCH  13  16
ENDBRANCH   1  12
BRANCH   8  19
HETATM   19  C9  UNL     1      37.838  37.249  17.289  1.00  0.00     0.154 C
BRANCH  19  20
HETATM   20  O2  UNL     1      39.137  36.739  17.469  1.00  0.00    -0.391 OA
ATOM     21  H2  UNL     1      39.110  35.894  17.903  1.00  0.00     0.210 HD
ENDBRANCH  19  20
BRANCH  19  22
HETATM   22  C10 UNL     1      37.404  36.811  15.922  1.00  0.00     0.011 C
HETATM   23  C11 UNL     1      37.849  35.376  15.660  1.00  0.00     0.012 C
HETATM   24  C12 UNL     1      38.141  37.719  14.926  1.00  0.00     0.012 C
ENDBRANCH  19  22
ENDBRANCH   8  19
TORSDOF 6
ENDMDL