MODEL 3
REMARK VINA RESULT: -7.391788233      1.196      1.232
REMARK  8 active torsions:
REMARK  status: ('A' for Active; 'I' for Inactive)
REMARK    1  A    between atoms: O1_2  and  C2_3
REMARK    2  A    between atoms: C3_4  and  C4_5
REMARK    3  A    between atoms: C4_5  and  C6_8
REMARK    4  A    between atoms: C9_12  and  O2_13
REMARK    5  A    between atoms: C14_19  and  C15_20
REMARK    6  A    between atoms: C15_20  and  C16_21
REMARK    7  A    between atoms: C16_21  and  C17_22
REMARK    8  A    between atoms: C20_27  and  O5_29
ROOT
HETATM    1  C4  UNL     1      31.237  33.223  23.419  1.00  0.00     0.087 C
HETATM    2  C5  UNL     1      32.503  33.135  22.156  1.00  0.00     0.103 C
HETATM    3  N1  UNL     1      33.327  33.037  21.305  1.00  0.00    -0.191 NA
ENDROOT
BRANCH   1   4
HETATM    4  C3  UNL     1      31.850  34.415  23.964  1.00  0.00     0.005 C
HETATM    5  C2  UNL     1      32.209  34.186  25.270  1.00  0.00     0.088 C
HETATM    6  C20 UNL     1      32.855  35.216  26.075  1.00  0.00     0.107 C
HETATM    7  C12 UNL     1      33.343  36.412  25.347  1.00  0.00     0.033 C
HETATM    8  C21 UNL     1      33.989  34.551  26.872  1.00  0.00     0.053 C
HETATM    9  C11 UNL     1      32.555  37.679  25.608  1.00  0.00     0.023 C
HETATM   10  C13 UNL     1      33.521  36.123  23.876  1.00  0.00     0.015 C
HETATM   11  C10 UNL     1      31.863  38.059  24.307  1.00  0.00     0.085 C
HETATM   12  C9  UNL     1      31.118  36.787  23.875  1.00  0.00     0.138 C
HETATM   13  C19 UNL     1      32.939  38.369  23.320  1.00  0.00     0.138 C
HETATM   14  C8  UNL     1      32.111  35.743  23.387  1.00  0.00     0.057 C
HETATM   15  C14 UNL     1      34.033  37.394  23.188  1.00  0.00     0.061 C
HETATM   16  O4  UNL     1      32.893  39.368  22.680  1.00  0.00    -0.297 OA
BRANCH   5  17
HETATM   17  O1  UNL     1      31.950  32.917  25.852  1.00  0.00    -0.356 OA
HETATM   18  C1  UNL     1      30.819  32.714  26.675  1.00  0.00     0.209 C
ENDBRANCH   5  17
BRANCH   6  19
HETATM   19  O5  UNL     1      31.945  35.622  27.071  1.00  0.00    -0.383 OA
ATOM     20  H5  UNL     1      32.398  35.600  27.906  1.00  0.00     0.211 HD
ENDBRANCH   6  19
BRANCH  12  21
HETATM   21  O2  UNL     1      30.289  37.218  22.839  1.00  0.00    -0.394 OA
ATOM     22  H2  UNL     1      29.870  38.043  23.055  1.00  0.00     0.210 HD
ENDBRANCH  12  21
BRANCH  15  23
HETATM   23  C15 UNL     1      34.450  37.026  21.813  1.00  0.00     0.020 C
BRANCH  23  24
HETATM   24  C16 UNL     1      35.806  37.493  21.448  1.00  0.00     0.078 C
BRANCH  24  25
HETATM   25  C17 UNL     1      36.053  37.589  20.011  1.00  0.00     0.123 C
HETATM   26  C18 UNL     1      34.876  37.890  19.125  1.00  0.00     0.091 C
HETATM   27  O3  UNL     1      37.118  37.446  19.496  1.00  0.00    -0.298 OA
ENDBRANCH  24  25
ENDBRANCH  23  24
ENDBRANCH  15  23
ENDBRANCH   1   4
BRANCH   1  28
HETATM   28  C6  UNL     1      30.734  32.241  22.970  1.00  0.00     0.111 C
HETATM   29  C7  UNL     1      30.984  30.797  23.140  1.00  0.00     0.084 C
HETATM   30  F1  UNL     1      29.633  32.452  22.073  1.00  0.00    -0.210 F
ENDBRANCH   1  28
TORSDOF 8
ENDMDL