MODEL 4
REMARK VINA RESULT: -7.787316240      2.009      2.405
REMARK  8 active torsions:
REMARK  status: ('A' for Active; 'I' for Inactive)
REMARK    1  A    between atoms: C2_2  and  C4_4
REMARK    2  A    between atoms: C4_4  and  C5_5
REMARK    3  A    between atoms: C7_9  and  N2_10
REMARK    4  A    between atoms: N2_10  and  S1_12
REMARK    5  A    between atoms: S1_12  and  C8_15
REMARK    6  A    between atoms: C12_20  and  C13_21
REMARK    7  A    between atoms: C14_22  and  C15_23
REMARK    8  A    between atoms: C15_23  and  N3_26
ROOT
HETATM    1  C8  UNL     1      33.869  37.354  22.195  1.00  0.00     0.081 A
HETATM    2  C9  UNL     1      33.274  38.380  22.886  1.00  0.00     0.028 A
HETATM    3  C10 UNL     1      32.206  38.132  23.727  1.00  0.00     0.045 A
HETATM    4  C11 UNL     1      31.757  36.820  23.848  1.00  0.00     0.135 A
HETATM    5  F1  UNL     1      30.695  36.595  24.689  1.00  0.00    -0.205 F
HETATM    6  C12 UNL     1      32.327  35.777  23.174  1.00  0.00     0.057 A
HETATM    7  C18 UNL     1      33.397  36.071  22.341  1.00  0.00     0.049 A
ENDROOT
BRANCH   1   8
HETATM    8  S1  UNL     1      35.216  37.682  21.136  1.00  0.00     0.264 S
HETATM    9  O1  UNL     1      36.365  38.288  21.890  1.00  0.00    -0.200 OA
HETATM   10  O2  UNL     1      34.716  38.626  20.069  1.00  0.00    -0.200 OA
BRANCH   8  11
HETATM   11  N2  UNL     1      35.749  36.195  20.439  1.00  0.00    -0.260 N
ATOM     12  H2  UNL     1      36.095  35.424  21.011  1.00  0.00     0.181 HD
BRANCH  11  13
HETATM   13  C7  UNL     1      35.683  36.114  19.125  1.00  0.00     0.158 A
HETATM   14  N1  UNL     1      36.277  36.907  18.234  1.00  0.00    -0.345 N
HETATM   15  C6  UNL     1      36.089  36.663  16.956  1.00  0.00     0.104 A
ATOM     16  H1  UNL     1      36.863  37.685  18.537  1.00  0.00     0.167 HD
HETATM   17  C5  UNL     1      35.292  35.605  16.623  1.00  0.00     0.002 A
HETATM   18  S2  UNL     1      34.842  35.000  18.151  1.00  0.00    -0.057 SA
BRANCH  17  19
HETATM   19  C4  UNL     1      34.882  35.060  15.291  1.00  0.00     0.051 C
BRANCH  19  20
HETATM   20  C2  UNL     1      33.414  34.864  15.139  1.00  0.00    -0.018 C
HETATM   21  C1  UNL     1      32.664  36.015  14.558  1.00  0.00     0.010 C
HETATM   22  C3  UNL     1      33.229  33.660  14.215  1.00  0.00     0.010 C
ENDBRANCH  19  20
ENDBRANCH  17  19
ENDBRANCH  11  13
ENDBRANCH   8  11
ENDBRANCH   1   8
BRANCH   6  23
HETATM   23  C13 UNL     1      31.834  34.439  23.327  1.00  0.00    -0.061 C
HETATM   24  C14 UNL     1      31.438  33.306  23.446  1.00  0.00    -0.062 C
BRANCH  24  25
HETATM   25  C15 UNL     1      30.962  31.942  23.566  1.00  0.00     0.179 C
HETATM   26  C16 UNL     1      31.716  30.963  22.724  1.00  0.00     0.060 C
HETATM   27  C17 UNL     1      31.023  31.567  25.041  1.00  0.00     0.060 C
BRANCH  25  28
HETATM   28  N3  UNL     1      29.554  31.935  23.181  1.00  0.00    -0.060 N
ATOM     29  H33 UNL     1      29.067  32.794  23.438  1.00  0.00     0.276 HD
ATOM     30  H32 UNL     1      29.417  32.002  22.172  1.00  0.00     0.276 HD
ATOM     31  H31 UNL     1      29.131  31.100  23.586  1.00  0.00     0.276 HD
ENDBRANCH  25  28
ENDBRANCH  24  25
ENDBRANCH   6  23
TORSDOF 8
ENDMDL