MODEL 1
REMARK VINA RESULT: -8.027942683      0.000      0.000
REMARK  5 active torsions:
REMARK  status: ('A' for Active; 'I' for Inactive)
REMARK    1  A    between atoms: C2_2  and  N1_3
REMARK    2  A    between atoms: N1_3  and  C3_5
REMARK    3  A    between atoms: C5_9  and  N3_10
REMARK    4  A    between atoms: N3_10  and  C6_12
REMARK    5  A    between atoms: N4_17  and  S1_18
ROOT
HETATM    1  N3  UNL     1      35.804  35.792  20.546  1.00  0.00    -0.353 N
ATOM      2  H3  UNL     1      36.727  35.567  20.917  1.00  0.00     0.166 HD
ENDROOT
BRANCH   1   3
HETATM    3  C5  UNL     1      35.523  35.463  19.205  1.00  0.00     0.049 A
HETATM    4  C4  UNL     1      34.615  34.513  18.818  1.00  0.00     0.119 A
HETATM    5  N2  UNL     1      34.423  34.278  17.495  1.00  0.00    -0.349 N
HETATM    6  C3  UNL     1      35.060  34.907  16.517  1.00  0.00     0.118 A
ATOM      7  H2  UNL     1      33.741  33.566  17.235  1.00  0.00     0.167 HD
HETATM    8  C15 UNL     1      35.988  35.876  16.877  1.00  0.00     0.057 A
HETATM    9  C14 UNL     1      36.200  36.133  18.209  1.00  0.00     0.054 A
HETATM   10 BR1  UNL     1      36.945  36.825  15.517  1.00  0.00    -0.047 Br
BRANCH   6  11
HETATM   11  N1  UNL     1      34.880  34.685  15.272  1.00  0.00    -0.376 N
ATOM     12  H1  UNL     1      35.674  34.706  14.631  1.00  0.00     0.161 HD
BRANCH  11  13
HETATM   13  C2  UNL     1      33.558  34.406  14.772  1.00  0.00     0.116 C
HETATM   14  C1  UNL     1      32.805  35.685  14.607  1.00  0.00     0.026 C
ENDBRANCH  11  13
ENDBRANCH   6  11
ENDBRANCH   1   3
BRANCH   1  15
HETATM   15  C6  UNL     1      34.856  36.425  21.412  1.00  0.00     0.064 A
HETATM   16  C7  UNL     1      34.727  37.784  21.591  1.00  0.00    -0.010 A
HETATM   17  C8  UNL     1      35.537  38.859  20.930  1.00  0.00     0.052 C
HETATM   18  C9  UNL     1      33.702  38.016  22.506  1.00  0.00     0.032 A
HETATM   19  C10 UNL     1      33.226  39.360  22.992  1.00  0.00     0.070 C
HETATM   20  N4  UNL     1      33.213  36.820  22.878  1.00  0.00    -0.246 N
HETATM   21  C12 UNL     1      33.900  35.861  22.226  1.00  0.00     0.051 A
HETATM   22  C13 UNL     1      33.638  34.429  22.386  1.00  0.00     0.072 C
BRANCH  20  23
HETATM   23  S1  UNL     1      31.920  36.645  24.011  1.00  0.00     0.233 S
HETATM   24  C11 UNL     1      32.331  37.287  25.595  1.00  0.00     0.186 C
HETATM   25  O1  UNL     1      30.676  37.320  23.517  1.00  0.00    -0.206 OA
HETATM   26  O2  UNL     1      31.600  35.184  24.165  1.00  0.00    -0.206 OA
ENDBRANCH  20  23
ENDBRANCH   1  15
TORSDOF 5
ENDMDL