MODEL 4
REMARK VINA RESULT: -5.577393530      2.499      3.442
REMARK  1 active torsions:
REMARK  status: ('A' for Active; 'I' for Inactive)
REMARK    1  A    between atoms: C3_4  and  N2_5
ROOT
HETATM    1  N1  UNL     1      31.449  -1.952  55.016  1.00  0.00    -0.191 NA
HETATM    2  C1  UNL     1      31.801  -0.979  55.567  1.00  0.00     0.103 C
HETATM    3  C2  UNL     1      32.221   0.258  56.250  1.00  0.00     0.085 A
HETATM    4  C3  UNL     1      33.342   0.226  57.036  1.00  0.00     0.094 A
HETATM    5  S2  UNL     1      33.460   1.836  57.612  1.00  0.00    -0.075 SA
HETATM    6  C8  UNL     1      32.099   2.493  56.847  1.00  0.00    -0.007 A
HETATM    7  C9  UNL     1      31.576   1.444  56.154  1.00  0.00    -0.021 A
HETATM    8  C10 UNL     1      30.329   1.586  55.307  1.00  0.00     0.041 C
HETATM    9  C11 UNL     1      29.187   2.109  56.144  1.00  0.00     0.005 C
HETATM   10  C12 UNL     1      29.278   3.582  56.442  1.00  0.00     0.001 C
HETATM   11  C13 UNL     1      30.233   3.807  57.571  1.00  0.00     0.005 C
HETATM   12  C14 UNL     1      31.640   3.912  56.965  1.00  0.00     0.047 C
ENDROOT
BRANCH   4  13
HETATM   13  N2  UNL     1      34.213  -0.901  57.322  1.00  0.00    -0.364 N
HETATM   14  C4  UNL     1      33.857  -1.732  58.433  1.00  0.00     0.197 C
HETATM   15  S1  UNL     1      34.020  -3.468  57.945  1.00  0.00    -0.148 SA
HETATM   16  C5  UNL     1      35.099  -3.536  56.492  1.00  0.00     0.097 C
HETATM   17  C6  UNL     1      36.015  -2.359  56.438  1.00  0.00     0.109 C
HETATM   18 CL1  UNL     1      36.900  -2.476  54.873  1.00  0.00    -0.122 Cl
HETATM   19  C7  UNL     1      35.323  -1.032  56.444  1.00  0.00     0.145 C
ENDBRANCH   4  13
TORSDOF 1
ENDMDL