MODEL 2
REMARK VINA RESULT: -6.097776459      2.812      4.168
REMARK  1 active torsions:
REMARK  status: ('A' for Active; 'I' for Inactive)
REMARK    1  A    between atoms: C7_13  and  C8_14
ROOT
HETATM    1  N1  UNL     1      36.557   5.582  58.383  1.00  0.00    -0.191 NA
HETATM    2  C1  UNL     1      36.035   4.549  58.155  1.00  0.00     0.105 C
HETATM    3  C2  UNL     1      35.387   3.252  57.895  1.00  0.00     0.111 A
HETATM    4  C3  UNL     1      34.122   3.217  57.429  1.00  0.00     0.130 A
HETATM    5 CL1  UNL     1      33.386   4.805  57.124  1.00  0.00    -0.062 Cl
HETATM    6  N2  UNL     1      33.367   2.106  57.135  1.00  0.00    -0.319 N
HETATM    7  C4  UNL     1      33.912   0.880  57.311  1.00  0.00     0.117 A
HETATM    8  S1  UNL     1      35.507   0.684  57.896  1.00  0.00    -0.052 SA
HETATM    9  C5  UNL     1      36.224   2.198  58.186  1.00  0.00     0.098 A
HETATM   10  S2  UNL     1      37.743   2.320  58.748  1.00  0.00    -0.070 SA
HETATM   11  S3  UNL     1      32.737  -0.394  56.727  1.00  0.00    -0.102 SA
HETATM   12  C6  UNL     1      31.962   0.896  55.602  1.00  0.00     0.107 C
HETATM   13  C7  UNL     1      32.030   1.967  56.707  1.00  0.00     0.106 C
ENDROOT
BRANCH  13  14
HETATM   14  C8  UNL     1      31.166   3.082  56.344  1.00  0.00     0.010 C
HETATM   15  C9  UNL     1      29.851   2.459  55.772  1.00  0.00     0.007 C
HETATM   16  C10 UNL     1      29.058   3.583  56.409  1.00  0.00     0.001 C
HETATM   17  C11 UNL     1      30.242   3.667  57.406  1.00  0.00     0.007 C
ENDBRANCH  13  14
TORSDOF 1
ENDMDL