MODEL 5
REMARK VINA RESULT: -5.540008081      2.945      5.605
REMARK  1 active torsions:
REMARK  status: ('A' for Active; 'I' for Inactive)
REMARK    1  A    between atoms: C6_6  and  C7_7
ROOT
HETATM    1  C1  UNL     1      32.411  -3.339  58.162  1.00  0.00     0.043 C
HETATM    2  C2  UNL     1      32.708  -1.995  57.619  1.00  0.00    -0.081 C
HETATM    3  C3  UNL     1      32.980  -1.026  58.471  1.00  0.00    -0.023 C
HETATM    4  C4  UNL     1      33.305   0.401  58.107  1.00  0.00     0.035 C
HETATM    5  C5  UNL     1      32.906   0.661  56.723  1.00  0.00     0.029 C
HETATM    6  C6  UNL     1      33.607   1.740  55.922  1.00  0.00     0.180 C
HETATM    7  O2  UNL     1      34.736   1.415  55.291  1.00  0.00    -0.372 OA
HETATM    8  C10 UNL     1      34.895   0.485  54.328  1.00  0.00     0.147 C
HETATM    9  C11 UNL     1      36.196   0.896  53.593  1.00  0.00     0.042 C
HETATM   10  C12 UNL     1      35.213  -0.945  54.813  1.00  0.00     0.150 C
HETATM   11  C13 UNL     1      34.714  -0.787  56.265  1.00  0.00     0.040 C
HETATM   12  C14 UNL     1      33.247  -0.510  55.954  1.00  0.00     0.005 C
HETATM   13  C15 UNL     1      32.663  -1.862  56.145  1.00  0.00     0.042 C
HETATM   14  C16 UNL     1      33.677  -2.665  55.352  1.00  0.00     0.177 C
HETATM   15  O3  UNL     1      34.343  -1.917  54.339  1.00  0.00    -0.383 OA
ENDROOT
BRANCH   6  16
HETATM   16  C7  UNL     1      33.825   2.978  56.693  1.00  0.00     0.086 A
HETATM   17  N1  UNL     1      34.937   3.536  57.185  1.00  0.00    -0.345 N
HETATM   18  C8  UNL     1      34.556   4.687  57.801  1.00  0.00     0.235 A
ATOM     19  H1  UNL     1      35.886   3.169  57.113  1.00  0.00     0.167 HD
HETATM   20  O1  UNL     1      33.252   4.829  57.689  1.00  0.00    -0.292 OA
HETATM   21  C9  UNL     1      32.784   3.825  57.032  1.00  0.00     0.171 A
HETATM   22 CL1  UNL     1      31.063   3.622  56.659  1.00  0.00    -0.054 Cl
ENDBRANCH   6  16
TORSDOF 1
ENDMDL