MODEL 2
REMARK VINA RESULT: -5.514972858      0.606      1.263
REMARK  2 active torsions:
REMARK  status: ('A' for Active; 'I' for Inactive)
REMARK    1  A    between atoms: C5_6  and  C6_7
REMARK    2  A    between atoms: N2_10  and  C8_11
ROOT
HETATM    1  C1  UNL     1      32.470  -0.733  55.857  1.00  0.00     0.052 C
HETATM    2  C2  UNL     1      33.389  -0.893  54.703  1.00  0.00    -0.014 A
HETATM    3  C3  UNL     1      33.272  -1.986  53.887  1.00  0.00     0.088 A
HETATM    4  C4  UNL     1      32.259  -2.943  54.182  1.00  0.00     0.103 C
HETATM    5  N1  UNL     1      31.446  -3.723  54.416  1.00  0.00    -0.191 NA
HETATM    6  C5  UNL     1      34.150  -2.100  52.818  1.00  0.00     0.117 A
HETATM    7  N2  UNL     1      35.119  -1.221  52.511  1.00  0.00    -0.296 N
HETATM    8  C14 UNL     1      35.233  -0.134  53.326  1.00  0.00     0.130 A
HETATM    9  S1  UNL     1      36.415   0.975  53.081  1.00  0.00    -0.058 SA
HETATM   10  C15 UNL     1      34.371   0.010  54.399  1.00  0.00     0.090 A
HETATM   11  C16 UNL     1      34.518   1.172  55.237  1.00  0.00     0.103 C
HETATM   12  N3  UNL     1      34.639   2.099  55.916  1.00  0.00    -0.191 NA
ENDROOT
BRANCH   6  13
HETATM   13  C6  UNL     1      33.860  -3.233  51.943  1.00  0.00    -0.029 C
HETATM   14  C7  UNL     1      33.624  -4.162  51.176  1.00  0.00     0.012 C
HETATM   15 CL1  UNL     1      33.322  -5.472  50.089  1.00  0.00    -0.023 Cl
ENDBRANCH   6  13
BRANCH   7  16
HETATM   16  C8  UNL     1      36.069  -1.476  51.497  1.00  0.00     0.015 C
HETATM   17  C9  UNL     1      35.986  -0.932  50.291  1.00  0.00    -0.001 C
HETATM   18  C10 UNL     1      37.081  -1.298  49.321  1.00  0.00     0.029 C
HETATM   19  C11 UNL     1      37.066  -2.835  49.315  1.00  0.00     0.004 C
HETATM   20  C12 UNL     1      37.608  -3.269  50.666  1.00  0.00     0.006 C
HETATM   21  C13 UNL     1      37.299  -2.296  51.750  1.00  0.00     0.057 C
ENDBRANCH   7  16
TORSDOF 2
ENDMDL