MODEL 2
REMARK VINA RESULT: -5.390587645      3.653      5.034
REMARK  1 active torsions:
REMARK  status: ('A' for Active; 'I' for Inactive)
REMARK    1  A    between atoms: O1_2  and  C2_3
ROOT
HETATM    1  C2  UNL     1      32.852   3.261  56.696  1.00  0.00     0.121 C
HETATM    2  C3  UNL     1      31.870   2.167  57.001  1.00  0.00     0.037 C
HETATM    3  C4  UNL     1      31.903   1.245  55.796  1.00  0.00     0.074 C
HETATM    4  C5  UNL     1      33.117   0.332  56.005  1.00  0.00     0.200 C
HETATM    5  C6  UNL     1      34.269   1.194  56.509  1.00  0.00     0.074 C
HETATM    6  C7  UNL     1      34.094   2.643  56.137  1.00  0.00     0.037 C
HETATM    7  O2  UNL     1      33.409  -0.274  54.797  1.00  0.00    -0.200 OA
HETATM    8  O3  UNL     1      33.977  -1.456  54.963  1.00  0.00    -0.221 OA
HETATM    9  C8  UNL     1      33.024  -2.357  55.441  1.00  0.00     0.150 C
HETATM   10  C9  UNL     1      33.759  -3.618  55.890  1.00  0.00     0.047 C
HETATM   11  C10 UNL     1      32.790  -4.735  56.157  1.00  0.00     0.003 C
HETATM   12  C11 UNL     1      32.247  -5.382  54.935  1.00  0.00     0.000 C
HETATM   13  C12 UNL     1      32.904  -4.926  53.655  1.00  0.00     0.004 C
HETATM   14  C13 UNL     1      32.532  -3.530  53.273  1.00  0.00    -0.015 C
HETATM   15  C14 UNL     1      33.669  -2.884  52.540  1.00  0.00     0.010 C
HETATM   16  C15 UNL     1      32.007  -2.704  54.411  1.00  0.00     0.051 C
HETATM   17  C16 UNL     1      32.317  -1.755  56.630  1.00  0.00     0.348 C
HETATM   18  F1  UNL     1      30.934  -1.695  56.410  1.00  0.00    -0.216 F
HETATM   19  O4  UNL     1      32.814  -0.539  57.015  1.00  0.00    -0.315 OA
ENDROOT
BRANCH   1  20
HETATM   20  O1  UNL     1      33.060   4.151  57.708  1.00  0.00    -0.391 OA
HETATM   21  C1  UNL     1      34.147   4.972  57.590  1.00  0.00     0.202 C
ENDBRANCH   1  20
TORSDOF 1
ENDMDL