MODEL 5
REMARK VINA RESULT: -6.387005853      2.977      6.040
REMARK  1 active torsions:
REMARK  status: ('A' for Active; 'I' for Inactive)
REMARK    1  A    between atoms: C7_7  and  N1_8
ROOT
HETATM    1  C1  UNL     1      30.845   3.653  57.407  1.00  0.00     0.040 C
HETATM    2  C2  UNL     1      31.650   3.303  56.168  1.00  0.00     0.121 C
HETATM    3  C3  UNL     1      31.346   1.904  55.730  1.00  0.00     0.036 C
HETATM    4  C4  UNL     1      32.030   0.861  56.575  1.00  0.00    -0.007 C
HETATM    5  C5  UNL     1      32.562  -0.201  55.673  1.00  0.00     0.009 C
HETATM    6  C6  UNL     1      34.031  -0.483  55.866  1.00  0.00     0.054 C
HETATM    7  C7  UNL     1      34.895   0.734  55.684  1.00  0.00     0.231 C
HETATM    8  O1  UNL     1      34.196   1.895  55.470  1.00  0.00    -0.331 OA
HETATM    9  C15 UNL     1      33.789   2.539  56.624  1.00  0.00     0.163 C
HETATM   10  C16 UNL     1      34.929   3.040  57.469  1.00  0.00     0.079 C
HETATM   11  C17 UNL     1      33.056   1.487  57.467  1.00  0.00     0.072 C
HETATM   12  O2  UNL     1      32.980   3.592  56.296  1.00  0.00    -0.350 OA
ENDROOT
BRANCH   7  13
HETATM   13  N1  UNL     1      35.813   0.474  54.585  1.00  0.00    -0.324 N
HETATM   14  C8  UNL     1      37.168   0.434  54.656  1.00  0.00     0.138 A
HETATM   15  C9  UNL     1      37.688   0.160  53.414  1.00  0.00     0.160 A
HETATM   16  F1  UNL     1      38.983   0.037  53.060  1.00  0.00    -0.202 F
HETATM   17  C10 UNL     1      36.633   0.023  52.532  1.00  0.00     0.099 A
HETATM   18  N2  UNL     1      36.587  -0.247  51.198  1.00  0.00    -0.362 N
HETATM   19  C14 UNL     1      35.505   0.225  53.298  1.00  0.00     0.066 A
HETATM   20  C11 UNL     1      35.393  -0.319  50.606  1.00  0.00     0.088 A
ATOM     21  H2  UNL     1      37.444  -0.391  50.665  1.00  0.00     0.165 HD
HETATM   22  C12 UNL     1      34.241  -0.127  51.324  1.00  0.00     0.019 A
HETATM   23  C13 UNL     1      34.269   0.146  52.671  1.00  0.00     0.033 A
ENDBRANCH   7  13
TORSDOF 1
ENDMDL