MODEL 2
REMARK VINA RESULT: -6.234089724      1.627      2.711
REMARK  1 active torsions:
REMARK  status: ('A' for Active; 'I' for Inactive)
REMARK    1  A    between atoms: C6_7  and  C7_8
ROOT
HETATM    1  C7  UNL     1      33.787   3.082  57.335  1.00  0.00     0.368 C
HETATM    2  O1  UNL     1      32.912   3.110  58.431  1.00  0.00    -0.197 OA
HETATM    3  O2  UNL     1      31.787   2.514  58.184  1.00  0.00    -0.195 OA
HETATM    4  C8  UNL     1      31.196   2.925  56.984  1.00  0.00     0.229 C
HETATM    5  C9  UNL     1      31.219   1.743  56.055  1.00  0.00     0.074 C
HETATM    6  C10 UNL     1      29.902   1.477  55.395  1.00  0.00     0.006 C
HETATM    7  C11 UNL     1      29.382   2.830  54.905  1.00  0.00     0.000 C
HETATM    8  C12 UNL     1      28.916   3.569  56.135  1.00  0.00     0.006 C
HETATM    9  C13 UNL     1      29.810   3.398  57.315  1.00  0.00     0.074 C
HETATM   10  O3  UNL     1      31.916   4.010  56.488  1.00  0.00    -0.195 OA
HETATM   11  O4  UNL     1      33.177   3.733  56.293  1.00  0.00    -0.197 OA
ENDROOT
BRANCH   1  12
HETATM   12  C6  UNL     1      35.045   3.730  57.788  1.00  0.00     0.019 A
HETATM   13  C1  UNL     1      36.121   2.959  58.163  1.00  0.00     0.022 A
HETATM   14 BR1  UNL     1      35.973   1.042  58.092  1.00  0.00    -0.050 Br
HETATM   15  C2  UNL     1      37.305   3.558  58.589  1.00  0.00     0.020 A
HETATM   16  C3  UNL     1      37.440   4.927  58.650  1.00  0.00     0.001 A
HETATM   17  C4  UNL     1      36.354   5.681  58.271  1.00  0.00     0.001 A
HETATM   18  C5  UNL     1      35.167   5.103  57.844  1.00  0.00     0.013 A
ENDBRANCH   1  12
TORSDOF 1
ENDMDL