MODEL 3
REMARK VINA RESULT: -5.448209534      0.767      1.091
REMARK  1 active torsions:
REMARK  status: ('A' for Active; 'I' for Inactive)
REMARK    1  A    between atoms: C2_2  and  C4_4
ROOT
HETATM    1  C4  UNL     1      32.875   1.200  55.632  1.00  0.00     0.019 C
HETATM    2  C5  UNL     1      34.327   1.334  56.117  1.00  0.00     0.020 C
HETATM    3  C6  UNL     1      34.856  -0.108  56.157  1.00  0.00     0.070 C
HETATM    4  C7  UNL     1      35.958  -0.251  55.099  1.00  0.00     0.245 C
HETATM    5  C8  UNL     1      37.192   0.226  55.772  1.00  0.00     0.114 C
HETATM    6  N1  UNL     1      38.157   0.579  56.303  1.00  0.00    -0.193 NA
HETATM    7  C9  UNL     1      35.741   0.623  53.966  1.00  0.00     0.114 C
HETATM    8  N2  UNL     1      35.560   1.350  53.057  1.00  0.00    -0.193 NA
HETATM    9  O1  UNL     1      36.181  -1.550  54.734  1.00  0.00    -0.323 OA
HETATM   10  C10 UNL     1      35.357  -2.017  53.722  1.00  0.00     0.284 C
HETATM   11 CL1  UNL     1      35.942  -1.730  52.108  1.00  0.00    -0.084 Cl
HETATM   12  S1  UNL     1      33.712  -1.254  54.020  1.00  0.00    -0.111 SA
HETATM   13  C11 UNL     1      33.726  -0.925  55.792  1.00  0.00     0.024 C
HETATM   14  C12 UNL     1      33.378  -2.145  56.526  1.00  0.00     0.021 C
HETATM   15  C13 UNL     1      31.897  -2.308  56.137  1.00  0.00     0.002 C
HETATM   16  C14 UNL     1      31.448  -0.908  55.674  1.00  0.00     0.007 C
HETATM   17  C15 UNL     1      32.514  -0.075  56.224  1.00  0.00     0.013 C
ENDROOT
BRANCH   1  18
HETATM   18  C2  UNL     1      32.117   2.306  56.279  1.00  0.00    -0.088 C
HETATM   19  C1  UNL     1      30.908   2.687  55.916  1.00  0.00     0.014 C
HETATM   20  C3  UNL     1      32.778   3.026  57.416  1.00  0.00     0.043 C
ENDBRANCH   1  18
TORSDOF 1
ENDMDL