MODEL 4
REMARK VINA RESULT: -5.055452077      2.630      4.485
REMARK  3 active torsions:
REMARK  status: ('A' for Active; 'I' for Inactive)
REMARK    1  A    between atoms: O1_2  and  C2_3
REMARK    2  A    between atoms: C2_3  and  C3_5
REMARK    3  A    between atoms: C3_5  and  C4_6
ROOT
HETATM    1  C4  UNL     1      33.347  -0.178  57.009  1.00  0.00     0.042 C
HETATM    2  C5  UNL     1      32.513  -0.133  55.782  1.00  0.00    -0.040 C
HETATM    3  C6  UNL     1      33.083  -0.003  54.452  1.00  0.00     0.015 C
HETATM    4  C7  UNL     1      31.817  -1.525  55.772  1.00  0.00     0.015 C
HETATM    5  C8  UNL     1      31.261   0.759  55.984  1.00  0.00     0.017 C
HETATM    6  C9  UNL     1      31.621   2.181  55.905  1.00  0.00     0.026 C
HETATM    7  C10 UNL     1      30.671   3.197  56.455  1.00  0.00     0.011 C
HETATM    8  C11 UNL     1      31.927   3.893  57.019  1.00  0.00     0.044 C
HETATM    9  C12 UNL     1      32.509   2.546  57.061  1.00  0.00     0.119 C
HETATM   10  O3  UNL     1      32.409   1.813  58.223  1.00  0.00    -0.227 OA
HETATM   11  O4  UNL     1      33.662   1.544  58.631  1.00  0.00    -0.227 OA
HETATM   12  C13 UNL     1      34.137   1.016  57.385  1.00  0.00     0.117 C
HETATM   13  C14 UNL     1      35.600   0.840  57.549  1.00  0.00     0.051 C
HETATM   14  C15 UNL     1      33.913   2.297  56.647  1.00  0.00     0.158 C
HETATM   15 CL1  UNL     1      34.905   3.532  57.525  1.00  0.00    -0.118 Cl
ENDROOT
BRANCH   1  16
HETATM   16  C3  UNL     1      33.979  -1.478  57.353  1.00  0.00     0.119 C
BRANCH  16  17
HETATM   17  C2  UNL     1      33.776  -2.092  58.636  1.00  0.00     0.258 C
HETATM   18  O2  UNL     1      34.427  -2.892  59.306  1.00  0.00    -0.265 OA
BRANCH  17  19
HETATM   19  O1  UNL     1      32.571  -1.704  59.285  1.00  0.00    -0.326 OA
HETATM   20  C1  UNL     1      32.564  -1.201  60.603  1.00  0.00     0.213 C
ENDBRANCH  17  19
ENDBRANCH  16  17
ENDBRANCH   1  16
TORSDOF 3
ENDMDL