MODEL 1
REMARK VINA RESULT: -5.191540673      0.000      0.000
REMARK  1 active torsions:
REMARK  status: ('A' for Active; 'I' for Inactive)
REMARK    1  A    between atoms: O1_2  and  N1_3
ROOT
HETATM    1  N1  UNL     1      32.572   3.328  56.287  1.00  0.00    -0.273 N
ATOM      2  H1  UNL     1      33.214   4.120  56.323  1.00  0.00     0.193 HD
HETATM    3  C2  UNL     1      33.069   2.150  56.225  1.00  0.00     0.034 C
HETATM    4  C3  UNL     1      34.534   1.998  56.207  1.00  0.00     0.059 C
HETATM    5  C4  UNL     1      35.013   0.732  55.599  1.00  0.00     0.043 C
HETATM    6  C5  UNL     1      36.347   0.847  54.900  1.00  0.00     0.174 C
HETATM    7  F1  UNL     1      36.110   1.356  53.637  1.00  0.00    -0.249 F
HETATM    8  C6  UNL     1      36.906  -0.552  54.760  1.00  0.00     0.019 C
HETATM    9  C7  UNL     1      38.419  -0.468  54.603  1.00  0.00     0.013 C
HETATM   10  C8  UNL     1      36.304  -1.267  53.572  1.00  0.00     0.034 C
HETATM   11  C9  UNL     1      36.710  -2.690  53.562  1.00  0.00    -0.030 C
HETATM   12  C10 UNL     1      35.959  -3.676  54.019  1.00  0.00    -0.031 C
HETATM   13  C11 UNL     1      34.622  -3.349  54.581  1.00  0.00     0.027 C
HETATM   14  C12 UNL     1      33.544  -3.423  53.530  1.00  0.00     0.004 C
HETATM   15  C13 UNL     1      32.261  -4.014  54.047  1.00  0.00     0.001 C
HETATM   16  C14 UNL     1      31.689  -3.360  55.241  1.00  0.00     0.010 C
HETATM   17  C15 UNL     1      31.871  -1.871  55.314  1.00  0.00     0.111 C
HETATM   18  C16 UNL     1      32.201  -1.403  56.683  1.00  0.00     0.259 C
HETATM   19  O2  UNL     1      32.112  -2.207  57.642  1.00  0.00    -0.265 OA
HETATM   20  O3  UNL     1      32.596  -0.115  56.886  1.00  0.00    -0.316 OA
HETATM   21  C17 UNL     1      32.139   1.009  56.172  1.00  0.00     0.233 C
ENDROOT
BRANCH   1  22
HETATM   22  O1  UNL     1      31.229   3.584  56.309  1.00  0.00    -0.285 OA
HETATM   23  C1  UNL     1      30.525   3.941  57.482  1.00  0.00     0.237 C
ENDBRANCH   1  22
TORSDOF 1
ENDMDL