MODEL 1
REMARK VINA RESULT: -9.976345223      0.000      0.000
REMARK  5 active torsions:
REMARK  status: ('A' for Active; 'I' for Inactive)
REMARK    1  A    between atoms: C2_2  and  C3_3
REMARK    2  A    between atoms: C2_2  and  N2_19
REMARK       I    between atoms: C3_3  and  N1_5
REMARK    3  A    between atoms: N1_5  and  C4_7
REMARK    4  A    between atoms: C16_21  and  C17_22
REMARK       I    between atoms: N3_26  and  C21_27
REMARK    5  A    between atoms: C21_27  and  C22_29
ROOT
HETATM    1  C1  UNL     1      32.048  33.527  23.115  1.00  0.00     0.049 C
HETATM    2  C2  UNL     1      33.182  34.051  22.703  1.00  0.00     0.093 C
ENDROOT
BRANCH   2   3
HETATM    3  C3  UNL     1      33.667  33.927  21.347  1.00  0.00     0.267 C
HETATM    4  O1  UNL     1      33.445  32.842  20.715  1.00  0.00    -0.266 OA
HETATM    5  N1  UNL     1      34.378  34.908  20.629  1.00  0.00    -0.351 N
ATOM      6  H1  UNL     1      34.581  35.796  21.089  1.00  0.00     0.163 HD
BRANCH   5   7
HETATM    7  C4  UNL     1      34.844  34.711  19.243  1.00  0.00     0.085 C
HETATM    8  C5  UNL     1      33.859  35.115  18.241  1.00  0.00     0.029 C
HETATM    9  C6  UNL     1      34.134  36.209  17.289  1.00  0.00    -0.009 C
HETATM   10  C7  UNL     1      34.644  35.959  15.929  1.00  0.00     0.036 C
HETATM   11  C13 UNL     1      35.283  36.926  17.940  1.00  0.00     0.016 C
HETATM   12  C8  UNL     1      35.987  36.252  15.519  1.00  0.00     0.121 C
HETATM   13  C9  UNL     1      36.948  37.208  16.086  1.00  0.00     0.033 C
HETATM   14  O2  UNL     1      36.738  35.040  15.639  1.00  0.00    -0.385 OA
HETATM   15  C10 UNL     1      37.515  36.785  17.476  1.00  0.00     0.014 C
HETATM   16  C11 UNL     1      36.357  35.927  17.891  1.00  0.00    -0.017 C
HETATM   17  C12 UNL     1      36.464  34.776  17.006  1.00  0.00     0.177 C
HETATM   18  C14 UNL     1      36.260  35.299  19.225  1.00  0.00     0.036 C
ENDBRANCH   5   7
ENDBRANCH   2   3
BRANCH   2  19
HETATM   19  N2  UNL     1      33.966  34.783  23.639  1.00  0.00    -0.348 N
HETATM   20  C15 UNL     1      33.894  36.194  23.863  1.00  0.00     0.097 C
HETATM   21  C16 UNL     1      35.003  36.602  24.484  1.00  0.00    -0.040 C
HETATM   22  C23 UNL     1      35.887  35.458  24.668  1.00  0.00     0.062 C
HETATM   23  C24 UNL     1      34.978  34.255  24.539  1.00  0.00     0.089 C
HETATM   24  C25 UNL     1      34.394  33.987  25.917  1.00  0.00     0.033 C
BRANCH  21  25
HETATM   25  C17 UNL     1      35.184  38.038  24.838  1.00  0.00     0.118 C
HETATM   26  C18 UNL     1      35.387  38.075  26.333  1.00  0.00     0.031 C
HETATM   27  C19 UNL     1      34.138  38.582  26.948  1.00  0.00     0.022 C
HETATM   28  C20 UNL     1      33.213  38.870  25.822  1.00  0.00     0.127 C
HETATM   29  N3  UNL     1      34.038  38.850  24.600  1.00  0.00    -0.336 N
HETATM   30  C21 UNL     1      33.671  39.573  23.439  1.00  0.00     0.328 C
HETATM   31  O3  UNL     1      32.566  40.235  23.509  1.00  0.00    -0.263 OA
BRANCH  30  32
HETATM   32  C22 UNL     1      34.431  39.628  22.189  1.00  0.00     0.472 C
HETATM   33  F1  UNL     1      33.781  40.389  21.264  1.00  0.00    -0.162 F
HETATM   34  F2  UNL     1      34.622  38.357  21.624  1.00  0.00    -0.162 F
HETATM   35  F3  UNL     1      35.652  40.233  22.422  1.00  0.00    -0.162 F
ENDBRANCH  30  32
ENDBRANCH  21  25
ENDBRANCH   2  19
TORSDOF 5
ENDMDL