MODEL 4
REMARK VINA RESULT: -8.578105903      3.897      4.705
REMARK  6 active torsions:
REMARK  status: ('A' for Active; 'I' for Inactive)
REMARK    1  A    between atoms: C2_2  and  C3_3
REMARK    2  A    between atoms: C2_2  and  C9_13
REMARK    3  A    between atoms: C3_3  and  N1_4
REMARK       I    between atoms: N1_4  and  C4_6
REMARK    4  A    between atoms: C4_6  and  C5_8
REMARK    5  A    between atoms: C15_20  and  C16_21
REMARK    6  A    between atoms: C16_21  and  C17_23
ROOT
HETATM    1  C9  UNL     1      35.117  36.992  23.002  1.00  0.00    -0.001 C
HETATM    2  C10 UNL     1      36.374  37.789  23.171  1.00  0.00     0.006 C
HETATM    3  C11 UNL     1      36.031  38.948  24.094  1.00  0.00     0.006 C
HETATM    4  C12 UNL     1      34.690  38.567  24.724  1.00  0.00     0.006 C
HETATM    5  C13 UNL     1      34.962  37.750  25.925  1.00  0.00     0.066 C
HETATM    6  C14 UNL     1      34.914  38.665  27.114  1.00  0.00     0.143 C
HETATM    7  O3  UNL     1      35.488  39.731  27.242  1.00  0.00    -0.297 OA
HETATM    8  C15 UNL     1      34.043  38.077  28.144  1.00  0.00     0.135 C
HETATM    9  C18 UNL     1      33.799  36.665  27.676  1.00  0.00     0.026 C
HETATM   10  C19 UNL     1      34.023  36.646  26.197  1.00  0.00     0.006 C
HETATM   11  C20 UNL     1      32.729  36.730  25.436  1.00  0.00    -0.043 C
HETATM   12  C21 UNL     1      31.757  37.723  26.053  1.00  0.00     0.015 C
HETATM   13  C22 UNL     1      32.064  35.353  25.599  1.00  0.00     0.015 C
HETATM   14  C23 UNL     1      32.879  36.985  23.988  1.00  0.00     0.019 C
HETATM   15  C24 UNL     1      34.035  37.827  23.573  1.00  0.00    -0.035 C
HETATM   16  C25 UNL     1      33.515  38.931  22.683  1.00  0.00     0.016 C
ENDROOT
BRANCH   1  17
HETATM   17  C2  UNL     1      34.918  36.311  21.715  1.00  0.00     0.004 C
HETATM   18  C1  UNL     1      34.774  34.797  22.002  1.00  0.00     0.012 C
BRANCH  17  19
HETATM   19  C3  UNL     1      36.047  36.382  20.720  1.00  0.00     0.127 C
BRANCH  19  20
HETATM   20  N1  UNL     1      35.463  36.902  19.472  1.00  0.00    -0.360 N
HETATM   21  C4  UNL     1      35.264  36.006  18.367  1.00  0.00     0.224 C
HETATM   22  O1  UNL     1      35.594  34.802  18.494  1.00  0.00    -0.273 OA
ATOM     23  H1  UNL     1      35.203  37.885  19.393  1.00  0.00     0.162 HD
BRANCH  21  24
HETATM   24  C5  UNL     1      34.684  36.460  17.089  1.00  0.00     0.103 C
HETATM   25  C6  UNL     1      33.360  35.805  16.787  1.00  0.00     0.042 C
HETATM   26  C7  UNL     1      33.519  35.399  15.339  1.00  0.00     0.168 C
HETATM   27  O2  UNL     1      34.854  34.943  15.341  1.00  0.00    -0.390 OA
HETATM   28  C8  UNL     1      35.540  36.001  15.934  1.00  0.00     0.181 C
ENDBRANCH  21  24
ENDBRANCH  19  20
ENDBRANCH  17  19
ENDBRANCH   1  17
BRANCH   8  29
HETATM   29  C16 UNL     1      34.676  38.175  29.456  1.00  0.00     0.243 C
HETATM   30  O4  UNL     1      35.666  37.483  29.690  1.00  0.00    -0.287 OA
BRANCH  29  31
HETATM   31  C17 UNL     1      34.213  39.061  30.557  1.00  0.00     0.451 C
HETATM   32  F1  UNL     1      32.858  39.309  30.305  1.00  0.00    -0.163 F
HETATM   33  F2  UNL     1      34.928  40.214  30.664  1.00  0.00    -0.163 F
HETATM   34  F3  UNL     1      34.250  38.415  31.776  1.00  0.00    -0.163 F
ENDBRANCH  29  31
ENDBRANCH   8  29
TORSDOF 6
ENDMDL