MODEL 3
REMARK VINA RESULT: -8.539993234      2.890      4.758
REMARK  7 active torsions:
REMARK  status: ('A' for Active; 'I' for Inactive)
REMARK    1  A    between atoms: C2_2  and  C3_3
REMARK    2  A    between atoms: C2_2  and  N3_30
REMARK    3  A    between atoms: C3_3  and  C4_4
REMARK    4  A    between atoms: C4_4  and  C5_5
REMARK    5  A    between atoms: C8_8  and  C9_9
REMARK       I    between atoms: C9_9  and  N1_11
REMARK    6  A    between atoms: C16_18  and  N2_19
REMARK    7  A    between atoms: C18_24  and  C19_25
ROOT
HETATM    1  N3  UNL     1      31.799  33.048  25.583  1.00  0.00    -0.408 N
HETATM    2  C21 UNL     1      32.853  32.144  25.282  1.00  0.00     0.118 C
HETATM    3  C22 UNL     1      33.911  32.727  24.375  1.00  0.00     0.038 C
HETATM    4  C23 UNL     1      33.323  33.348  23.136  1.00  0.00     0.096 C
HETATM    5  C24 UNL     1      33.812  32.778  21.904  1.00  0.00     0.064 C
HETATM    6  N4  UNL     1      34.215  32.339  20.922  1.00  0.00    -0.197 NA
HETATM    7  C25 UNL     1      31.803  33.281  23.207  1.00  0.00     0.038 C
HETATM    8  C26 UNL     1      31.406  33.919  24.524  1.00  0.00     0.118 C
ENDROOT
BRANCH   1   9
HETATM    9  C2  UNL     1      31.910  33.687  26.863  1.00  0.00     0.075 C
HETATM   10  C1  UNL     1      30.718  33.279  27.701  1.00  0.00     0.032 C
BRANCH   9  11
HETATM   11  C3  UNL     1      31.987  35.173  26.792  1.00  0.00     0.029 C
BRANCH  11  12
HETATM   12  C4  UNL     1      33.419  35.593  27.154  1.00  0.00     0.040 C
BRANCH  12  13
HETATM   13  C5  UNL     1      33.923  36.284  25.913  1.00  0.00    -0.057 A
HETATM   14  C6  UNL     1      35.187  36.034  25.428  1.00  0.00     0.008 A
HETATM   15  C7  UNL     1      35.646  36.665  24.300  1.00  0.00     0.018 A
HETATM   16  C8  UNL     1      34.828  37.579  23.626  1.00  0.00     0.047 A
HETATM   17  C18 UNL     1      33.572  37.847  24.087  1.00  0.00     0.064 A
HETATM   18  C20 UNL     1      33.138  37.185  25.237  1.00  0.00     0.024 A
BRANCH  16  19
HETATM   19  C9  UNL     1      35.330  38.194  22.426  1.00  0.00     0.254 C
HETATM   20  O1  UNL     1      35.608  39.408  22.408  1.00  0.00    -0.267 OA
HETATM   21  N1  UNL     1      35.511  37.381  21.248  1.00  0.00    -0.347 N
HETATM   22  C10 UNL     1      35.258  35.966  21.141  1.00  0.00     0.127 C
HETATM   23  C17 UNL     1      35.978  37.871  19.979  1.00  0.00     0.137 C
HETATM   24  C11 UNL     1      34.940  35.762  19.650  1.00  0.00     0.033 C
HETATM   25  C12 UNL     1      35.888  36.763  19.010  1.00  0.00     0.005 C
HETATM   26  C13 UNL     1      35.211  37.255  17.726  1.00  0.00     0.013 C
HETATM   27  C16 UNL     1      37.181  36.123  18.609  1.00  0.00     0.193 C
HETATM   28  C14 UNL     1      35.877  36.404  16.672  1.00  0.00     0.003 C
HETATM   29  C15 UNL     1      37.337  36.484  17.129  1.00  0.00     0.033 C
BRANCH  27  30
HETATM   30  N2  UNL     1      38.261  36.637  19.394  1.00  0.00    -0.074 N
ATOM     31  H23 UNL     1      37.951  37.374  20.027  1.00  0.00     0.274 HD
ATOM     32  H22 UNL     1      38.580  35.963  20.089  1.00  0.00     0.274 HD
ATOM     33  H21 UNL     1      39.024  36.949  18.793  1.00  0.00     0.274 HD
ENDBRANCH  27  30
ENDBRANCH  16  19
BRANCH  17  34
HETATM   34  C19 UNL     1      32.687  38.822  23.445  1.00  0.00     0.418 C
HETATM   35  F1  UNL     1      32.890  40.123  23.891  1.00  0.00    -0.166 F
HETATM   36  F2  UNL     1      32.741  38.743  22.086  1.00  0.00    -0.166 F
HETATM   37  F3  UNL     1      31.363  38.540  23.872  1.00  0.00    -0.166 F
ENDBRANCH  17  34
ENDBRANCH  12  13
ENDBRANCH  11  12
ENDBRANCH   9  11
ENDBRANCH   1   9
TORSDOF 7
ENDMDL