MODEL 1
REMARK VINA RESULT: -9.087858636      0.000      0.000
REMARK  5 active torsions:
REMARK  status: ('A' for Active; 'I' for Inactive)
REMARK    1  A    between atoms: C2_2  and  C3_3
REMARK    2  A    between atoms: C9_9  and  N1_10
REMARK    3  A    between atoms: C10_12  and  C11_13
REMARK       I    between atoms: C11_13  and  N2_15
REMARK    4  A    between atoms: C16_20  and  C17_21
REMARK    5  A    between atoms: C21_30  and  N4_31
ROOT
HETATM    1  N1  UNL     1      31.995  34.236  23.681  1.00  0.00    -0.390 N
ATOM      2  H1  UNL     1      31.136  34.035  23.169  1.00  0.00     0.159 HD
HETATM    3  C10 UNL     1      32.748  33.156  24.007  1.00  0.00     0.158 C
ENDROOT
BRANCH   1   4
HETATM    4  C9  UNL     1      32.230  35.564  23.946  1.00  0.00     0.083 C
HETATM    5  C8  UNL     1      31.127  36.537  24.095  1.00  0.00     0.026 C
HETATM    6  C7  UNL     1      31.325  37.549  25.208  1.00  0.00     0.009 C
HETATM    7  C6  UNL     1      32.680  38.100  25.327  1.00  0.00     0.025 C
HETATM    8  C5  UNL     1      32.913  38.471  26.802  1.00  0.00     0.016 C
HETATM    9  C21 UNL     1      33.795  37.145  24.983  1.00  0.00     0.166 C
HETATM   10  C3  UNL     1      34.273  38.000  27.180  1.00  0.00    -0.042 C
HETATM   11  C4  UNL     1      34.190  37.029  28.329  1.00  0.00     0.015 C
HETATM   12  C26 UNL     1      34.892  37.333  25.969  1.00  0.00     0.051 C
HETATM   13  C20 UNL     1      33.193  35.760  25.139  1.00  0.00     0.067 C
BRANCH  10  14
HETATM   14  C2  UNL     1      35.142  39.188  27.563  1.00  0.00     0.005 C
HETATM   15  C1  UNL     1      36.009  39.641  26.442  1.00  0.00     0.006 C
ENDBRANCH  10  14
BRANCH   9  16
HETATM   16  N4  UNL     1      34.229  37.255  23.638  1.00  0.00     0.098 N
HETATM   17  C22 UNL     1      34.268  38.603  23.120  1.00  0.00     0.273 C
HETATM   18  C23 UNL     1      34.906  38.324  21.746  1.00  0.00     0.032 C
HETATM   19  C24 UNL     1      35.759  37.105  21.977  1.00  0.00     0.032 C
HETATM   20  C25 UNL     1      35.588  36.768  23.449  1.00  0.00     0.273 C
ENDBRANCH   9  16
ENDBRANCH   1   4
BRANCH   3  21
HETATM   21  C11 UNL     1      34.069  32.881  23.495  1.00  0.00     0.259 C
HETATM   22  O1  UNL     1      35.103  32.898  24.200  1.00  0.00    -0.267 OA
HETATM   23  N2  UNL     1      34.215  32.592  22.131  1.00  0.00    -0.338 N
HETATM   24  C12 UNL     1      33.186  32.566  21.075  1.00  0.00     0.167 C
HETATM   25  C19 UNL     1      35.417  32.313  21.323  1.00  0.00     0.184 C
HETATM   26  C13 UNL     1      33.857  33.591  20.191  1.00  0.00    -0.016 A
HETATM   27  C14 UNL     1      33.455  34.575  19.360  1.00  0.00     0.013 A
HETATM   28  C18 UNL     1      35.249  33.441  20.346  1.00  0.00     0.035 A
HETATM   29  C15 UNL     1      34.374  35.391  18.704  1.00  0.00     0.035 A
HETATM   30  C16 UNL     1      35.735  35.218  18.882  1.00  0.00     0.117 A
HETATM   31  N3  UNL     1      36.108  34.225  19.714  1.00  0.00    -0.354 N
ATOM     32  H3  UNL     1      37.104  34.069  19.864  1.00  0.00     0.166 HD
BRANCH  30  33
HETATM   33  C17 UNL     1      36.723  36.110  18.194  1.00  0.00     0.432 C
HETATM   34  F1  UNL     1      37.706  36.420  19.082  1.00  0.00    -0.165 F
HETATM   35  F2  UNL     1      37.165  35.579  17.004  1.00  0.00    -0.165 F
HETATM   36  F3  UNL     1      36.031  37.302  17.906  1.00  0.00    -0.165 F
ENDBRANCH  30  33
ENDBRANCH   3  21
TORSDOF 5
ENDMDL