MODEL 1
REMARK VINA RESULT: -8.317968607      0.000      0.000
REMARK  6 active torsions:
REMARK  status: ('A' for Active; 'I' for Inactive)
REMARK    1  A    between atoms: N1_6  and  C6_7
REMARK    2  A    between atoms: C6_7  and  C7_8
REMARK    3  A    between atoms: C7_8  and  N2_9
REMARK    4  A    between atoms: N3_12  and  C10_13
REMARK    5  A    between atoms: C10_13  and  C11_14
REMARK    6  A    between atoms: C23_29  and  C25_32
ROOT
HETATM    1  N2  UNL     1      34.043  36.455  24.300  1.00  0.00    -0.358 N
HETATM    2  C8  UNL     1      34.906  35.417  24.650  1.00  0.00     0.080 C
HETATM    3  C9  UNL     1      34.796  34.220  23.776  1.00  0.00     0.167 C
HETATM    4  N3  UNL     1      34.721  34.545  22.381  1.00  0.00    -0.374 N
HETATM    5  C15 UNL     1      35.021  35.727  21.655  1.00  0.00     0.022 C
HETATM    6  C16 UNL     1      34.894  36.967  22.106  1.00  0.00     0.062 C
HETATM    7  C17 UNL     1      35.244  38.029  21.177  1.00  0.00     0.162 C
HETATM    8  O1  UNL     1      34.824  39.182  21.195  1.00  0.00    -0.292 OA
HETATM    9  C18 UNL     1      36.217  37.729  20.046  1.00  0.00     0.093 C
HETATM   10  C19 UNL     1      35.624  36.517  19.345  1.00  0.00    -0.036 C
HETATM   11  C20 UNL     1      36.619  36.115  18.280  1.00  0.00     0.015 C
HETATM   12  C21 UNL     1      34.295  36.897  18.797  1.00  0.00     0.015 C
HETATM   13  C22 UNL     1      35.570  35.416  20.365  1.00  0.00     0.066 C
HETATM   14  C23 UNL     1      34.467  37.515  23.453  1.00  0.00     0.253 C
HETATM   15  C24 UNL     1      33.400  38.490  23.268  1.00  0.00     0.106 C
HETATM   16  N5  UNL     1      32.548  39.291  23.090  1.00  0.00    -0.194 NA
ENDROOT
BRANCH  14  17
HETATM   17  C25 UNL     1      35.651  38.186  24.092  1.00  0.00     0.431 C
HETATM   18  F1  UNL     1      35.635  37.955  25.494  1.00  0.00    -0.167 F
HETATM   19  F2  UNL     1      36.885  37.869  23.661  1.00  0.00    -0.167 F
HETATM   20  F3  UNL     1      35.516  39.607  24.120  1.00  0.00    -0.167 F
ENDBRANCH  14  17
BRANCH   1  21
HETATM   21  C7  UNL     1      32.666  36.057  24.266  1.00  0.00     0.154 C
BRANCH  21  22
HETATM   22  C6  UNL     1      32.061  36.016  25.674  1.00  0.00     0.292 C
BRANCH  22  23
HETATM   23  N1  UNL     1      32.820  36.830  26.544  1.00  0.00     0.094 N
HETATM   24  C2  UNL     1      33.104  36.204  27.832  1.00  0.00     0.219 C
HETATM   25  C1  UNL     1      31.911  35.899  28.659  1.00  0.00     0.043 C
HETATM   26  C3  UNL     1      33.899  37.342  28.474  1.00  0.00     0.037 C
HETATM   27  C4  UNL     1      33.079  38.536  28.034  1.00  0.00     0.032 C
HETATM   28  C5  UNL     1      32.087  38.017  26.994  1.00  0.00     0.273 C
ENDBRANCH  22  23
ENDBRANCH  21  22
ENDBRANCH   1  21
BRANCH   4  29
HETATM   29  C10 UNL     1      34.234  33.464  21.566  1.00  0.00     0.163 C
BRANCH  29  30
HETATM   30  C11 UNL     1      32.879  32.979  21.936  1.00  0.00    -0.024 A
HETATM   31  C12 UNL     1      32.622  31.659  22.343  1.00  0.00     0.027 A
HETATM   32  C13 UNL     1      31.276  31.588  22.610  1.00  0.00     0.088 A
HETATM   33  N4  UNL     1      30.689  32.776  22.395  1.00  0.00    -0.375 N
HETATM   34  C14 UNL     1      31.670  33.622  21.985  1.00  0.00     0.096 A
ATOM     35  H4  UNL     1      29.702  32.999  22.516  1.00  0.00     0.164 HD
ENDBRANCH  29  30
ENDBRANCH   4  29
TORSDOF 6
ENDMDL