MODEL 2
REMARK VINA RESULT: -9.394824459      0.868      1.270
REMARK  6 active torsions:
REMARK  status: ('A' for Active; 'I' for Inactive)
REMARK    1  A    between atoms: N2_5  and  C4_6
REMARK    2  A    between atoms: C4_6  and  C5_7
REMARK    3  A    between atoms: C5_7  and  N3_8
REMARK    4  A    between atoms: C11_14  and  C12_15
REMARK    5  A    between atoms: C11_14  and  C20_30
REMARK    6  A    between atoms: C15_20  and  C16_21
ROOT
HETATM    1  N3  UNL     1      34.047  36.676  25.268  1.00  0.00     0.099 N
HETATM    2  C6  UNL     1      34.606  37.899  25.797  1.00  0.00     0.223 C
HETATM    3  C7  UNL     1      33.408  38.860  25.817  1.00  0.00     0.038 C
HETATM    4  C8  UNL     1      32.416  38.202  24.910  1.00  0.00     0.038 C
HETATM    5  C9  UNL     1      33.120  37.030  24.268  1.00  0.00     0.224 C
HETATM    6  C10 UNL     1      33.624  37.196  22.917  1.00  0.00     0.053 C
HETATM    7  C11 UNL     1      34.891  37.887  22.657  1.00  0.00     0.024 C
HETATM    8  C23 UNL     1      35.919  37.624  23.754  1.00  0.00     0.020 C
HETATM    9  C24 UNL     1      35.697  38.504  24.977  1.00  0.00     0.037 C
ENDROOT
BRANCH   7  10
HETATM   10  C12 UNL     1      35.501  37.444  21.380  1.00  0.00     0.091 A
HETATM   11  N4  UNL     1      34.796  37.066  20.272  1.00  0.00    -0.343 N
HETATM   12  C13 UNL     1      35.653  36.852  19.242  1.00  0.00     0.061 A
ATOM     13  H4  UNL     1      33.782  36.960  20.226  1.00  0.00     0.167 HD
HETATM   14  C14 UNL     1      35.474  36.505  17.899  1.00  0.00     0.048 A
HETATM   15  C19 UNL     1      36.905  37.103  19.728  1.00  0.00     0.060 A
HETATM   16  C15 UNL     1      36.540  36.404  17.040  1.00  0.00     0.050 A
HETATM   17  C17 UNL     1      37.808  36.647  17.526  1.00  0.00     0.018 A
HETATM   18  C18 UNL     1      37.959  36.993  18.872  1.00  0.00     0.032 A
HETATM   19  N5  UNL     1      36.805  37.449  21.007  1.00  0.00    -0.343 N
ATOM     20  H5  UNL     1      37.589  37.683  21.616  1.00  0.00     0.167 HD
BRANCH  16  21
HETATM   21  C16 UNL     1      36.288  36.038  15.600  1.00  0.00     0.417 C
HETATM   22  F1  UNL     1      34.945  36.014  15.369  1.00  0.00    -0.166 F
HETATM   23  F2  UNL     1      36.843  37.051  14.821  1.00  0.00    -0.166 F
HETATM   24  F3  UNL     1      36.902  34.825  15.347  1.00  0.00    -0.166 F
ENDBRANCH  16  21
ENDBRANCH   7  10
BRANCH   7  25
HETATM   25  C20 UNL     1      34.760  39.391  22.554  1.00  0.00     0.002 A
HETATM   26  C21 UNL     1      33.536  40.190  22.448  1.00  0.00     0.006 A
HETATM   27  C22 UNL     1      34.001  39.689  21.191  1.00  0.00     0.006 A
ENDBRANCH   7  25
BRANCH   1  28
HETATM   28  C5  UNL     1      33.379  35.976  26.326  1.00  0.00     0.292 C
BRANCH  28  29
HETATM   29  C4  UNL     1      33.541  34.483  26.351  1.00  0.00     0.147 C
BRANCH  29  30
HETATM   30  N2  UNL     1      32.346  33.936  25.805  1.00  0.00    -0.407 N
HETATM   31  C3  UNL     1      31.372  33.395  26.664  1.00  0.00     0.147 C
HETATM   32  C2  UNL     1      30.254  32.752  25.840  1.00  0.00     0.291 C
HETATM   33  N1  UNL     1      30.726  31.731  24.948  1.00  0.00     0.087 N
HETATM   34  C1  UNL     1      29.956  31.621  23.732  1.00  0.00     0.310 C
HETATM   35  C26 UNL     1      32.144  31.788  24.673  1.00  0.00     0.291 C
HETATM   36  C25 UNL     1      32.578  33.219  24.564  1.00  0.00     0.147 C
ENDBRANCH  29  30
ENDBRANCH  28  29
ENDBRANCH   1  28
TORSDOF 6
ENDMDL