MODEL 2
REMARK VINA RESULT: -9.646385645      2.081      2.468
REMARK  6 active torsions:
REMARK  status: ('A' for Active; 'I' for Inactive)
REMARK    1  A    between atoms: N1_11  and  S1_12
REMARK    2  A    between atoms: S1_12  and  C11_15
REMARK    3  A    between atoms: C11_15  and  C12_16
REMARK    4  A    between atoms: C16_20  and  O3_21
REMARK    5  A    between atoms: O3_21  and  C17_22
REMARK       I    between atoms: C17_22  and  N2_24
REMARK    6  A    between atoms: N2_24  and  C18_26
ROOT
HETATM    1  C12 UNL     1      34.844  35.147  18.843  1.00  0.00     0.043 C
HETATM    2  C13 UNL     1      36.223  35.340  19.433  1.00  0.00     0.017 C
HETATM    3  C14 UNL     1      36.932  36.197  18.395  1.00  0.00     0.014 C
HETATM    4  C15 UNL     1      35.862  36.603  17.446  1.00  0.00     0.088 C
HETATM    5  C16 UNL     1      35.509  35.413  16.551  1.00  0.00     0.144 C
HETATM    6  C21 UNL     1      34.981  34.405  17.537  1.00  0.00     0.050 C
HETATM    7  C22 UNL     1      34.618  36.559  18.359  1.00  0.00     0.258 C
HETATM    8  F1  UNL     1      33.503  36.760  17.634  1.00  0.00    -0.205 F
HETATM    9  F2  UNL     1      34.905  37.535  19.294  1.00  0.00    -0.205 F
ENDROOT
BRANCH   1  10
HETATM   10  C11 UNL     1      33.827  34.569  19.695  1.00  0.00     0.179 C
BRANCH  10  11
HETATM   11  S1  UNL     1      34.242  33.381  20.880  1.00  0.00     0.229 S
HETATM   12  O1  UNL     1      33.329  32.191  20.924  1.00  0.00    -0.206 OA
HETATM   13  O2  UNL     1      35.621  32.829  20.499  1.00  0.00    -0.206 OA
BRANCH  11  14
HETATM   14  N1  UNL     1      34.436  33.927  22.470  1.00  0.00    -0.306 N
HETATM   15  C5  UNL     1      33.416  33.586  23.401  1.00  0.00     0.097 C
HETATM   16  C4  UNL     1      32.131  34.361  23.275  1.00  0.00     0.035 C
HETATM   17  C6  UNL     1      34.017  33.999  24.770  1.00  0.00     0.036 C
HETATM   18  C2  UNL     1      32.041  35.174  24.581  1.00  0.00    -0.038 C
HETATM   19  C1  UNL     1      31.488  34.309  25.678  1.00  0.00     0.015 C
HETATM   20  C3  UNL     1      31.221  36.407  24.400  1.00  0.00     0.015 C
HETATM   21  C7  UNL     1      33.540  35.456  24.760  1.00  0.00    -0.034 C
HETATM   22  C8  UNL     1      33.839  36.172  26.036  1.00  0.00     0.016 C
HETATM   23  C9  UNL     1      34.066  36.136  23.534  1.00  0.00     0.030 C
HETATM   24  C10 UNL     1      34.908  35.265  22.638  1.00  0.00     0.136 C
ENDBRANCH  11  14
ENDBRANCH  10  11
ENDBRANCH   1  10
BRANCH   5  25
HETATM   25  O3  UNL     1      34.548  35.912  15.651  1.00  0.00    -0.298 OA
BRANCH  25  26
HETATM   26  C17 UNL     1      33.633  35.160  14.946  1.00  0.00     0.361 C
HETATM   27  O4  UNL     1      32.416  35.508  15.106  1.00  0.00    -0.238 OA
HETATM   28  N2  UNL     1      33.984  34.074  14.104  1.00  0.00    -0.332 N
ATOM     29  H2  UNL     1      34.970  33.837  14.001  1.00  0.00     0.165 HD
BRANCH  28  30
HETATM   30  C18 UNL     1      33.006  33.289  13.384  1.00  0.00     0.086 A
HETATM   31  C19 UNL     1      31.829  33.942  12.801  1.00  0.00     0.027 A
HETATM   32  C20 UNL     1      32.968  33.523  11.908  1.00  0.00     0.027 A
ENDBRANCH  28  30
ENDBRANCH  25  26
ENDBRANCH   5  25
TORSDOF 6
ENDMDL