MODEL 1
REMARK VINA RESULT: -9.340259850      0.000      0.000
REMARK  6 active torsions:
REMARK  status: ('A' for Active; 'I' for Inactive)
REMARK    1  A    between atoms: C2_2  and  C3_4
REMARK    2  A    between atoms: C3_4  and  N1_5
REMARK    3  A    between atoms: C3_4  and  C25_30
REMARK       I    between atoms: N1_5  and  C4_7
REMARK    4  A    between atoms: C4_7  and  C5_9
REMARK    5  A    between atoms: C5_9  and  C7_11
REMARK    6  A    between atoms: C25_30  and  C26_32
ROOT
HETATM    1  C7  UNL     1      35.510  38.452  22.247  1.00  0.00    -0.002 C
HETATM    2  C8  UNL     1      34.547  38.825  23.326  1.00  0.00     0.006 C
HETATM    3  C9  UNL     1      33.493  37.829  23.624  1.00  0.00     0.010 C
HETATM    4  C10 UNL     1      33.990  36.405  23.768  1.00  0.00    -0.036 C
HETATM    5  C11 UNL     1      34.958  36.361  24.902  1.00  0.00     0.016 C
HETATM    6  C12 UNL     1      34.660  36.082  22.432  1.00  0.00    -0.006 C
HETATM    7  C13 UNL     1      35.245  34.667  22.450  1.00  0.00     0.006 C
HETATM    8  C14 UNL     1      34.354  33.696  23.163  1.00  0.00     0.006 C
HETATM    9  C15 UNL     1      32.948  34.207  23.125  1.00  0.00    -0.001 C
HETATM   10  C16 UNL     1      32.820  35.516  23.883  1.00  0.00    -0.001 C
HETATM   11  C17 UNL     1      32.436  35.030  25.239  1.00  0.00     0.018 C
HETATM   12  C18 UNL     1      31.279  34.092  24.852  1.00  0.00     0.064 C
HETATM   13  C19 UNL     1      30.936  33.141  25.904  1.00  0.00     0.131 C
HETATM   14  O3  UNL     1      30.248  33.377  26.877  1.00  0.00    -0.298 OA
HETATM   15  C20 UNL     1      31.559  31.849  25.599  1.00  0.00     0.079 C
HETATM   16  C21 UNL     1      32.429  32.077  24.364  1.00  0.00     0.017 C
HETATM   17  C22 UNL     1      31.925  33.322  23.720  1.00  0.00    -0.029 C
HETATM   18  C23 UNL     1      30.871  32.919  22.679  1.00  0.00     0.016 C
HETATM   19  C24 UNL     1      35.763  37.006  22.089  1.00  0.00     0.011 C
ENDROOT
BRANCH   1  20
HETATM   20  C5  UNL     1      35.170  39.173  20.959  1.00  0.00     0.078 C
HETATM   21  C6  UNL     1      33.863  39.874  20.980  1.00  0.00     0.020 C
BRANCH  20  22
HETATM   22  C4  UNL     1      35.203  38.271  19.788  1.00  0.00     0.222 C
HETATM   23  N1  UNL     1      36.370  37.580  19.389  1.00  0.00    -0.342 N
ATOM     24  H1  UNL     1      37.236  37.691  19.916  1.00  0.00     0.163 HD
HETATM   25  O2  UNL     1      34.133  38.134  19.139  1.00  0.00    -0.273 OA
BRANCH  23  26
HETATM   26  C3  UNL     1      36.331  36.694  18.205  1.00  0.00     0.233 C
BRANCH  26  27
HETATM   27  C2  UNL     1      37.635  36.743  17.549  1.00  0.00     0.153 C
HETATM   28  C1  UNL     1      37.891  36.250  16.174  1.00  0.00     0.093 C
HETATM   29  O1  UNL     1      38.577  37.233  18.182  1.00  0.00    -0.296 OA
ENDBRANCH  26  27
BRANCH  26  30
HETATM   30  C25 UNL     1      35.855  35.400  18.692  1.00  0.00     0.262 C
HETATM   31  O4  UNL     1      36.613  34.787  19.470  1.00  0.00    -0.285 OA
BRANCH  30  32
HETATM   32  C26 UNL     1      34.596  34.703  18.401  1.00  0.00     0.453 C
HETATM   33  F1  UNL     1      33.850  34.485  19.532  1.00  0.00    -0.163 F
HETATM   34  F2  UNL     1      34.818  33.466  17.804  1.00  0.00    -0.163 F
HETATM   35  F3  UNL     1      33.764  35.475  17.568  1.00  0.00    -0.163 F
ENDBRANCH  30  32
ENDBRANCH  26  30
ENDBRANCH  23  26
ENDBRANCH  20  22
ENDBRANCH   1  20
TORSDOF 6
ENDMDL