MODEL 5
REMARK VINA RESULT: -7.536442196      4.796      8.644
REMARK  6 active torsions:
REMARK  status: ('A' for Active; 'I' for Inactive)
REMARK    1  A    between atoms: C2_2  and  C5_5
REMARK    2  A    between atoms: C5_5  and  C6_6
REMARK    3  A    between atoms: C6_6  and  C7_7
REMARK    4  A    between atoms: C7_7  and  N1_8
REMARK    5  A    between atoms: C14_16  and  N2_17
REMARK    6  A    between atoms: N2_17  and  C15_19
ROOT
HETATM    1  C15 UNL     1      33.986  33.874  21.341  1.00  0.00     0.069 A
HETATM    2  C16 UNL     1      33.129  32.910  21.812  1.00  0.00     0.054 A
HETATM    3 BR1  UNL     1      31.928  33.180  23.274  1.00  0.00    -0.047 Br
HETATM    4  C17 UNL     1      33.084  31.641  21.231  1.00  0.00     0.109 A
HETATM    5  N3  UNL     1      33.866  31.308  20.196  1.00  0.00    -0.372 N
ATOM      6  H3  UNL     1      33.821  30.378  19.781  1.00  0.00     0.164 HD
HETATM    7  C18 UNL     1      34.714  32.243  19.719  1.00  0.00     0.112 A
HETATM    8  C19 UNL     1      34.807  33.500  20.242  1.00  0.00     0.087 A
HETATM    9  C20 UNL     1      35.736  34.435  19.685  1.00  0.00     0.103 C
HETATM   10  N4  UNL     1      36.496  35.198  19.241  1.00  0.00    -0.191 NA
ENDROOT
BRANCH   1  11
HETATM   11  N2  UNL     1      34.120  35.017  21.774  1.00  0.00    -0.377 N
ATOM     12  H2  UNL     1      33.551  35.648  21.210  1.00  0.00     0.160 HD
BRANCH  11  13
HETATM   13  C14 UNL     1      34.767  35.757  22.751  1.00  0.00     0.155 C
HETATM   14  C13 UNL     1      35.091  35.023  24.043  1.00  0.00     0.032 C
HETATM   15  C12 UNL     1      35.610  36.162  24.880  1.00  0.00     0.018 C
HETATM   16  C5  UNL     1      34.556  37.242  24.683  1.00  0.00     0.036 C
HETATM   17  C21 UNL     1      33.903  36.871  23.345  1.00  0.00     0.271 C
HETATM   18  F1  UNL     1      32.603  36.406  23.553  1.00  0.00    -0.203 F
HETATM   19  F2  UNL     1      33.795  37.876  22.455  1.00  0.00    -0.203 F
BRANCH  16  20
HETATM   20  C2  UNL     1      35.137  38.603  24.652  1.00  0.00    -0.038 C
HETATM   21  C1  UNL     1      36.334  38.761  23.730  1.00  0.00     0.015 C
HETATM   22  C3  UNL     1      34.141  39.650  24.264  1.00  0.00     0.015 C
HETATM   23  C4  UNL     1      35.690  39.020  26.020  1.00  0.00     0.015 C
ENDBRANCH  16  20
BRANCH  16  24
HETATM   24  C6  UNL     1      33.521  37.066  25.741  1.00  0.00     0.046 C
BRANCH  24  25
HETATM   25  C7  UNL     1      33.818  36.397  27.006  1.00  0.00     0.273 C
BRANCH  25  26
HETATM   26  N1  UNL     1      32.483  35.928  27.528  1.00  0.00     0.092 N
HETATM   27  C8  UNL     1      32.717  35.281  28.809  1.00  0.00     0.298 C
HETATM   28  C9  UNL     1      31.444  34.666  29.287  1.00  0.00     0.198 C
HETATM   29  O1  UNL     1      30.865  33.844  28.311  1.00  0.00    -0.388 OA
HETATM   30  C10 UNL     1      31.727  33.656  27.253  1.00  0.00     0.198 C
HETATM   31  C11 UNL     1      31.935  34.983  26.562  1.00  0.00     0.298 C
ENDBRANCH  25  26
ENDBRANCH  24  25
ENDBRANCH  16  24
ENDBRANCH  11  13
ENDBRANCH   1  11
TORSDOF 6
ENDMDL