MODEL 3
REMARK VINA RESULT: -8.275111064      1.029      1.335
REMARK  6 active torsions:
REMARK  status: ('A' for Active; 'I' for Inactive)
REMARK    1  A    between atoms: C4_4  and  O1_5
REMARK    2  A    between atoms: N1_19  and  C17_20
REMARK    3  A    between atoms: C19_23  and  C20_24
REMARK    4  A    between atoms: C21_25  and  S1_26
REMARK    5  A    between atoms: S1_26  and  C22_29
REMARK    6  A    between atoms: C22_29  and  C23_30
ROOT
HETATM    1  C1  UNL     1      34.628  31.993  20.620  1.00  0.00     0.011 C
HETATM    2  C2  UNL     1      33.780  33.200  20.526  1.00  0.00    -0.008 C
HETATM    3  C3  UNL     1      33.112  33.662  21.766  1.00  0.00     0.043 C
HETATM    4  C4  UNL     1      34.171  34.005  22.784  1.00  0.00     0.066 C
HETATM    5  C5  UNL     1      35.151  35.003  22.324  1.00  0.00     0.021 C
HETATM    6  C6  UNL     1      34.900  36.404  22.848  1.00  0.00     0.008 C
HETATM    7  C7  UNL     1      33.514  36.727  23.212  1.00  0.00     0.006 C
HETATM    8  C8  UNL     1      32.736  35.647  23.897  1.00  0.00    -0.001 C
HETATM    9  C9  UNL     1      33.477  34.367  24.060  1.00  0.00     0.025 C
HETATM   10  C10 UNL     1      34.364  34.289  25.252  1.00  0.00     0.010 C
HETATM   11  C11 UNL     1      34.287  35.407  26.213  1.00  0.00     0.031 C
HETATM   12  C12 UNL     1      32.971  36.069  26.373  1.00  0.00     0.035 C
HETATM   13  C13 UNL     1      32.249  35.449  27.578  1.00  0.00     0.039 C
HETATM   14  C14 UNL     1      32.086  36.061  25.187  1.00  0.00     0.019 C
HETATM   15  C15 UNL     1      31.393  37.387  25.099  1.00  0.00     0.027 C
HETATM   16  C16 UNL     1      31.893  38.124  26.306  1.00  0.00     0.126 C
HETATM   17  N1  UNL     1      33.127  37.476  26.681  1.00  0.00    -0.350 N
HETATM   18  C18 UNL     1      35.489  35.000  20.856  1.00  0.00     0.016 C
HETATM   19  C19 UNL     1      34.516  34.426  19.926  1.00  0.00     0.013 C
ENDROOT
BRANCH  19  20
HETATM   20  C20 UNL     1      34.894  34.019  18.588  1.00  0.00    -0.010 C
HETATM   21  C21 UNL     1      35.024  34.805  17.384  1.00  0.00     0.105 C
BRANCH  21  22
HETATM   22  S1  UNL     1      36.210  36.071  17.217  1.00  0.00     0.173 S
HETATM   23  O3  UNL     1      35.666  37.473  17.327  1.00  0.00    -0.223 OA
HETATM   24  O4  UNL     1      37.367  35.901  18.198  1.00  0.00    -0.223 OA
BRANCH  22  25
HETATM   25  C22 UNL     1      36.988  36.042  15.598  1.00  0.00     0.262 C
BRANCH  25  26
HETATM   26  C23 UNL     1      37.720  37.271  15.239  1.00  0.00     0.400 C
HETATM   27  F1  UNL     1      38.503  36.983  14.102  1.00  0.00    -0.170 F
HETATM   28  F2  UNL     1      36.803  38.214  14.747  1.00  0.00    -0.170 F
HETATM   29  F3  UNL     1      38.530  37.777  16.198  1.00  0.00    -0.170 F
ENDBRANCH  25  26
ENDBRANCH  22  25
ENDBRANCH  21  22
ENDBRANCH  19  20
BRANCH   4  30
HETATM   30  O1  UNL     1      34.845  32.791  23.066  1.00  0.00    -0.389 OA
ATOM     31  H1  UNL     1      34.178  32.115  23.050  1.00  0.00     0.210 HD
ENDBRANCH   4  30
BRANCH  17  32
HETATM   32  C17 UNL     1      34.265  38.121  27.245  1.00  0.00     0.351 C
HETATM   33  O2  UNL     1      34.940  38.956  26.592  1.00  0.00    -0.284 OA
ENDBRANCH  17  32
TORSDOF 6
ENDMDL