MODEL 2
REMARK VINA RESULT: -5.538071335      4.195      5.810
REMARK  7 active torsions:
REMARK  status: ('A' for Active; 'I' for Inactive)
REMARK    1  A    between atoms: C2_2  and  O1_3
REMARK    2  A    between atoms: C2_2  and  C3_5
REMARK    3  A    between atoms: C2_2  and  C9_13
REMARK    4  A    between atoms: C4_6  and  C5_7
REMARK    5  A    between atoms: C6_8  and  C7_9
REMARK    6  A    between atoms: C9_13  and  C10_14
REMARK    7  A    between atoms: C10_14  and  S1_15
ROOT
HETATM    1  S1  UNL     1     -34.790 -16.147  -9.236  1.00  0.00    -0.051 SA
HETATM    2  C11 UNL     1     -33.871 -14.653  -9.190  1.00  0.00     0.133 C
HETATM    3  N1  UNL     1     -33.278 -13.662  -9.147  1.00  0.00    -0.184 NA
ENDROOT
BRANCH   1   4
HETATM    4  C10 UNL     1     -35.814 -16.241 -10.743  1.00  0.00     0.094 C
BRANCH   4   5
HETATM    5  C9  UNL     1     -36.742 -17.424 -10.630  1.00  0.00     0.062 C
BRANCH   5   6
HETATM    6  C2  UNL     1     -36.589 -18.399 -11.754  1.00  0.00     0.118 C
HETATM    7  C1  UNL     1     -35.550 -17.799 -12.715  1.00  0.00     0.060 C
BRANCH   6   8
HETATM    8  O1  UNL     1     -36.066 -19.589 -11.308  1.00  0.00    -0.378 OA
ATOM      9  H1  UNL     1     -36.756 -20.235 -11.395  1.00  0.00     0.211 HD
ENDBRANCH   6   8
BRANCH   6  10
HETATM   10  C3  UNL     1     -37.844 -18.655 -12.456  1.00  0.00    -0.064 C
HETATM   11  C4  UNL     1     -38.884 -18.850 -13.052  1.00  0.00    -0.075 C
BRANCH  11  12
HETATM   12  C5  UNL     1     -40.126 -19.058 -13.773  1.00  0.00     0.065 C
HETATM   13  C6  UNL     1     -40.422 -18.299 -14.791  1.00  0.00     0.014 C
BRANCH  13  14
HETATM   14  C7  UNL     1     -39.522 -17.251 -15.207  1.00  0.00     0.075 C
HETATM   15  C8  UNL     1     -39.990 -16.072 -15.607  1.00  0.00     0.267 C
HETATM   16  F1  UNL     1     -41.310 -15.875 -15.618  1.00  0.00    -0.173 F
HETATM   17  F2  UNL     1     -39.171 -15.074 -16.001  1.00  0.00    -0.173 F
ENDBRANCH  13  14
ENDBRANCH  11  12
ENDBRANCH   6  10
ENDBRANCH   5   6
ENDBRANCH   4   5
ENDBRANCH   1   4
TORSDOF 7
ENDMDL