MODEL 1
REMARK VINA RESULT: -4.698296509      0.000      0.000
REMARK  3 active torsions:
REMARK  status: ('A' for Active; 'I' for Inactive)
REMARK    1  A    between atoms: N1_8  and  C6_9
REMARK    2  A    between atoms: C6_9  and  C7_10
REMARK    3  A    between atoms: C7_10  and  C8_11
ROOT
HETATM    1  C1  UNL     1     -36.706 -19.212 -11.891  1.00  0.00     0.065 C
HETATM    2  C2  UNL     1     -37.599 -18.467 -12.769  1.00  0.00     0.042 C
HETATM    3 CL1  UNL     1     -39.131 -19.338 -13.160  1.00  0.00    -0.086 Cl
HETATM    4  C3  UNL     1     -37.495 -17.288 -13.317  1.00  0.00     0.093 A
HETATM    5  S1  UNL     1     -38.815 -16.610 -14.404  1.00  0.00    -0.081 SA
HETATM    6  C4  UNL     1     -37.952 -15.122 -14.799  1.00  0.00     0.069 A
HETATM    7  C5  UNL     1     -36.825 -15.152 -14.155  1.00  0.00     0.099 A
HETATM    8  N1  UNL     1     -36.532 -16.258 -13.354  1.00  0.00    -0.349 N
ENDROOT
BRANCH   8   9
HETATM    9  C6  UNL     1     -35.312 -16.291 -12.512  1.00  0.00     0.139 C
BRANCH   9  10
HETATM   10  C7  UNL     1     -35.561 -15.747 -11.138  1.00  0.00     0.133 C
BRANCH  10  11
HETATM   11  C8  UNL     1     -34.710 -14.524 -10.925  1.00  0.00     0.174 C
HETATM   12  O1  UNL     1     -35.077 -13.463 -11.489  1.00  0.00    -0.648 OA
HETATM   13  O2  UNL     1     -33.567 -14.518 -10.154  1.00  0.00    -0.648 OA
ENDBRANCH  10  11
ENDBRANCH   9  10
ENDBRANCH   8   9
TORSDOF 3
ENDMDL