MODEL 5
REMARK VINA RESULT: -4.109731596      1.866      2.846
REMARK  5 active torsions:
REMARK  status: ('A' for Active; 'I' for Inactive)
REMARK    1  A    between atoms: C2_4  and  S1_6
REMARK    2  A    between atoms: S1_6  and  C3_7
REMARK    3  A    between atoms: C3_7  and  C4_8
REMARK    4  A    between atoms: C4_8  and  S2_9
REMARK    5  A    between atoms: S2_9  and  C5_10
ROOT
HETATM    1  C3  UNL     1     -36.563 -14.250 -14.092  1.00  0.00     0.092 C
ENDROOT
BRANCH   1   2
HETATM    2  S1  UNL     1     -36.912 -13.769 -12.400  1.00  0.00    -0.097 SA
BRANCH   2   3
HETATM    3  C2  UNL     1     -35.409 -13.765 -11.447  1.00  0.00     0.149 C
HETATM    4  N1  UNL     1     -35.083 -12.708 -10.757  1.00  0.00    -0.377 N
HETATM    5  C1  UNL     1     -35.964 -11.564 -10.788  1.00  0.00     0.148 C
ATOM      6  H1  UNL     1     -34.224 -12.689 -10.207  1.00  0.00     0.160 HD
HETATM    7  N2  UNL     1     -34.586 -14.913 -11.456  1.00  0.00    -0.075 NA
ENDBRANCH   2   3
ENDBRANCH   1   2
BRANCH   1   8
HETATM    8  C4  UNL     1     -37.407 -15.441 -14.466  1.00  0.00     0.086 C
BRANCH   8   9
HETATM    9  S2  UNL     1     -38.093 -16.205 -13.021  1.00  0.00    -0.143 SA
BRANCH   9  10
HETATM   10  C5  UNL     1     -37.299 -17.641 -12.376  1.00  0.00     0.077 C
HETATM   11  C6  UNL     1     -35.970 -17.883 -13.047  1.00  0.00     0.044 C
HETATM   12  C7  UNL     1     -37.052 -17.595 -10.884  1.00  0.00     0.044 C
HETATM   13 CL1  UNL     1     -38.325 -19.070 -12.771  1.00  0.00    -0.108 Cl
ENDBRANCH   9  10
ENDBRANCH   8   9
ENDBRANCH   1   8
TORSDOF 5
ENDMDL