MODEL 4
REMARK VINA RESULT: -4.956654726      5.789      7.798
REMARK  5 active torsions:
REMARK  status: ('A' for Active; 'I' for Inactive)
REMARK    1  A    between atoms: C2_2  and  C5_5
REMARK    2  A    between atoms: C6_8  and  C7_9
REMARK    3  A    between atoms: C7_9  and  O1_10
REMARK    4  A    between atoms: C7_9  and  C8_12
REMARK    5  A    between atoms: C8_12  and  C9_13
ROOT
HETATM    1  C5  UNL     1     -38.056 -17.971 -13.079  1.00  0.00     0.058 A
HETATM    2  N1  UNL     1     -38.576 -17.195 -14.003  1.00  0.00    -0.354 N
ATOM      3  H1  UNL     1     -38.174 -16.274 -14.179  1.00  0.00     0.166 HD
HETATM    4  C6  UNL     1     -39.601 -17.599 -14.695  1.00  0.00     0.045 A
HETATM    5  C10 UNL     1     -40.096 -18.850 -14.410  1.00  0.00     0.079 A
HETATM    6  S1  UNL     1     -39.048 -19.359 -13.165  1.00  0.00    -0.086 SA
ENDROOT
BRANCH   4   7
HETATM    7  C7  UNL     1     -40.240 -16.717 -15.759  1.00  0.00     0.169 C
BRANCH   7   8
HETATM    8  O1  UNL     1     -40.074 -17.448 -16.960  1.00  0.00    -0.389 OA
ATOM      9  H1  UNL     1     -40.552 -18.255 -16.808  1.00  0.00     0.210 HD
ENDBRANCH   7   8
BRANCH   7  10
HETATM   10  C8  UNL     1     -39.487 -15.433 -15.847  1.00  0.00     0.053 C
BRANCH  10  11
HETATM   11  C9  UNL     1     -40.411 -14.246 -15.541  1.00  0.00     0.117 C
HETATM   12 CL1  UNL     1     -42.064 -14.749 -15.954  1.00  0.00    -0.130 Cl
ENDBRANCH  10  11
ENDBRANCH   7  10
ENDBRANCH   4   7
BRANCH   1  13
HETATM   13  C2  UNL     1     -36.881 -17.658 -12.171  1.00  0.00    -0.002 C
HETATM   14  C1  UNL     1     -36.536 -18.941 -11.459  1.00  0.00     0.021 C
HETATM   15  C3  UNL     1     -37.315 -16.658 -11.126  1.00  0.00     0.021 C
HETATM   16  C4  UNL     1     -35.697 -17.160 -12.935  1.00  0.00     0.021 C
ENDBRANCH   1  13
TORSDOF 5
ENDMDL