MODEL 5
REMARK VINA RESULT: -4.570268122      3.005      4.287
REMARK  3 active torsions:
REMARK  status: ('A' for Active; 'I' for Inactive)
REMARK    1  A    between atoms: C8_10  and  S1_11
REMARK    2  A    between atoms: S1_11  and  C9_12
REMARK    3  A    between atoms: C9_12  and  C10_13
ROOT
HETATM    1  C1  UNL     1     -36.816 -12.887 -13.430  1.00  0.00     0.037 C
HETATM    2  C2  UNL     1     -37.052 -14.389 -13.540  1.00  0.00     0.069 C
HETATM    3  C3  UNL     1     -36.816 -14.790 -14.947  1.00  0.00     0.037 C
HETATM    4  N1  UNL     1     -38.467 -14.580 -13.262  1.00  0.00    -0.089 NA
HETATM    5  O1  UNL     1     -38.581 -15.015 -12.005  1.00  0.00    -0.279 OA
HETATM    6  C4  UNL     1     -37.500 -15.841 -11.770  1.00  0.00     0.168 C
HETATM    7  C5  UNL     1     -37.652 -17.145 -12.524  1.00  0.00     0.036 C
HETATM    8  C6  UNL     1     -36.200 -17.542 -12.712  1.00  0.00     0.004 C
HETATM    9  C7  UNL     1     -35.451 -16.229 -12.861  1.00  0.00     0.025 C
HETATM   10  C8  UNL     1     -36.362 -15.131 -12.474  1.00  0.00     0.059 C
ENDROOT
BRANCH  10  11
HETATM   11  S1  UNL     1     -35.486 -13.982 -11.401  1.00  0.00    -0.153 SA
BRANCH  11  12
HETATM   12  C9  UNL     1     -34.025 -14.677 -10.625  1.00  0.00     0.089 C
BRANCH  12  13
HETATM   13  C10 UNL     1     -34.416 -15.027  -9.194  1.00  0.00     0.125 C
HETATM   14 CL1  UNL     1     -35.155 -16.639  -9.207  1.00  0.00    -0.130 Cl
ENDBRANCH  12  13
ENDBRANCH  11  12
ENDBRANCH  10  11
TORSDOF 3
ENDMDL