MODEL 5
REMARK VINA RESULT: -5.685005417      3.335      4.301
REMARK  4 active torsions:
REMARK  status: ('A' for Active; 'I' for Inactive)
REMARK    1  A    between atoms: S1_2  and  C2_3
REMARK    2  A    between atoms: C4_6  and  C5_7
REMARK    3  A    between atoms: N2_14  and  N3_16
REMARK    4  A    between atoms: N3_16  and  O1_18
ROOT
HETATM    1  C2  UNL     1     -34.448 -15.464  -9.076  1.00  0.00     0.085 A
HETATM    2  C3  UNL     1     -35.240 -16.156  -9.992  1.00  0.00     0.144 A
HETATM    3  F1  UNL     1     -35.649 -17.412  -9.681  1.00  0.00    -0.204 F
HETATM    4  C4  UNL     1     -35.595 -15.569 -11.185  1.00  0.00     0.001 A
HETATM    5  C8  UNL     1     -35.157 -14.286 -11.465  1.00  0.00     0.100 A
HETATM    6  N1  UNL     1     -34.399 -13.657 -10.558  1.00  0.00    -0.349 N
ATOM      7  H1  UNL     1     -34.085 -12.712 -10.779  1.00  0.00     0.166 HD
HETATM    8  C9  UNL     1     -34.022 -14.179  -9.378  1.00  0.00     0.141 A
HETATM    9  N2  UNL     1     -33.286 -13.520  -8.539  1.00  0.00    -0.265 N
ATOM     10  H2  UNL     1     -33.011 -13.938  -7.650  1.00  0.00     0.190 HD
ENDROOT
BRANCH   1  11
HETATM   11  S1  UNL     1     -33.986 -16.206  -7.512  1.00  0.00    -0.128 SA
HETATM   12  C1  UNL     1     -35.061 -15.569  -6.207  1.00  0.00     0.096 C
ENDBRANCH   1  11
BRANCH   9  13
HETATM   13  N3  UNL     1     -32.881 -12.242  -8.873  1.00  0.00    -0.208 N
ATOM     14  H3  UNL     1     -31.898 -12.096  -9.104  1.00  0.00     0.215 HD
BRANCH  13  15
HETATM   15  O1  UNL     1     -33.640 -11.263  -8.907  1.00  0.00    -0.274 OA
ATOM     16  H1  UNL     1     -33.495 -10.462  -8.416  1.00  0.00     0.246 HD
ENDBRANCH  13  15
ENDBRANCH   9  13
BRANCH   4  17
HETATM   17  C5  UNL     1     -36.410 -16.295 -12.174  1.00  0.00     0.015 C
HETATM   18  C6  UNL     1     -36.894 -15.346 -13.282  1.00  0.00     0.015 C
HETATM   19  C7  UNL     1     -35.602 -17.366 -12.886  1.00  0.00     0.015 C
ENDBRANCH   4  17
TORSDOF 4
ENDMDL