MODEL 3
REMARK VINA RESULT: -5.235556122      1.849      2.616
REMARK  3 active torsions:
REMARK  status: ('A' for Active; 'I' for Inactive)
REMARK    1  A    between atoms: C2_2  and  C3_3
REMARK    2  A    between atoms: C3_3  and  C5_5
REMARK    3  A    between atoms: N1_6  and  N2_8
ROOT
HETATM    1  N2  UNL     1     -35.424 -15.145 -10.854  1.00  0.00    -0.232 N
HETATM    2  C6  UNL     1     -34.782 -15.243  -9.678  1.00  0.00     0.071 A
HETATM    3  C7  UNL     1     -34.812 -16.453  -8.803  1.00  0.00     0.074 C
HETATM    4  C8  UNL     1     -34.101 -14.081  -9.404  1.00  0.00     0.130 A
HETATM    5 CL1  UNL     1     -33.117 -13.748  -7.973  1.00  0.00    -0.062 Cl
HETATM    6  N3  UNL     1     -34.338 -13.260 -10.441  1.00  0.00    -0.320 N
ATOM      7  H3  UNL     1     -33.976 -12.312 -10.546  1.00  0.00     0.169 HD
HETATM    8  C9  UNL     1     -35.136 -13.898 -11.316  1.00  0.00     0.198 A
HETATM    9  S1  UNL     1     -35.661 -13.250 -12.714  1.00  0.00    -0.039 SA
ENDROOT
BRANCH   1  10
HETATM   10  N1  UNL     1     -36.215 -16.127 -11.455  1.00  0.00    -0.306 N
HETATM   11  C5  UNL     1     -35.701 -16.929 -12.297  1.00  0.00     0.085 C
ATOM     12  H1  UNL     1     -37.204 -16.200 -11.219  1.00  0.00     0.186 HD
BRANCH  11  13
HETATM   13  C3  UNL     1     -36.464 -18.007 -12.988  1.00  0.00     0.021 C
HETATM   14  C4  UNL     1     -36.700 -19.193 -12.117  1.00  0.00     0.015 C
BRANCH  13  15
HETATM   15  C2  UNL     1     -37.729 -17.449 -13.595  1.00  0.00     0.005 C
HETATM   16  C1  UNL     1     -38.865 -18.412 -13.586  1.00  0.00     0.006 C
ENDBRANCH  13  15
ENDBRANCH  11  13
ENDBRANCH   1  10
TORSDOF 3
ENDMDL