MODEL 5
REMARK VINA RESULT: -4.747712526      3.316      4.011
REMARK  3 active torsions:
REMARK  status: ('A' for Active; 'I' for Inactive)
REMARK    1  A    between atoms: S1_2  and  C2_3
REMARK    2  A    between atoms: C3_5  and  C4_6
REMARK    3  A    between atoms: C8_11  and  C9_12
ROOT
HETATM    1  C2  UNL     1     -37.426 -15.418 -14.117  1.00  0.00     0.059 A
HETATM    2  S2  UNL     1     -38.616 -16.577 -14.510  1.00  0.00    -0.083 SA
HETATM    3  C3  UNL     1     -38.278 -17.737 -13.307  1.00  0.00     0.024 A
HETATM    4  C6  UNL     1     -37.234 -17.176 -12.623  1.00  0.00    -0.027 A
HETATM    5  C7  UNL     1     -36.642 -17.915 -11.437  1.00  0.00     0.050 C
HETATM    6  C8  UNL     1     -36.792 -15.977 -13.042  1.00  0.00     0.071 A
ENDROOT
BRANCH   3   7
HETATM    7  C4  UNL     1     -38.955 -19.052 -13.084  1.00  0.00     0.206 C
HETATM    8  C5  UNL     1     -40.300 -18.967 -13.812  1.00  0.00     0.051 C
HETATM    9  F1  UNL     1     -38.198 -19.998 -13.771  1.00  0.00    -0.244 F
ENDBRANCH   3   7
BRANCH   1  10
HETATM   10  S1  UNL     1     -37.069 -13.836 -14.922  1.00  0.00    -0.126 SA
HETATM   11  C1  UNL     1     -36.809 -14.239 -16.686  1.00  0.00     0.096 C
ENDBRANCH   1  10
BRANCH   6  12
HETATM   12  C9  UNL     1     -35.663 -15.225 -12.409  1.00  0.00     0.211 C
HETATM   13  O1  UNL     1     -34.468 -15.466 -12.698  1.00  0.00    -0.644 OA
HETATM   14  O2  UNL     1     -36.007 -14.254 -11.491  1.00  0.00    -0.644 OA
ENDBRANCH   6  12
TORSDOF 3
ENDMDL