MODEL 5
REMARK VINA RESULT: -5.363417057      3.820      6.409
REMARK  4 active torsions:
REMARK  status: ('A' for Active; 'I' for Inactive)
REMARK    1  A    between atoms: C2_2  and  C3_4
REMARK       I    between atoms: C3_4  and  N1_6
REMARK    2  A    between atoms: N1_6  and  C4_8
REMARK    3  A    between atoms: C4_8  and  C5_9
REMARK    4  A    between atoms: C7_12  and  C8_13
ROOT
HETATM    1  C5  UNL     1     -34.800 -14.450 -10.670  1.00  0.00     0.034 A
HETATM    2  C6  UNL     1     -35.390 -13.500 -11.466  1.00  0.00     0.078 A
HETATM    3  S1  UNL     1     -36.500 -14.457 -12.368  1.00  0.00    -0.086 SA
HETATM    4  C7  UNL     1     -36.143 -15.970 -11.684  1.00  0.00     0.054 A
HETATM    5  N2  UNL     1     -35.202 -15.676 -10.806  1.00  0.00    -0.355 N
ATOM      6  H2  UNL     1     -34.790 -16.413 -10.234  1.00  0.00     0.166 HD
ENDROOT
BRANCH   1   7
HETATM    7  C4  UNL     1     -33.719 -14.066  -9.675  1.00  0.00     0.180 C
BRANCH   7   8
HETATM    8  N1  UNL     1     -34.177 -14.392  -8.340  1.00  0.00    -0.353 N
HETATM    9  C3  UNL     1     -33.911 -15.630  -7.692  1.00  0.00     0.251 C
HETATM   10  O1  UNL     1     -33.252 -16.504  -8.268  1.00  0.00    -0.270 OA
ATOM     11  H1  UNL     1     -34.721 -13.693  -7.835  1.00  0.00     0.162 HD
BRANCH   9  12
HETATM   12  C2  UNL     1     -34.462 -15.808  -6.310  1.00  0.00     0.257 C
HETATM   13  C1  UNL     1     -35.227 -14.557  -5.957  1.00  0.00     0.055 C
HETATM   14  F1  UNL     1     -35.199 -16.949  -6.186  1.00  0.00    -0.240 F
ENDBRANCH   9  12
ENDBRANCH   7   8
ENDBRANCH   1   7
BRANCH   4  15
HETATM   15  C8  UNL     1     -36.762 -17.291 -12.022  1.00  0.00     0.035 C
HETATM   16  C9  UNL     1     -35.981 -17.917 -13.142  1.00  0.00     0.016 C
HETATM   17  C10 UNL     1     -36.671 -18.107 -10.732  1.00  0.00     0.016 C
ENDBRANCH   4  15
TORSDOF 4
ENDMDL