MODEL 5
REMARK VINA RESULT: -10.431671862      3.651      7.257
REMARK  9 active torsions:
REMARK  status: ('A' for Active; 'I' for Inactive)
REMARK    1  A    between atoms: O1_2  and  C2_3
REMARK    2  A    between atoms: C7_8  and  O2_9
REMARK    3  A    between atoms: O2_9  and  C8_10
REMARK    4  A    between atoms: C10_12  and  C11_13
REMARK    5  A    between atoms: C12_14  and  C13_15
REMARK    6  A    between atoms: C13_15  and  O4_17
REMARK    7  A    between atoms: O4_17  and  C14_18
REMARK    8  A    between atoms: C21_30  and  O5_31
REMARK    9  A    between atoms: C23_33  and  O6_34
ROOT
HETATM    1  C8  UNL     1      18.266  -0.840  33.997  1.00  0.00     0.113 A
HETATM    2  C9  UNL     1      19.648  -0.689  34.260  1.00  0.00     0.051 A
HETATM    3  C10 UNL     1      20.203   0.394  34.885  1.00  0.00    -0.030 A
HETATM    4  C20 UNL     1      19.349   1.392  35.275  1.00  0.00     0.051 A
HETATM    5  C21 UNL     1      18.004   1.285  35.038  1.00  0.00     0.105 A
HETATM    6  C23 UNL     1      17.432   0.170  34.396  1.00  0.00     0.135 A
ENDROOT
BRANCH   3   7
HETATM    7  C11 UNL     1      21.654   0.443  35.108  1.00  0.00     0.017 C
HETATM    8  C12 UNL     1      22.496  -0.329  34.497  1.00  0.00     0.083 C
BRANCH   8   9
HETATM    9  C13 UNL     1      23.928  -0.192  34.799  1.00  0.00     0.288 C
HETATM   10  O3  UNL     1      24.267   0.416  35.840  1.00  0.00    -0.260 OA
BRANCH   9  11
HETATM   11  O4  UNL     1      24.879  -0.726  33.949  1.00  0.00    -0.269 OA
BRANCH  11  12
HETATM   12  C14 UNL     1      24.890  -0.379  32.613  1.00  0.00     0.163 A
HETATM   13  C15 UNL     1      24.217  -1.067  31.624  1.00  0.00     0.195 A
HETATM   14  F1  UNL     1      23.485  -2.168  31.984  1.00  0.00    -0.200 F
HETATM   15  C16 UNL     1      24.268  -0.667  30.296  1.00  0.00     0.199 A
HETATM   16  F2  UNL     1      23.610  -1.338  29.323  1.00  0.00    -0.199 F
HETATM   17  C17 UNL     1      25.005   0.441  29.936  1.00  0.00     0.199 A
HETATM   18  F3  UNL     1      25.079   0.865  28.645  1.00  0.00    -0.199 F
HETATM   19  C18 UNL     1      25.694   1.153  30.915  1.00  0.00     0.199 A
HETATM   20  F4  UNL     1      26.429   2.253  30.584  1.00  0.00    -0.199 F
HETATM   21  C19 UNL     1      25.622   0.726  32.239  1.00  0.00     0.195 A
HETATM   22  F5  UNL     1      26.313   1.458  33.149  1.00  0.00    -0.200 F
ENDBRANCH  11  12
ENDBRANCH   9  11
ENDBRANCH   8   9
ENDBRANCH   3   7
BRANCH   1  23
HETATM   23  O2  UNL     1      17.889  -1.992  33.371  1.00  0.00    -0.305 OA
BRANCH  23  24
HETATM   24  C7  UNL     1      18.339  -3.248  33.540  1.00  0.00     0.109 A
HETATM   25  C2  UNL     1      19.197  -3.755  32.540  1.00  0.00     0.102 A
HETATM   26  C3  UNL     1      19.721  -5.025  32.603  1.00  0.00     0.039 A
HETATM   27  C4  UNL     1      19.440  -5.878  33.647  1.00  0.00     0.003 A
HETATM   28  C5  UNL     1      18.600  -5.382  34.624  1.00  0.00     0.003 A
HETATM   29  C6  UNL     1      18.070  -4.117  34.575  1.00  0.00     0.040 A
BRANCH  25  30
HETATM   30  O1  UNL     1      19.497  -2.914  31.478  1.00  0.00    -0.353 OA
HETATM   31  C1  UNL     1      19.925  -3.484  30.258  1.00  0.00     0.210 C
ENDBRANCH  25  30
ENDBRANCH  23  24
ENDBRANCH   1  23
BRANCH   5  32
HETATM   32  O5  UNL     1      17.162   2.297  35.436  1.00  0.00    -0.353 OA
HETATM   33  C22 UNL     1      17.364   2.917  36.684  1.00  0.00     0.210 C
ENDBRANCH   5  32
BRANCH   6  34
HETATM   34  O6  UNL     1      16.096   0.146  34.210  1.00  0.00    -0.351 OA
HETATM   35  C24 UNL     1      15.268   0.353  33.141  1.00  0.00     0.210 C
ENDBRANCH   6  34
TORSDOF 9
ENDMDL