MODEL 1
REMARK VINA RESULT: -10.214428165      0.000      0.000
REMARK  8 active torsions:
REMARK  status: ('A' for Active; 'I' for Inactive)
REMARK    1  A    between atoms: C2_2  and  C3_4
REMARK    2  A    between atoms: C3_4  and  O2_5
REMARK    3  A    between atoms: O2_5  and  N1_6
REMARK    4  A    between atoms: C4_8  and  C6_10
REMARK    5  A    between atoms: C10_14  and  C11_15
REMARK    6  A    between atoms: C14_21  and  C15_22
REMARK    7  A    between atoms: C15_22  and  N3_23
REMARK       I    between atoms: N3_23  and  C17_25
REMARK    8  A    between atoms: C17_25  and  C18_27
ROOT
HETATM    1  C11 UNL     1      19.567  -0.114  31.063  1.00  0.00     0.048 A
HETATM    2  N2  UNL     1      18.557   0.634  30.615  1.00  0.00    -0.264 N
ATOM      3  H2  UNL     1      17.658   0.737  31.086  1.00  0.00     0.194 HD
HETATM    4  O3  UNL     1      18.867   1.203  29.516  1.00  0.00    -0.242 OA
HETATM    5  C12 UNL     1      20.105   0.885  29.138  1.00  0.00     0.082 A
HETATM    6  C13 UNL     1      20.741   1.396  27.902  1.00  0.00     0.079 C
HETATM    7  C14 UNL     1      20.597   0.046  30.091  1.00  0.00     0.016 A
ENDROOT
BRANCH   7   8
HETATM    8  C15 UNL     1      21.881  -0.621  30.244  1.00  0.00     0.168 C
BRANCH   8   9
HETATM    9  N3  UNL     1      22.118  -1.821  29.529  1.00  0.00    -0.348 N
HETATM   10  C16 UNL     1      22.332  -1.744  28.072  1.00  0.00     0.153 C
HETATM   11  C17 UNL     1      22.117  -3.116  30.101  1.00  0.00     0.257 C
HETATM   12  O4  UNL     1      21.892  -3.229  31.326  1.00  0.00    -0.267 OA
BRANCH  11  13
HETATM   13  C18 UNL     1      22.366  -4.315  29.328  1.00  0.00     0.076 A
HETATM   14  C19 UNL     1      23.611  -4.739  28.946  1.00  0.00     0.066 A
HETATM   15  C20 UNL     1      23.771  -5.895  28.209  1.00  0.00     0.159 A
HETATM   16  F1  UNL     1      24.995  -6.346  27.811  1.00  0.00    -0.203 F
HETATM   17  C21 UNL     1      22.688  -6.667  27.829  1.00  0.00     0.196 A
HETATM   18  F2  UNL     1      22.806  -7.803  27.110  1.00  0.00    -0.199 F
HETATM   19  C22 UNL     1      21.433  -6.254  28.206  1.00  0.00     0.197 A
HETATM   20  F3  UNL     1      20.341  -6.980  27.857  1.00  0.00    -0.199 F
HETATM   21  C23 UNL     1      21.284  -5.098  28.942  1.00  0.00     0.173 A
HETATM   22  F4  UNL     1      20.030  -4.718  29.299  1.00  0.00    -0.202 F
ENDBRANCH  11  13
ENDBRANCH   8   9
ENDBRANCH   7   8
BRANCH   1  23
HETATM   23  C10 UNL     1      19.675  -0.941  32.271  1.00  0.00     0.048 C
HETATM   24  C6  UNL     1      19.045  -0.163  33.426  1.00  0.00     0.043 C
HETATM   25  C7  UNL     1      17.972  -1.024  34.003  1.00  0.00     0.011 C
HETATM   26  C8  UNL     1      18.155  -2.410  33.484  1.00  0.00     0.002 C
HETATM   27  C9  UNL     1      18.938  -2.233  32.224  1.00  0.00     0.011 C
BRANCH  24  28
HETATM   28  C4  UNL     1      20.059   0.202  34.451  1.00  0.00     0.011 C
HETATM   29  N1  UNL     1      19.921   1.198  35.259  1.00  0.00    -0.275 N
ATOM     30  H1  UNL     1      20.639   1.417  35.951  1.00  0.00     0.193 HD
HETATM   31  C5  UNL     1      21.297  -0.612  34.560  1.00  0.00     0.066 C
BRANCH  29  32
HETATM   32  O2  UNL     1      18.770   1.960  35.161  1.00  0.00    -0.273 OA
BRANCH  32  33
HETATM   33  C3  UNL     1      18.169   2.523  36.331  1.00  0.00     0.278 C
BRANCH  33  34
HETATM   34  C2  UNL     1      16.704   2.349  36.237  1.00  0.00     0.148 C
HETATM   35  C1  UNL     1      16.013   1.755  35.075  1.00  0.00     0.093 C
HETATM   36  O1  UNL     1      16.035   2.727  37.190  1.00  0.00    -0.296 OA
ENDBRANCH  33  34
ENDBRANCH  32  33
ENDBRANCH  29  32
ENDBRANCH  24  28
ENDBRANCH   1  23
TORSDOF 8
ENDMDL