MODEL 2
REMARK VINA RESULT: -10.385433519      1.595      2.166
REMARK  8 active torsions:
REMARK  status: ('A' for Active; 'I' for Inactive)
REMARK    1  A    between atoms: O1_2  and  C2_3
REMARK    2  A    between atoms: C4_5  and  O2_6
REMARK    3  A    between atoms: O2_6  and  C5_7
REMARK    4  A    between atoms: C5_7  and  C6_8
REMARK    5  A    between atoms: C6_8  and  N1_9
REMARK    6  A    between atoms: C15_25  and  C16_26
REMARK    7  A    between atoms: C17_27  and  C18_28
REMARK    8  A    between atoms: C19_30  and  C20_31
ROOT
HETATM    1  C2  UNL     1      20.259  -6.040  32.888  1.00  0.00     0.082 A
HETATM    2  C3  UNL     1      19.770  -4.733  32.976  1.00  0.00     0.074 A
HETATM    3  C4  UNL     1      18.671  -4.452  33.745  1.00  0.00     0.073 A
HETATM    4  C13 UNL     1      18.095  -5.505  34.407  1.00  0.00     0.061 A
HETATM    5  C14 UNL     1      18.561  -6.789  34.332  1.00  0.00     0.049 A
HETATM    6 CL2  UNL     1      17.748  -8.075  35.223  1.00  0.00    -0.083 Cl
HETATM    7  C15 UNL     1      19.683  -7.089  33.551  1.00  0.00     0.019 A
ENDROOT
BRANCH   3   8
HETATM    8  O2  UNL     1      18.185  -3.190  33.838  1.00  0.00    -0.349 OA
BRANCH   8   9
HETATM    9  C5  UNL     1      18.169  -2.227  32.827  1.00  0.00     0.197 C
BRANCH   9  10
HETATM   10  C6  UNL     1      18.840  -0.972  33.398  1.00  0.00     0.177 C
BRANCH  10  11
HETATM   11  N1  UNL     1      17.775  -0.171  33.972  1.00  0.00    -0.274 N
HETATM   12  N2  UNL     1      16.501  -0.321  33.701  1.00  0.00    -0.240 N
HETATM   13  N3  UNL     1      15.774   0.556  34.377  1.00  0.00    -0.284 N
ATOM     14  H2  UNL     1      16.123  -1.016  33.057  1.00  0.00     0.208 HD
HETATM   15  C7  UNL     1      16.607   1.300  35.114  1.00  0.00     0.080 A
ATOM     16  H3  UNL     1      14.759   0.647  34.342  1.00  0.00     0.188 HD
HETATM   17  C8  UNL     1      16.494   2.344  36.004  1.00  0.00     0.077 A
HETATM   18  C12 UNL     1      17.879   0.828  34.847  1.00  0.00     0.082 A
HETATM   19  C9  UNL     1      17.581   2.902  36.607  1.00  0.00     0.140 A
HETATM   20  F1  UNL     1      17.442   3.934  37.484  1.00  0.00    -0.204 F
HETATM   21  C10 UNL     1      18.837   2.436  36.344  1.00  0.00     0.074 A
HETATM   22 CL1  UNL     1      20.218   3.159  37.124  1.00  0.00    -0.081 Cl
HETATM   23  C11 UNL     1      18.978   1.391  35.457  1.00  0.00     0.060 A
ENDBRANCH  10  11
ENDBRANCH   9  10
ENDBRANCH   8   9
ENDBRANCH   3   8
BRANCH   1  24
HETATM   24  O1  UNL     1      21.360  -6.211  32.095  1.00  0.00    -0.355 OA
HETATM   25  C1  UNL     1      21.393  -5.981  30.711  1.00  0.00     0.210 C
ENDBRANCH   1  24
BRANCH   7  26
HETATM   26  C16 UNL     1      20.148  -8.455  33.495  1.00  0.00     0.017 C
HETATM   27  C17 UNL     1      20.308  -9.242  32.472  1.00  0.00     0.025 C
BRANCH  27  28
HETATM   28  C18 UNL     1      20.804 -10.603  32.707  1.00  0.00     0.037 C
HETATM   29 CL3  UNL     1      20.621 -11.386  34.262  1.00  0.00    -0.084 Cl
HETATM   30  C19 UNL     1      21.394 -11.227  31.709  1.00  0.00     0.073 C
BRANCH  30  31
HETATM   31  C20 UNL     1      21.920 -12.573  31.830  1.00  0.00     0.147 C
HETATM   32  C21 UNL     1      23.348 -12.852  32.105  1.00  0.00     0.096 C
HETATM   33  O3  UNL     1      21.156 -13.561  31.702  1.00  0.00    -0.294 OA
ENDBRANCH  30  31
ENDBRANCH  27  28
ENDBRANCH   7  26
TORSDOF 8
ENDMDL