MODEL 2
REMARK VINA RESULT: -8.710347050      3.033      6.701
REMARK  12 active torsions:
REMARK  status: ('A' for Active; 'I' for Inactive)
REMARK    1  A    between atoms: C2_2  and  C3_3
REMARK    2  A    between atoms: C2_2  and  C11_16
REMARK    3  A    between atoms: C3_3  and  O1_4
REMARK    4  A    between atoms: O1_4  and  C4_5
REMARK    5  A    between atoms: C4_5  and  C5_7
REMARK    6  A    between atoms: C5_7  and  C7_11
REMARK    7  A    between atoms: C7_11  and  C8_13
REMARK    8  A    between atoms: C11_16  and  O4_18
REMARK    9  A    between atoms: O4_18  and  C12_19
REMARK   10  A    between atoms: C12_19  and  C13_20
REMARK   11  A    between atoms: C13_20  and  C15_25
REMARK   12  A    between atoms: N1_21  and  O5_23
ROOT
HETATM    1  C11 UNL     1      17.028   0.285  30.965  1.00  0.00     0.291 C
HETATM    2  O3  UNL     1      15.840   0.673  31.050  1.00  0.00    -0.260 OA
ENDROOT
BRANCH   1   3
HETATM    3  C2  UNL     1      17.491  -0.427  29.777  1.00  0.00     0.032 C
HETATM    4  C1  UNL     1      16.684  -0.608  28.778  1.00  0.00     0.027 C
BRANCH   3   5
HETATM    5  C3  UNL     1      18.880  -0.890  29.775  1.00  0.00     0.223 C
BRANCH   5   6
HETATM    6  O1  UNL     1      19.104  -2.258  29.745  1.00  0.00    -0.313 OA
BRANCH   6   7
HETATM    7  C4  UNL     1      20.261  -2.837  30.280  1.00  0.00     0.297 C
HETATM    8  O2  UNL     1      21.370  -2.255  30.014  1.00  0.00    -0.259 OA
BRANCH   7   9
HETATM    9  C5  UNL     1      20.287  -4.032  31.099  1.00  0.00     0.094 C
HETATM   10  C6  UNL     1      20.871  -5.136  30.540  1.00  0.00     0.121 C
HETATM   11 CL1  UNL     1      20.941  -6.599  31.464  1.00  0.00    -0.070 Cl
HETATM   12 CL2  UNL     1      21.527  -5.119  28.932  1.00  0.00    -0.070 Cl
BRANCH   9  13
HETATM   13  C7  UNL     1      19.629  -4.211  32.384  1.00  0.00     0.054 C
HETATM   14 CL3  UNL     1      20.915  -2.701  33.243  1.00  0.00    -0.083 Cl
BRANCH  13  15
HETATM   15  C8  UNL     1      19.108  -4.338  33.420  1.00  0.00    -0.065 C
HETATM   16  C9  UNL     1      19.489  -5.529  34.339  1.00  0.00     0.044 C
HETATM   17  C10 UNL     1      17.997  -3.533  34.064  1.00  0.00     0.044 C
ENDBRANCH  13  15
ENDBRANCH   9  13
ENDBRANCH   7   9
ENDBRANCH   6   7
ENDBRANCH   5   6
ENDBRANCH   3   5
ENDBRANCH   1   3
BRANCH   1  18
HETATM   18  O4  UNL     1      17.862   0.561  32.038  1.00  0.00    -0.312 OA
BRANCH  18  19
HETATM   19  C12 UNL     1      17.683  -0.187  33.225  1.00  0.00     0.238 C
BRANCH  19  20
HETATM   20  C13 UNL     1      17.626   0.650  34.428  1.00  0.00     0.066 C
HETATM   21  N1  UNL     1      16.474   1.018  34.899  1.00  0.00    -0.268 N
ATOM     22  H1  UNL     1      16.426   1.602  35.735  1.00  0.00     0.194 HD
BRANCH  21  23
HETATM   23  O5  UNL     1      15.333   0.624  34.277  1.00  0.00    -0.285 OA
HETATM   24  C14 UNL     1      14.126   1.327  34.221  1.00  0.00     0.237 C
ENDBRANCH  21  23
BRANCH  20  25
HETATM   25  C15 UNL     1      18.815   1.062  35.139  1.00  0.00    -0.008 A
HETATM   26  C16 UNL     1      18.893   2.170  35.956  1.00  0.00     0.013 A
HETATM   27  C17 UNL     1      20.033   2.579  36.613  1.00  0.00     0.003 A
HETATM   28  C18 UNL     1      21.187   1.840  36.456  1.00  0.00     0.024 A
HETATM   29  C19 UNL     1      21.154   0.724  35.648  1.00  0.00     0.035 A
HETATM   30 CL4  UNL     1      22.619  -0.249  35.410  1.00  0.00    -0.084 Cl
HETATM   31  C20 UNL     1      20.008   0.339  35.008  1.00  0.00     0.037 A
ENDBRANCH  20  25
ENDBRANCH  19  20
ENDBRANCH  18  19
ENDBRANCH   1  18
TORSDOF 12
ENDMDL