MODEL 1
REMARK VINA RESULT: -8.984171146      0.000      0.000
REMARK  12 active torsions:
REMARK  status: ('A' for Active; 'I' for Inactive)
REMARK    1  A    between atoms: C2_2  and  N1_4
REMARK    2  A    between atoms: N1_4  and  C4_5
REMARK    3  A    between atoms: N1_4  and  C20_31
REMARK    4  A    between atoms: C4_5  and  O1_6
REMARK    5  A    between atoms: C4_5  and  N2_8
REMARK    6  A    between atoms: N2_8  and  C5_9
REMARK    7  A    between atoms: N2_8  and  C14_25
REMARK    8  A    between atoms: C5_9  and  C6_10
REMARK    9  A    between atoms: N5_14  and  C7_15
REMARK   10  A    between atoms: C7_15  and  C8_16
REMARK   11  A    between atoms: C8_16  and  N6_17
REMARK   12  A    between atoms: C20_31  and  C22_33
ROOT
HETATM    1  N2  UNL     1      21.662  -4.135  29.510  1.00  0.00    -0.313 N
ENDROOT
BRANCH   1   2
HETATM    2  C4  UNL     1      22.399  -3.225  30.216  1.00  0.00     0.226 C
BRANCH   2   3
HETATM    3  N1  UNL     1      22.569  -1.894  30.535  1.00  0.00    -0.308 N
BRANCH   3   4
HETATM    4  C2  UNL     1      23.270  -1.683  31.878  1.00  0.00     0.085 C
HETATM    5  C1  UNL     1      22.295  -1.309  32.931  1.00  0.00     0.032 C
HETATM    6  C3  UNL     1      24.288  -0.555  31.737  1.00  0.00     0.032 C
ENDBRANCH   3   4
BRANCH   3   7
HETATM    7  C20 UNL     1      22.213  -0.648  29.977  1.00  0.00     0.095 C
HETATM    8  C21 UNL     1      20.746  -0.289  30.188  1.00  0.00     0.073 C
BRANCH   7   9
HETATM    9  C22 UNL     1      22.630  -0.140  28.668  1.00  0.00     0.428 C
HETATM   10  F1  UNL     1      22.155  -0.619  27.525  1.00  0.00    -0.165 F
HETATM   11  F2  UNL     1      22.162   1.231  28.678  1.00  0.00    -0.165 F
HETATM   12  F3  UNL     1      24.028   0.121  28.571  1.00  0.00    -0.165 F
ENDBRANCH   7   9
ENDBRANCH   3   7
ENDBRANCH   2   3
BRANCH   2  13
HETATM   13  O1  UNL     1      23.374  -3.932  30.899  1.00  0.00    -0.332 OA
ATOM     14  H1  UNL     1      22.964  -4.287  31.678  1.00  0.00     0.221 HD
ENDBRANCH   2  13
ENDBRANCH   1   2
BRANCH   1  15
HETATM   15  C5  UNL     1      20.158  -3.995  29.746  1.00  0.00     0.211 C
BRANCH  15  16
HETATM   16  C6  UNL     1      19.888  -3.886  31.163  1.00  0.00     0.128 A
HETATM   17  N3  UNL     1      20.355  -4.709  32.116  1.00  0.00    -0.269 N
HETATM   18  N4  UNL     1      19.877  -4.258  33.271  1.00  0.00    -0.003 NA
ATOM     19  H3  UNL     1      20.957  -5.521  31.981  1.00  0.00     0.185 HD
HETATM   20  N5  UNL     1      19.133  -3.185  33.068  1.00  0.00    -0.215 N
HETATM   21  N7  UNL     1      19.140  -2.959  31.781  1.00  0.00    -0.272 N
ATOM     22  H7  UNL     1      18.650  -2.193  31.316  1.00  0.00     0.189 HD
BRANCH  20  23
HETATM   23  C7  UNL     1      18.449  -2.429  34.129  1.00  0.00     0.186 C
BRANCH  23  24
HETATM   24  C8  UNL     1      17.366  -1.569  33.511  1.00  0.00     0.140 C
BRANCH  24  25
HETATM   25  N6  UNL     1      17.651  -0.185  33.625  1.00  0.00    -0.411 N
HETATM   26  C9  UNL     1      18.997   0.143  33.904  1.00  0.00     0.117 C
HETATM   27  C10 UNL     1      19.248   0.805  35.233  1.00  0.00     0.019 C
HETATM   28  C11 UNL     1      18.341   2.014  35.321  1.00  0.00     0.003 C
HETATM   29  C12 UNL     1      16.919   1.439  35.343  1.00  0.00     0.019 C
HETATM   30  C13 UNL     1      16.632   0.664  34.108  1.00  0.00     0.117 C
ENDBRANCH  24  25
ENDBRANCH  23  24
ENDBRANCH  20  23
ENDBRANCH  15  16
ENDBRANCH   1  15
BRANCH   1  31
HETATM   31  C14 UNL     1      21.885  -5.246  28.640  1.00  0.00    -0.007 C
HETATM   32  C15 UNL     1      22.729  -4.944  27.414  1.00  0.00     0.053 C
HETATM   33  C16 UNL     1      22.517  -6.034  26.416  1.00  0.00     0.006 C
HETATM   34  C17 UNL     1      22.514  -7.417  27.025  1.00  0.00     0.001 C
HETATM   35  C18 UNL     1      21.400  -7.568  28.044  1.00  0.00     0.006 C
HETATM   36  C19 UNL     1      20.801  -6.172  28.324  1.00  0.00     0.053 C
ENDBRANCH   1  31
TORSDOF 12
ENDMDL