MODEL 2
REMARK VINA RESULT: -8.815639823      2.900      4.056
REMARK  9 active torsions:
REMARK  status: ('A' for Active; 'I' for Inactive)
REMARK    1  A    between atoms: C2_2  and  C3_3
REMARK    2  A    between atoms: C3_3  and  C4_4
REMARK    3  A    between atoms: C4_4  and  C5_5
REMARK    4  A    between atoms: C5_5  and  C6_6
REMARK    5  A    between atoms: C6_6  and  O1_7
REMARK    6  A    between atoms: O1_7  and  C7_8
REMARK    7  A    between atoms: C7_8  and  C8_10
REMARK    8  A    between atoms: C8_10  and  C9_11
REMARK    9  A    between atoms: C9_11  and  N1_12
ROOT
HETATM    1  N1  UNL     1      20.725  -2.398  31.961  1.00  0.00    -0.388 N
ATOM      2  H1  UNL     1      20.235  -3.045  31.344  1.00  0.00     0.159 HD
HETATM    3  C10 UNL     1      20.053  -1.773  32.830  1.00  0.00     0.082 C
HETATM    4  C11 UNL     1      20.663  -0.832  33.750  1.00  0.00     0.208 C
HETATM    5  O3  UNL     1      21.894  -0.769  33.980  1.00  0.00    -0.285 OA
HETATM    6  C12 UNL     1      19.839   0.134  34.491  1.00  0.00     0.055 A
HETATM    7  C13 UNL     1      20.372   1.047  35.374  1.00  0.00     0.072 A
HETATM    8 CL1  UNL     1      22.129   1.021  35.598  1.00  0.00    -0.081 Cl
HETATM    9  C14 UNL     1      19.580   1.932  36.046  1.00  0.00     0.080 A
HETATM   10 CL2  UNL     1      20.334   3.062  37.152  1.00  0.00    -0.081 Cl
HETATM   11  C15 UNL     1      18.199   1.944  35.862  1.00  0.00     0.080 A
HETATM   12 CL3  UNL     1      17.174   3.084  36.728  1.00  0.00    -0.081 Cl
HETATM   13  C16 UNL     1      17.689   1.025  34.977  1.00  0.00     0.072 A
HETATM   14 CL4  UNL     1      15.943   1.008  34.715  1.00  0.00    -0.081 Cl
HETATM   15  C17 UNL     1      18.472   0.126  34.290  1.00  0.00     0.051 A
HETATM   16  C18 UNL     1      17.858  -0.816  33.371  1.00  0.00     0.185 C
HETATM   17  O4  UNL     1      16.704  -0.618  32.964  1.00  0.00    -0.290 OA
HETATM   18  C19 UNL     1      18.572  -2.032  32.887  1.00  0.00     0.220 C
HETATM   19  C20 UNL     1      18.263  -3.187  33.707  1.00  0.00     0.078 C
HETATM   20  N2  UNL     1      18.022  -4.129  34.355  1.00  0.00    -0.196 NA
ENDROOT
BRANCH   1  21
HETATM   21  C9  UNL     1      22.132  -2.244  31.798  1.00  0.00     0.129 C
BRANCH  21  22
HETATM   22  C8  UNL     1      22.563  -2.516  30.356  1.00  0.00     0.130 C
BRANCH  22  23
HETATM   23  C7  UNL     1      22.605  -3.986  30.170  1.00  0.00     0.260 C
HETATM   24  O2  UNL     1      23.681  -4.594  30.151  1.00  0.00    -0.265 OA
BRANCH  23  25
HETATM   25  O1  UNL     1      21.411  -4.656  30.019  1.00  0.00    -0.321 OA
BRANCH  25  26
HETATM   26  C6  UNL     1      21.074  -5.887  30.607  1.00  0.00     0.178 C
BRANCH  26  27
HETATM   27  C5  UNL     1      21.093  -7.033  29.669  1.00  0.00     0.027 C
BRANCH  27  28
HETATM   28  C4  UNL     1      20.833  -6.647  28.235  1.00  0.00     0.002 C
BRANCH  28  29
HETATM   29  C3  UNL     1      21.932  -7.029  27.309  1.00  0.00    -0.000 C
BRANCH  29  30
HETATM   30  C2  UNL     1      22.630  -5.800  26.812  1.00  0.00    -0.005 C
HETATM   31  C1  UNL     1      24.119  -5.875  26.941  1.00  0.00     0.005 C
ENDBRANCH  29  30
ENDBRANCH  28  29
ENDBRANCH  27  28
ENDBRANCH  26  27
ENDBRANCH  25  26
ENDBRANCH  23  25
ENDBRANCH  22  23
ENDBRANCH  21  22
ENDBRANCH   1  21
TORSDOF 9
ENDMDL