MODEL 4
REMARK VINA RESULT: -9.719727830      5.309      9.443
REMARK  9 active torsions:
REMARK  status: ('A' for Active; 'I' for Inactive)
REMARK    1  A    between atoms: C2_2  and  N1_4
REMARK    2  A    between atoms: N1_4  and  C4_5
REMARK    3  A    between atoms: N1_4  and  C14_26
REMARK    4  A    between atoms: C4_5  and  C5_6
REMARK    5  A    between atoms: C8_10  and  O1_11
REMARK    6  A    between atoms: O1_11  and  C9_12
REMARK    7  A    between atoms: C9_12  and  C10_13
REMARK    8  A    between atoms: C12_15  and  C13_16
REMARK    9  A    between atoms: C14_26  and  C15_27
ROOT
HETATM    1  C5  UNL     1      18.963  -2.485  33.730  1.00  0.00     0.045 A
HETATM    2  C6  UNL     1      18.174  -3.533  34.156  1.00  0.00     0.051 A
HETATM    3  C7  UNL     1      18.631  -4.846  34.095  1.00  0.00     0.065 A
HETATM    4 BR1  UNL     1      17.537  -6.300  34.682  1.00  0.00    -0.046 Br
HETATM    5  C8  UNL     1      19.882  -5.107  33.603  1.00  0.00     0.175 A
HETATM    6  N3  UNL     1      20.622  -4.048  33.195  1.00  0.00    -0.279 N
ATOM      7  H3  UNL     1      21.558  -4.211  32.823  1.00  0.00     0.189 HD
HETATM    8  N4  UNL     1      20.168  -2.816  33.265  1.00  0.00    -0.301 N
ATOM      9  H4  UNL     1      20.778  -2.064  32.942  1.00  0.00     0.186 HD
ENDROOT
BRANCH   1  10
HETATM   10  C4  UNL     1      18.459  -1.125  33.780  1.00  0.00     0.180 C
BRANCH  10  11
HETATM   11  N1  UNL     1      17.318  -0.817  33.010  1.00  0.00    -0.383 N
BRANCH  11  12
HETATM   12  C2  UNL     1      16.154  -0.450  33.672  1.00  0.00     0.075 C
HETATM   13  C1  UNL     1      16.188   1.002  34.084  1.00  0.00     0.032 C
HETATM   14  C3  UNL     1      14.868  -0.672  32.928  1.00  0.00     0.032 C
ENDBRANCH  11  12
BRANCH  11  15
HETATM   15  C14 UNL     1      17.417  -0.912  31.626  1.00  0.00     0.063 C
BRANCH  15  16
HETATM   16  C15 UNL     1      17.927   0.335  30.926  1.00  0.00     0.024 C
HETATM   17  C16 UNL     1      18.857  -0.117  29.808  1.00  0.00     0.010 C
HETATM   18  C17 UNL     1      19.496   1.121  29.227  1.00  0.00     0.001 C
HETATM   19  C18 UNL     1      18.414   1.948  28.559  1.00  0.00     0.000 C
HETATM   20  C19 UNL     1      17.291   2.252  29.527  1.00  0.00     0.001 C
HETATM   21  C20 UNL     1      16.762   1.051  30.239  1.00  0.00     0.010 C
ENDBRANCH  15  16
ENDBRANCH  11  15
ENDBRANCH  10  11
ENDBRANCH   1  10
BRANCH   5  22
HETATM   22  O1  UNL     1      20.396  -6.408  33.516  1.00  0.00    -0.328 OA
BRANCH  22  23
HETATM   23  C9  UNL     1      20.758  -6.954  32.262  1.00  0.00     0.236 C
BRANCH  23  24
HETATM   24  C10 UNL     1      20.954  -8.424  32.294  1.00  0.00     0.059 A
HETATM   25  C11 UNL     1      20.968  -9.250  33.425  1.00  0.00     0.069 A
HETATM   26  C12 UNL     1      21.182 -10.545  33.015  1.00  0.00     0.142 A
HETATM   27  O2  UNL     1      21.292 -10.497  31.697  1.00  0.00    -0.236 OA
HETATM   28  N2  UNL     1      21.162  -9.274  31.271  1.00  0.00    -0.263 N
ATOM     29  H2  UNL     1      21.211  -8.996  30.291  1.00  0.00     0.194 HD
BRANCH  26  30
HETATM   30  C13 UNL     1      21.274 -11.758  33.862  1.00  0.00     0.412 C
HETATM   31  F1  UNL     1      22.400 -11.737  34.664  1.00  0.00    -0.207 F
HETATM   32  F2  UNL     1      20.174 -11.927  34.685  1.00  0.00    -0.207 F
ENDBRANCH  26  30
ENDBRANCH  23  24
ENDBRANCH  22  23
ENDBRANCH   5  22
TORSDOF 9
ENDMDL