MODEL 1
REMARK VINA RESULT: -9.485242224      0.000      0.000
REMARK  8 active torsions:
REMARK  status: ('A' for Active; 'I' for Inactive)
REMARK    1  A    between atoms: O1_2  and  C2_3
REMARK    2  A    between atoms: C5_8  and  C6_9
REMARK    3  A    between atoms: C6_9  and  N2_10
REMARK    4  A    between atoms: N3_13  and  C9_14
REMARK    5  A    between atoms: C9_14  and  C10_15
REMARK    6  A    between atoms: C10_15  and  C11_17
REMARK    7  A    between atoms: C12_18  and  O3_19
REMARK    8  A    between atoms: O3_19  and  C13_20
ROOT
HETATM    1  C2  UNL     1      22.790  -5.155  28.969  1.00  0.00     0.092 A
HETATM    2  C3  UNL     1      22.978  -3.794  28.923  1.00  0.00     0.070 A
HETATM    3  C4  UNL     1      21.984  -2.999  29.459  1.00  0.00     0.063 A
HETATM    4  N1  UNL     1      21.920  -1.661  29.542  1.00  0.00    -0.343 N
ATOM      5  H1  UNL     1      22.630  -1.011  29.204  1.00  0.00     0.167 HD
HETATM    6  C5  UNL     1      20.748  -1.310  30.152  1.00  0.00     0.102 A
HETATM    7  N3  UNL     1      20.104  -2.463  30.438  1.00  0.00    -0.326 N
HETATM    8  C20 UNL     1      20.843  -3.505  30.023  1.00  0.00     0.065 A
HETATM    9  C21 UNL     1      20.662  -4.861  30.064  1.00  0.00     0.058 A
HETATM   10  C22 UNL     1      21.647  -5.675  29.533  1.00  0.00     0.069 A
HETATM   11 CL2  UNL     1      21.443  -7.411  29.573  1.00  0.00    -0.081 Cl
ENDROOT
BRANCH   7  12
HETATM   12  C9  UNL     1      18.817  -2.523  31.085  1.00  0.00     0.214 C
BRANCH  12  13
HETATM   13  C10 UNL     1      18.921  -2.675  32.549  1.00  0.00     0.182 C
HETATM   14  O2  UNL     1      19.023  -3.816  33.041  1.00  0.00    -0.290 OA
BRANCH  13  15
HETATM   15  C11 UNL     1      18.907  -1.507  33.393  1.00  0.00     0.067 A
HETATM   16  C12 UNL     1      17.691  -0.881  33.699  1.00  0.00     0.091 A
HETATM   17  C14 UNL     1      17.675   0.226  34.499  1.00  0.00     0.045 A
HETATM   18  C15 UNL     1      18.876   0.728  35.007  1.00  0.00    -0.052 A
HETATM   19  C16 UNL     1      18.837   1.918  35.865  1.00  0.00     0.049 C
HETATM   20  C17 UNL     1      20.059   0.137  34.722  1.00  0.00    -0.033 A
HETATM   21  C18 UNL     1      21.325   0.700  35.283  1.00  0.00     0.050 C
HETATM   22  C19 UNL     1      20.058  -0.977  33.916  1.00  0.00     0.057 A
HETATM   23 CL1  UNL     1      21.590  -1.732  33.553  1.00  0.00    -0.083 Cl
BRANCH  16  24
HETATM   24  O3  UNL     1      16.568  -1.425  33.169  1.00  0.00    -0.289 OA
BRANCH  24  25
HETATM   25  C13 UNL     1      15.531  -0.719  32.568  1.00  0.00     0.505 C
HETATM   26  F1  UNL     1      14.333  -1.451  32.699  1.00  0.00    -0.184 F
HETATM   27  F2  UNL     1      15.770  -0.544  31.194  1.00  0.00    -0.184 F
ENDBRANCH  24  25
ENDBRANCH  16  24
ENDBRANCH  13  15
ENDBRANCH  12  13
ENDBRANCH   7  12
BRANCH   6  28
HETATM   28  C6  UNL     1      20.339   0.098  30.407  1.00  0.00     0.192 C
BRANCH  28  29
HETATM   29  N2  UNL     1      19.796   0.684  29.223  1.00  0.00    -0.414 N
HETATM   30  C7  UNL     1      20.696   1.451  28.432  1.00  0.00     0.143 C
HETATM   31  C8  UNL     1      18.486   1.232  29.367  1.00  0.00     0.143 C
ENDBRANCH  28  29
ENDBRANCH   6  28
BRANCH   1  32
HETATM   32  O1  UNL     1      23.768  -6.009  28.438  1.00  0.00    -0.354 OA
HETATM   33  C1  UNL     1      24.069  -6.046  27.075  1.00  0.00     0.210 C
ENDBRANCH   1  32
TORSDOF 8
ENDMDL