MODEL 5
REMARK VINA RESULT: -7.484522538      1.072      1.464
REMARK  9 active torsions:
REMARK  status: ('A' for Active; 'I' for Inactive)
REMARK    1  A    between atoms: C2_2  and  C3_3
REMARK    2  A    between atoms: C3_3  and  C4_4
REMARK    3  A    between atoms: C5_5  and  C6_6
REMARK       I    between atoms: C6_6  and  N1_8
REMARK    4  A    between atoms: N1_8  and  C7_9
REMARK    5  A    between atoms: N1_8  and  C11_14
REMARK    6  A    between atoms: C7_9  and  C8_10
REMARK    7  A    between atoms: C8_10  and  C9_11
REMARK    8  A    between atoms: C9_11  and  O2_12
REMARK    9  A    between atoms: C16_24  and  C17_25
ROOT
HETATM    1  C11 UNL     1      21.916  -2.247  30.759  1.00  0.00     0.091 C
HETATM    2  C12 UNL     1      21.524  -1.570  29.492  1.00  0.00     0.081 C
HETATM    3  C13 UNL     1      23.350  -2.665  30.755  1.00  0.00     0.113 C
HETATM    4  N2  UNL     1      24.476  -2.978  30.768  1.00  0.00    -0.190 NA
ENDROOT
BRANCH   1   5
HETATM    5  N1  UNL     1      21.065  -3.198  31.364  1.00  0.00    -0.307 N
HETATM    6  C6  UNL     1      20.080  -3.053  32.403  1.00  0.00     0.277 C
HETATM    7  O1  UNL     1      19.502  -4.163  32.673  1.00  0.00    -0.265 OA
BRANCH   6   8
HETATM    8  C5  UNL     1      19.731  -1.829  33.104  1.00  0.00     0.126 A
HETATM    9  C4  UNL     1      18.530  -1.111  33.190  1.00  0.00     0.051 A
HETATM   10  N4  UNL     1      18.721  -0.079  34.109  1.00  0.00    -0.290 N
HETATM   11  C14 UNL     1      19.997  -0.229  34.496  1.00  0.00     0.158 A
HETATM   12  C16 UNL     1      18.018   0.905  34.669  1.00  0.00     0.101 A
HETATM   13  N3  UNL     1      20.612  -1.266  33.906  1.00  0.00    -0.330 N
HETATM   14  S1  UNL     1      20.278   0.992  35.644  1.00  0.00    -0.039 SA
ATOM     15  H3  UNL     1      21.577  -1.562  34.051  1.00  0.00     0.168 HD
HETATM   16  C15 UNL     1      18.763   1.683  35.628  1.00  0.00     0.105 A
HETATM   17 CL1  UNL     1      18.126   3.063  36.563  1.00  0.00    -0.074 Cl
BRANCH   9  18
HETATM   18  C3  UNL     1      17.402  -1.359  32.318  1.00  0.00     0.060 C
BRANCH  18  19
HETATM   19  C2  UNL     1      17.344  -0.444  31.118  1.00  0.00     0.002 C
HETATM   20  C1  UNL     1      17.986  -0.819  29.858  1.00  0.00     0.005 C
ENDBRANCH  18  19
ENDBRANCH   9  18
BRANCH  12  21
HETATM   21  C17 UNL     1      16.596   1.342  34.622  1.00  0.00     0.233 C
HETATM   22 CL2  UNL     1      16.189   2.093  36.251  1.00  0.00    -0.077 Cl
HETATM   23 CL3  UNL     1      16.579   2.926  33.629  1.00  0.00    -0.077 Cl
HETATM   24 CL4  UNL     1      15.285   0.527  33.973  1.00  0.00    -0.077 Cl
ENDBRANCH  12  21
ENDBRANCH   6   8
BRANCH   5  25
HETATM   25  C7  UNL     1      21.121  -4.570  30.835  1.00  0.00     0.135 C
BRANCH  25  26
HETATM   26  C8  UNL     1      20.617  -4.838  29.492  1.00  0.00     0.046 C
BRANCH  26  27
HETATM   27  C9  UNL     1      21.521  -5.647  28.639  1.00  0.00     0.168 C
BRANCH  27  28
HETATM   28  O2  UNL     1      22.618  -4.916  28.155  1.00  0.00    -0.396 OA
HETATM   29  C10 UNL     1      23.817  -5.563  28.229  1.00  0.00     0.201 C
ENDBRANCH  27  28
ENDBRANCH  26  27
ENDBRANCH  25  26
ENDBRANCH   5  25
ENDBRANCH   1   5
TORSDOF 9
ENDMDL