MODEL 3
REMARK VINA RESULT: -8.975858209      1.765      3.231
REMARK  8 active torsions:
REMARK  status: ('A' for Active; 'I' for Inactive)
REMARK    1  A    between atoms: C2_2  and  C3_3
REMARK    2  A    between atoms: C3_3  and  C4_4
REMARK    3  A    between atoms: C4_4  and  S1_5
REMARK    4  A    between atoms: S1_5  and  C5_8
REMARK    5  A    between atoms: C5_8  and  C6_9
REMARK    6  A    between atoms: C6_9  and  C7_10
REMARK    7  A    between atoms: C7_10  and  O3_11
REMARK    8  A    between atoms: O3_11  and  C8_12
ROOT
HETATM    1  C8  UNL     1      17.016  -0.283  33.708  1.00  0.00     0.110 A
HETATM    2  C9  UNL     1      15.637  -0.126  33.536  1.00  0.00     0.090 A
HETATM    3 CL1  UNL     1      14.711  -1.181  32.492  1.00  0.00    -0.080 Cl
HETATM    4  C10 UNL     1      15.062   0.911  34.242  1.00  0.00     0.059 A
HETATM    5 CL2  UNL     1      13.335   1.122  34.037  1.00  0.00    -0.082 Cl
HETATM    6  C11 UNL     1      15.766   1.739  35.056  1.00  0.00     0.042 A
HETATM    7  C12 UNL     1      17.151   1.589  35.235  1.00  0.00     0.037 A
HETATM    8  C13 UNL     1      17.717   0.563  34.536  1.00  0.00     0.055 A
HETATM    9  S2  UNL     1      19.459   0.576  34.923  1.00  0.00    -0.080 SA
HETATM   10  C14 UNL     1      19.414   1.977  36.033  1.00  0.00     0.090 A
HETATM   11  C15 UNL     1      20.438   2.522  36.690  1.00  0.00     0.124 C
HETATM   12 CL3  UNL     1      20.235   3.893  37.743  1.00  0.00    -0.069 Cl
HETATM   13 CL4  UNL     1      22.049   1.859  36.508  1.00  0.00    -0.069 Cl
HETATM   14  C16 UNL     1      18.015   2.373  36.048  1.00  0.00     0.203 A
HETATM   15  O4  UNL     1      17.653   3.377  36.774  1.00  0.00    -0.286 OA
ENDROOT
BRANCH   1  16
HETATM   16  O3  UNL     1      17.639  -1.303  33.027  1.00  0.00    -0.348 OA
BRANCH  16  17
HETATM   17  C7  UNL     1      17.761  -2.562  33.726  1.00  0.00     0.176 C
BRANCH  17  18
HETATM   18  C6  UNL     1      19.048  -3.217  33.358  1.00  0.00     0.041 C
BRANCH  18  19
HETATM   19  C5  UNL     1      19.303  -3.318  31.897  1.00  0.00     0.142 C
BRANCH  19  20
HETATM   20  S1  UNL     1      20.608  -2.341  31.271  1.00  0.00     0.144 S
HETATM   21  O1  UNL     1      21.124  -1.404  32.311  1.00  0.00    -0.228 OA
HETATM   22  O2  UNL     1      21.730  -3.296  30.884  1.00  0.00    -0.228 OA
BRANCH  20  23
HETATM   23  C4  UNL     1      20.158  -1.451  29.803  1.00  0.00     0.140 C
BRANCH  23  24
HETATM   24  C3  UNL     1      18.660  -1.468  29.591  1.00  0.00     0.014 C
BRANCH  24  25
HETATM   25  C2  UNL     1      18.091  -0.075  29.713  1.00  0.00    -0.004 C
HETATM   26  C1  UNL     1      16.578  -0.097  29.513  1.00  0.00     0.005 C
ENDBRANCH  24  25
ENDBRANCH  23  24
ENDBRANCH  20  23
ENDBRANCH  19  20
ENDBRANCH  18  19
ENDBRANCH  17  18
ENDBRANCH  16  17
ENDBRANCH   1  16
TORSDOF 8
ENDMDL