MODEL 5
REMARK VINA RESULT: -5.102749011      2.929      4.827
REMARK  5 active torsions:
REMARK  status: ('A' for Active; 'I' for Inactive)
REMARK    1  A    between atoms: N2_7  and  C4_8
REMARK    2  A    between atoms: C10_15  and  C11_16
REMARK    3  A    between atoms: C11_16  and  N3_17
REMARK    4  A    between atoms: N3_17  and  C12_20
REMARK    5  A    between atoms: C12_20  and  C13_21
ROOT
HETATM    1  C1  UNL     1      35.770   3.095  54.525  1.00  0.00     0.070 C
HETATM    2  C2  UNL     1      35.726   1.631  54.542  1.00  0.00     0.032 A
HETATM    3  N1  UNL     1      36.706   0.826  54.143  1.00  0.00    -0.335 N
ATOM      4  H1  UNL     1      37.611   1.122  53.775  1.00  0.00     0.168 HD
HETATM    5  C3  UNL     1      36.303  -0.437  54.306  1.00  0.00     0.179 A
HETATM    6  S1  UNL     1      37.218  -1.718  53.936  1.00  0.00    -0.040 SA
HETATM    7  N2  UNL     1      35.041  -0.486  54.819  1.00  0.00    -0.318 N
HETATM    8  C10 UNL     1      34.663   0.780  54.974  1.00  0.00     0.062 A
ENDROOT
BRANCH   8   9
HETATM    9  C11 UNL     1      33.420   1.405  55.470  1.00  0.00     0.291 C
BRANCH   9  10
HETATM   10  N3  UNL     1      32.342   1.545  54.572  1.00  0.00    -0.061 N
ATOM     11  H32 UNL     1      32.581   1.230  53.631  1.00  0.00     0.277 HD
ATOM     12  H31 UNL     1      31.593   0.879  54.763  1.00  0.00     0.277 HD
BRANCH  10  13
HETATM   13  C12 UNL     1      31.862   2.949  54.588  1.00  0.00     0.349 C
BRANCH  13  14
HETATM   14  C13 UNL     1      30.343   2.947  54.555  1.00  0.00     0.411 C
HETATM   15  F1  UNL     1      29.818   3.930  55.374  1.00  0.00    -0.169 F
HETATM   16  F2  UNL     1      29.843   1.730  54.938  1.00  0.00    -0.169 F
HETATM   17  F3  UNL     1      29.872   3.196  53.274  1.00  0.00    -0.169 F
ENDBRANCH  13  14
ENDBRANCH  10  13
ENDBRANCH   9  10
ENDBRANCH   8   9
BRANCH   7  18
HETATM   18  C4  UNL     1      34.350  -1.690  55.085  1.00  0.00     0.111 C
HETATM   19  C5  UNL     1      33.857  -1.776  56.539  1.00  0.00     0.027 C
HETATM   20  C6  UNL     1      33.564  -3.267  56.773  1.00  0.00     0.002 C
HETATM   21  C7  UNL     1      32.365  -3.585  55.910  1.00  0.00     0.002 C
HETATM   22  C8  UNL     1      31.959  -2.461  55.009  1.00  0.00     0.022 C
HETATM   23  C9  UNL     1      33.114  -1.886  54.215  1.00  0.00     0.105 C
HETATM   24 CL1  UNL     1      33.440  -3.115  52.935  1.00  0.00    -0.123 Cl
ENDBRANCH   7  18
TORSDOF 5
ENDMDL