MODEL 5
REMARK VINA RESULT: -5.263886252      2.499      5.775
REMARK  7 active torsions:
REMARK  status: ('A' for Active; 'I' for Inactive)
REMARK    1  A    between atoms: O1_1  and  C1_3
REMARK    2  A    between atoms: C3_5  and  O2_6
REMARK    3  A    between atoms: C4_8  and  C5_9
REMARK    4  A    between atoms: C5_9  and  C6_10
REMARK    5  A    between atoms: C6_10  and  C7_11
REMARK    6  A    between atoms: C7_11  and  C8_12
REMARK    7  A    between atoms: C8_12  and  C9_13
ROOT
HETATM    1  C1  UNL     1      37.195   1.474  51.448  1.00  0.00     0.090 A
HETATM    2  C2  UNL     1      37.405   1.582  52.807  1.00  0.00     0.075 A
HETATM    3  C3  UNL     1      36.503   1.039  53.746  1.00  0.00     0.075 A
HETATM    4  C4  UNL     1      35.393   0.388  53.293  1.00  0.00    -0.019 A
HETATM    5  C12 UNL     1      35.192   0.286  51.897  1.00  0.00     0.037 A
HETATM    6  C13 UNL     1      36.079   0.819  50.997  1.00  0.00     0.067 A
HETATM    7 CL4  UNL     1      35.821   0.688  49.268  1.00  0.00    -0.081 Cl
ENDROOT
BRANCH   4   8
HETATM    8  C5  UNL     1      34.345  -0.164  54.203  1.00  0.00     0.083 C
BRANCH   8   9
HETATM    9  C6  UNL     1      33.992   0.648  55.360  1.00  0.00    -0.013 C
HETATM   10  C11 UNL     1      34.261   0.172  56.595  1.00  0.00     0.110 C
HETATM   11 CL2  UNL     1      33.877   1.113  58.054  1.00  0.00    -0.070 Cl
HETATM   12 CL3  UNL     1      34.819  -1.436  56.901  1.00  0.00    -0.070 Cl
BRANCH   9  13
HETATM   13  C7  UNL     1      33.361   1.959  55.402  1.00  0.00     0.065 C
BRANCH  13  14
HETATM   14  C8  UNL     1      32.417   2.535  54.807  1.00  0.00    -0.127 C
BRANCH  14  15
HETATM   15  C9  UNL     1      31.391   3.160  54.160  1.00  0.00     0.067 C
HETATM   16  C10 UNL     1      30.097   2.959  54.082  1.00  0.00     0.092 C
HETATM   17 CL1  UNL     1      29.166   1.739  54.842  1.00  0.00    -0.096 Cl
ENDBRANCH  14  15
ENDBRANCH  13  14
ENDBRANCH   9  13
ENDBRANCH   8   9
ENDBRANCH   4   8
BRANCH   3  18
HETATM   18  O2  UNL     1      36.851   1.220  55.056  1.00  0.00    -0.360 OA
ATOM     19  H2  UNL     1      36.171   1.591  55.606  1.00  0.00     0.217 HD
ENDBRANCH   3  18
BRANCH   1  20
HETATM   20  O1  UNL     1      38.072   1.999  50.513  1.00  0.00    -0.359 OA
ATOM     21  H1  UNL     1      38.425   2.878  50.580  1.00  0.00     0.217 HD
ENDBRANCH   1  20
TORSDOF 7
ENDMDL