MODEL 3
REMARK VINA RESULT: -5.885634354      0.013      1.131
REMARK  7 active torsions:
REMARK  status: ('A' for Active; 'I' for Inactive)
REMARK    1  A    between atoms: C2_2  and  C3_3
REMARK    2  A    between atoms: C3_3  and  C4_4
REMARK    3  A    between atoms: C4_4  and  C5_5
REMARK    4  A    between atoms: C5_5  and  N1_6
REMARK    5  A    between atoms: C6_7  and  O1_8
REMARK    6  A    between atoms: C9_12  and  O2_13
REMARK    7  A    between atoms: C13_18  and  C14_19
ROOT
HETATM    1  N1  UNL     1      33.427   2.850  54.749  1.00  0.00    -0.307 N
HETATM    2  C6  UNL     1      33.485   1.511  54.658  1.00  0.00     0.156 A
HETATM    3  C7  UNL     1      34.818   1.098  54.592  1.00  0.00     0.036 A
HETATM    4  C8  UNL     1      35.555   2.248  54.647  1.00  0.00     0.015 A
HETATM    5  C9  UNL     1      34.684   3.335  54.745  1.00  0.00     0.152 A
HETATM    6  C10 UNL     1      36.976   1.888  54.581  1.00  0.00     0.043 A
HETATM    7  C11 UNL     1      37.707   2.368  55.843  1.00  0.00     0.019 C
HETATM    8  C12 UNL     1      36.991   0.426  54.484  1.00  0.00    -0.005 A
HETATM    9  C13 UNL     1      35.748  -0.020  54.490  1.00  0.00     0.008 A
ENDROOT
BRANCH   1  10
HETATM   10  C5  UNL     1      32.264   3.715  54.841  1.00  0.00     0.133 C
BRANCH  10  11
HETATM   11  C4  UNL     1      31.692   3.627  56.256  1.00  0.00     0.020 C
BRANCH  11  12
HETATM   12  C3  UNL     1      30.183   3.615  56.129  1.00  0.00     0.001 C
BRANCH  12  13
HETATM   13  C2  UNL     1      29.813   3.144  54.719  1.00  0.00    -0.004 C
HETATM   14  C1  UNL     1      29.066   1.836  54.860  1.00  0.00     0.005 C
ENDBRANCH  12  13
ENDBRANCH  11  12
ENDBRANCH  10  11
ENDBRANCH   1  10
BRANCH   2  15
HETATM   15  O1  UNL     1      32.398   0.674  54.634  1.00  0.00    -0.345 OA
ATOM     16  H1  UNL     1      31.546   0.897  54.278  1.00  0.00     0.219 HD
ENDBRANCH   2  15
BRANCH   5  17
HETATM   17  O2  UNL     1      35.113   4.653  54.820  1.00  0.00    -0.345 OA
ATOM     18  H2  UNL     1      35.256   5.193  55.588  1.00  0.00     0.219 HD
ENDBRANCH   5  17
BRANCH   9  19
HETATM   19  C14 UNL     1      35.277  -1.445  54.409  1.00  0.00     0.216 C
HETATM   20 CL1  UNL     1      34.302  -1.798  55.847  1.00  0.00    -0.078 Cl
HETATM   21 CL2  UNL     1      34.307  -1.603  52.929  1.00  0.00    -0.078 Cl
HETATM   22 CL3  UNL     1      36.703  -2.516  54.355  1.00  0.00    -0.078 Cl
ENDBRANCH   9  19
TORSDOF 7
ENDMDL