MODEL 3
REMARK VINA RESULT: -6.100187270      1.836      2.708
REMARK  7 active torsions:
REMARK  status: ('A' for Active; 'I' for Inactive)
REMARK    1  A    between atoms: O1_1  and  C1_3
REMARK    2  A    between atoms: C3_5  and  C4_6
REMARK    3  A    between atoms: C4_6  and  C5_7
REMARK    4  A    between atoms: C5_7  and  C6_8
REMARK    5  A    between atoms: C11_14  and  O2_15
REMARK    6  A    between atoms: N1_17  and  C12_18
REMARK    7  A    between atoms: C12_18  and  C13_19
ROOT
HETATM    1  C1  UNL     1      36.695   1.239  52.628  1.00  0.00     0.144 A
HETATM    2  C2  UNL     1      35.774   1.746  53.545  1.00  0.00     0.067 A
HETATM    3  C3  UNL     1      34.989   0.706  53.994  1.00  0.00    -0.003 A
HETATM    4  C11 UNL     1      35.459  -0.420  53.330  1.00  0.00     0.150 A
HETATM    5  N1  UNL     1      36.469  -0.087  52.525  1.00  0.00    -0.304 N
ENDROOT
BRANCH   3   6
HETATM    6  C4  UNL     1      33.858   0.757  54.991  1.00  0.00     0.043 C
BRANCH   6   7
HETATM    7  C5  UNL     1      33.502   2.192  55.154  1.00  0.00     0.012 C
BRANCH   7   8
HETATM    8  C6  UNL     1      32.106   2.515  55.485  1.00  0.00     0.020 C
HETATM    9  C7  UNL     1      31.858   3.905  55.997  1.00  0.00     0.007 C
HETATM   10  C8  UNL     1      30.337   3.838  56.203  1.00  0.00     0.003 C
HETATM   11  C9  UNL     1      29.835   2.896  55.127  1.00  0.00     0.037 C
HETATM   12  C10 UNL     1      31.096   2.407  54.395  1.00  0.00     0.174 C
HETATM   13  F1  UNL     1      31.284   3.316  53.364  1.00  0.00    -0.249 F
ENDBRANCH   7   8
ENDBRANCH   6   7
ENDBRANCH   3   6
BRANCH   4  14
HETATM   14  O2  UNL     1      34.929  -1.685  53.505  1.00  0.00    -0.345 OA
ATOM     15  H2  UNL     1      35.189  -2.438  52.987  1.00  0.00     0.219 HD
ENDBRANCH   4  14
BRANCH   1  16
HETATM   16  O1  UNL     1      37.653   1.992  51.963  1.00  0.00    -0.346 OA
ATOM     17  H1  UNL     1      37.974   1.815  51.086  1.00  0.00     0.219 HD
ENDBRANCH   1  16
BRANCH   5  18
HETATM   18  C12 UNL     1      37.218  -0.982  51.671  1.00  0.00     0.192 C
BRANCH  18  19
HETATM   19  C13 UNL     1      36.730  -0.938  50.236  1.00  0.00     0.204 C
HETATM   20 CL1  UNL     1      37.803   0.039  49.216  1.00  0.00    -0.082 Cl
HETATM   21 CL2  UNL     1      35.051  -0.363  50.180  1.00  0.00    -0.082 Cl
HETATM   22 CL3  UNL     1      36.742  -2.595  49.562  1.00  0.00    -0.082 Cl
ENDBRANCH  18  19
ENDBRANCH   5  18
TORSDOF 7
ENDMDL