MODEL 5
REMARK VINA RESULT: -5.145456201      2.128      6.679
REMARK  5 active torsions:
REMARK  status: ('A' for Active; 'I' for Inactive)
REMARK    1  A    between atoms: C2_2  and  N3_15
REMARK    2  A    between atoms: N1_3  and  N2_5
REMARK    3  A    between atoms: N2_5  and  C3_7
REMARK    4  A    between atoms: N3_15  and  N4_17
REMARK    5  A    between atoms: C9_19  and  C11_21
ROOT
HETATM    1  C1  UNL     1      33.963  -2.650  52.309  1.00  0.00     0.092 C
HETATM    2  C2  UNL     1      34.206  -1.635  53.374  1.00  0.00     0.106 C
HETATM    3  N1  UNL     1      33.244  -1.319  54.158  1.00  0.00    -0.288 N
ATOM      4  H1  UNL     1      32.334  -1.764  54.041  1.00  0.00     0.188 HD
ENDROOT
BRANCH   3   5
HETATM    5  N2  UNL     1      33.420  -0.382  55.163  1.00  0.00    -0.299 N
ATOM      6  H2  UNL     1      33.873  -0.649  56.037  1.00  0.00     0.187 HD
BRANCH   5   7
HETATM    7  C3  UNL     1      32.965   0.962  54.972  1.00  0.00     0.051 A
HETATM    8  C4  UNL     1      33.860   2.016  55.017  1.00  0.00     0.054 A
HETATM    9  C5  UNL     1      33.445   3.299  54.838  1.00  0.00     0.037 A
HETATM   10 CL1  UNL     1      34.557   4.672  54.888  1.00  0.00    -0.084 Cl
HETATM   11  C6  UNL     1      32.104   3.526  54.610  1.00  0.00     0.048 A
HETATM   12  C7  UNL     1      31.188   2.499  54.560  1.00  0.00     0.037 A
HETATM   13 CL2  UNL     1      29.488   2.764  54.274  1.00  0.00    -0.084 Cl
HETATM   14  C8  UNL     1      31.624   1.209  54.743  1.00  0.00     0.054 A
ENDBRANCH   5   7
ENDBRANCH   3   5
BRANCH   2  15
HETATM   15  N3  UNL     1      35.460  -1.012  53.547  1.00  0.00    -0.288 N
ATOM     16  H3  UNL     1      35.559  -0.247  54.213  1.00  0.00     0.188 HD
BRANCH  15  17
HETATM   17  N4  UNL     1      36.556  -1.438  52.815  1.00  0.00    -0.305 N
HETATM   18  C9  UNL     1      37.005  -0.723  51.839  1.00  0.00     0.033 C
HETATM   19  C10 UNL     1      38.199  -1.284  51.115  1.00  0.00     0.068 C
ATOM     20  H4  UNL     1      37.011  -2.321  53.049  1.00  0.00     0.186 HD
BRANCH  18  21
HETATM   21  C11 UNL     1      36.420   0.562  51.425  1.00  0.00     0.224 C
HETATM   22 CL3  UNL     1      37.676   1.748  50.951  1.00  0.00    -0.102 Cl
HETATM   23 CL4  UNL     1      35.276   0.388  50.075  1.00  0.00    -0.102 Cl
ENDBRANCH  18  21
ENDBRANCH  15  17
ENDBRANCH   2  15
TORSDOF 5
ENDMDL