MODEL 5
REMARK VINA RESULT: -6.497229825      1.403      2.653
REMARK  6 active torsions:
REMARK  status: ('A' for Active; 'I' for Inactive)
REMARK    1  A    between atoms: C2_2  and  C3_3
REMARK    2  A    between atoms: C3_3  and  C4_4
REMARK    3  A    between atoms: C5_5  and  C6_6
REMARK    4  A    between atoms: C6_6  and  C9_9
REMARK    5  A    between atoms: C11_11  and  O1_12
REMARK    6  A    between atoms: C15_17  and  O2_18
ROOT
HETATM    1  C9  UNL     1      34.159  -0.241  53.933  1.00  0.00    -0.043 A
HETATM    2  C10 UNL     1      34.024  -1.364  53.153  1.00  0.00     0.047 A
HETATM    3  C11 UNL     1      34.921  -1.508  52.096  1.00  0.00     0.100 A
HETATM    4  C12 UNL     1      35.908  -0.587  51.819  1.00  0.00     0.117 A
HETATM    5  C13 UNL     1      36.041   0.533  52.599  1.00  0.00     0.013 A
HETATM    6  C14 UNL     1      35.152   0.683  53.652  1.00  0.00     0.021 A
HETATM    7  C15 UNL     1      37.054   1.578  52.395  1.00  0.00     0.235 C
HETATM    8  C16 UNL     1      37.886   1.402  51.182  1.00  0.00     0.364 C
HETATM    9  F1  UNL     1      37.989   2.654  50.558  1.00  0.00    -0.193 F
HETATM   10  F2  UNL     1      39.207   1.046  51.476  1.00  0.00    -0.193 F
HETATM   11  C17 UNL     1      37.371   0.445  50.172  1.00  0.00     0.428 C
HETATM   12  F3  UNL     1      38.377   0.044  49.317  1.00  0.00    -0.168 F
HETATM   13  F4  UNL     1      36.412   1.085  49.405  1.00  0.00    -0.168 F
HETATM   14  O3  UNL     1      36.803  -0.732  50.763  1.00  0.00    -0.275 OA
ENDROOT
BRANCH   1  15
HETATM   15  C6  UNL     1      33.208  -0.055  55.081  1.00  0.00    -0.003 C
HETATM   16  C7  UNL     1      33.928   0.432  56.271  1.00  0.00     0.024 C
HETATM   17  C8  UNL     1      32.774  -1.507  55.416  1.00  0.00     0.024 C
BRANCH  15  18
HETATM   18  C5  UNL     1      31.980   0.616  54.679  1.00  0.00    -0.017 C
HETATM   19  C4  UNL     1      31.640   1.850  54.524  1.00  0.00    -0.030 C
BRANCH  19  20
HETATM   20  C3  UNL     1      32.358   3.108  54.692  1.00  0.00     0.026 C
BRANCH  20  21
HETATM   21  C2  UNL     1      32.000   3.833  55.975  1.00  0.00    -0.001 C
HETATM   22  C1  UNL     1      30.508   3.778  56.214  1.00  0.00     0.005 C
ENDBRANCH  20  21
ENDBRANCH  19  20
ENDBRANCH  15  18
ENDBRANCH   1  15
BRANCH   3  23
HETATM   23  O1  UNL     1      34.793  -2.636  51.303  1.00  0.00    -0.358 OA
ATOM     24  H1  UNL     1      34.132  -2.617  50.622  1.00  0.00     0.217 HD
ENDBRANCH   3  23
BRANCH   7  25
HETATM   25  O2  UNL     1      37.921   1.523  53.512  1.00  0.00    -0.384 OA
ATOM     26  H2  UNL     1      37.736   2.293  54.037  1.00  0.00     0.210 HD
ENDBRANCH   7  25
TORSDOF 6
ENDMDL