MODEL 4
REMARK VINA RESULT: -6.214652936      2.061      2.260
REMARK  7 active torsions:
REMARK  status: ('A' for Active; 'I' for Inactive)
REMARK    1  A    between atoms: O1_1  and  C1_3
REMARK    2  A    between atoms: C1_3  and  C2_4
REMARK    3  A    between atoms: C1_3  and  N1_12
REMARK    4  A    between atoms: C2_4  and  C3_5
REMARK    5  A    between atoms: C3_5  and  C4_6
REMARK    6  A    between atoms: N1_12  and  C10_14
REMARK    7  A    between atoms: C11_18  and  C12_19
ROOT
HETATM    1  N1  UNL     1      34.063  -1.587  54.581  1.00  0.00    -0.356 N
ATOM      2  H1  UNL     1      34.800  -1.837  55.240  1.00  0.00     0.162 HD
ENDROOT
BRANCH   1   3
HETATM    3  C1  UNL     1      32.842  -1.319  55.206  1.00  0.00     0.218 C
BRANCH   3   4
HETATM    4  O1  UNL     1      32.035  -2.502  55.244  1.00  0.00    -0.377 OA
ATOM      5  H1  UNL     1      31.117  -2.260  55.207  1.00  0.00     0.212 HD
ENDBRANCH   3   4
BRANCH   3   6
HETATM    6  C2  UNL     1      32.063  -0.209  54.599  1.00  0.00     0.054 C
BRANCH   6   7
HETATM    7  C3  UNL     1      32.451   1.170  54.955  1.00  0.00     0.009 C
BRANCH   7   8
HETATM    8  C4  UNL     1      31.813   2.282  54.189  1.00  0.00    -0.014 C
HETATM    9  C5  UNL     1      30.310   2.292  54.306  1.00  0.00     0.004 C
HETATM   10  C6  UNL     1      29.799   3.548  54.984  1.00  0.00     0.000 C
HETATM   11  C7  UNL     1      30.506   3.615  56.340  1.00  0.00     0.000 C
HETATM   12  C8  UNL     1      31.942   3.956  56.061  1.00  0.00     0.000 C
HETATM   13  C9  UNL     1      32.388   3.620  54.677  1.00  0.00     0.004 C
ENDBRANCH   7   8
ENDBRANCH   6   7
ENDBRANCH   3   6
ENDBRANCH   1   3
BRANCH   1  14
HETATM   14  C10 UNL     1      34.459  -1.588  53.371  1.00  0.00     0.112 A
HETATM   15  S1  UNL     1      34.203  -2.927  52.261  1.00  0.00     0.005 SA
HETATM   16  N2  UNL     1      34.940  -2.297  50.904  1.00  0.00    -0.319 N
HETATM   17  C11 UNL     1      35.369  -1.097  51.290  1.00  0.00     0.147 A
ATOM     18  H2  UNL     1      35.039  -2.732  49.987  1.00  0.00     0.174 HD
HETATM   19  C13 UNL     1      35.126  -0.721  52.562  1.00  0.00     0.101 A
HETATM   20 CL1  UNL     1      35.654   0.878  53.208  1.00  0.00    -0.079 Cl
BRANCH  17  21
HETATM   21  C12 UNL     1      36.113  -0.169  50.331  1.00  0.00     0.434 C
HETATM   22  F1  UNL     1      37.237   0.292  50.928  1.00  0.00    -0.165 F
HETATM   23  F2  UNL     1      36.457  -0.881  49.204  1.00  0.00    -0.165 F
HETATM   24  F3  UNL     1      35.310   0.922  50.030  1.00  0.00    -0.165 F
ENDBRANCH  17  21
ENDBRANCH   1  14
TORSDOF 7
ENDMDL