MODEL 3
REMARK VINA RESULT: -4.491459364      4.183      6.094
REMARK  5 active torsions:
REMARK  status: ('A' for Active; 'I' for Inactive)
REMARK    1  A    between atoms: O1_1  and  C1_3
REMARK    2  A    between atoms: C1_3  and  C2_4
REMARK    3  A    between atoms: C2_4  and  C3_5
REMARK    4  A    between atoms: C3_5  and  C4_6
REMARK    5  A    between atoms: C4_6  and  N1_7
ROOT
HETATM    1  N1  UNL     1      34.908  -0.607  54.130  1.00  0.00    -0.322 N
HETATM    2  C5  UNL     1      33.993  -1.597  54.061  1.00  0.00     0.179 A
HETATM    3  S1  UNL     1      34.305  -3.192  53.792  1.00  0.00    -0.040 SA
HETATM    4  N2  UNL     1      32.793  -1.017  54.255  1.00  0.00    -0.330 N
ATOM      5  H2  UNL     1      31.901  -1.513  54.258  1.00  0.00     0.168 HD
HETATM    6  C6  UNL     1      32.930   0.308  54.444  1.00  0.00     0.085 A
HETATM    7  C7  UNL     1      32.030   1.332  54.678  1.00  0.00     0.086 A
HETATM    8 CL1  UNL     1      30.310   1.023  54.783  1.00  0.00    -0.080 Cl
HETATM    9  C8  UNL     1      32.517   2.616  54.830  1.00  0.00     0.080 A
HETATM   10 CL2  UNL     1      31.403   3.912  55.124  1.00  0.00    -0.081 Cl
HETATM   11  C9  UNL     1      33.868   2.905  54.753  1.00  0.00     0.059 A
HETATM   12 CL3  UNL     1      34.471   4.535  54.947  1.00  0.00    -0.082 Cl
HETATM   13  C10 UNL     1      34.740   1.866  54.520  1.00  0.00     0.057 A
HETATM   14  C11 UNL     1      34.291   0.570  54.363  1.00  0.00     0.067 A
ENDROOT
BRANCH   1  15
HETATM   15  C4  UNL     1      36.338  -0.814  53.973  1.00  0.00     0.132 C
BRANCH  15  16
HETATM   16  C3  UNL     1      36.737  -0.726  52.500  1.00  0.00     0.022 C
BRANCH  16  17
HETATM   17  C2  UNL     1      37.361   0.643  52.291  1.00  0.00     0.028 C
BRANCH  17  18
HETATM   18  C1  UNL     1      36.970   1.241  50.969  1.00  0.00     0.164 C
BRANCH  18  19
HETATM   19  O1  UNL     1      37.714   2.409  50.801  1.00  0.00    -0.401 OA
ATOM     20  H1  UNL     1      37.871   2.516  49.870  1.00  0.00     0.209 HD
ENDBRANCH  18  19
ENDBRANCH  17  18
ENDBRANCH  16  17
ENDBRANCH  15  16
ENDBRANCH   1  15
TORSDOF 5
ENDMDL