MODEL 1
REMARK VINA RESULT: -7.063784124      0.000      0.000
REMARK  4 active torsions:
REMARK  status: ('A' for Active; 'I' for Inactive)
REMARK    1  A    between atoms: C7_9  and  O1_10
REMARK    2  A    between atoms: O1_10  and  C8_11
REMARK    3  A    between atoms: C9_14  and  N2_15
REMARK    4  A    between atoms: C10_20  and  C11_21
ROOT
HETATM    1  C8  UNL     1      34.279   1.653  54.557  1.00  0.00     0.204 A
HETATM    2  N1  UNL     1      34.900   2.834  54.609  1.00  0.00    -0.167 N
ATOM      3  H1  UNL     1      35.907   2.867  54.447  1.00  0.00     0.186 HD
HETATM    4  C9  UNL     1      34.246   3.989  54.868  1.00  0.00     0.678 A
HETATM    5  N3  UNL     1      32.928   3.936  55.076  1.00  0.00    -0.192 N
ATOM      6  H3  UNL     1      32.436   4.808  55.271  1.00  0.00     0.184 HD
HETATM    7  C10 UNL     1      32.210   2.794  55.044  1.00  0.00     0.073 A
HETATM    8  C14 UNL     1      32.926   1.626  54.775  1.00  0.00     0.191 A
HETATM    9  F2  UNL     1      32.269   0.448  54.729  1.00  0.00    -0.199 F
ENDROOT
BRANCH   1  10
HETATM   10  O1  UNL     1      34.957   0.510  54.297  1.00  0.00    -0.287 OA
BRANCH  10  11
HETATM   11  C7  UNL     1      35.294  -0.007  53.081  1.00  0.00     0.124 A
HETATM   12  C5  UNL     1      34.747  -1.183  52.626  1.00  0.00    -0.000 A
HETATM   13  C4  UNL     1      35.133  -1.646  51.390  1.00  0.00     0.082 A
HETATM   14  C6  UNL     1      33.755  -1.964  53.426  1.00  0.00     0.053 C
HETATM   15  C3  UNL     1      36.042  -0.973  50.604  1.00  0.00     0.147 A
HETATM   16 CL1  UNL     1      34.442  -3.159  50.781  1.00  0.00    -0.080 Cl
HETATM   17  C2  UNL     1      36.602   0.208  51.043  1.00  0.00     0.020 A
HETATM   18  F1  UNL     1      36.407  -1.462  49.373  1.00  0.00    -0.204 F
HETATM   19  C1  UNL     1      37.590   0.961  50.216  1.00  0.00     0.055 C
HETATM   20  C15 UNL     1      36.197   0.656  52.293  1.00  0.00     0.159 A
HETATM   21  F3  UNL     1      36.778   1.836  52.693  1.00  0.00    -0.202 F
ENDBRANCH  10  11
ENDBRANCH   1  10
BRANCH   4  22
HETATM   22  N2  UNL     1      34.850   5.129  54.917  1.00  0.00    -0.234 N
ATOM     23  H22 UNL     1      35.668   5.288  54.329  1.00  0.00     0.174 HD
ATOM     24  H21 UNL     1      34.540   5.885  55.528  1.00  0.00     0.174 HD
ENDBRANCH   4  22
BRANCH   7  25
HETATM   25  C11 UNL     1      30.760   2.732  55.274  1.00  0.00     0.031 C
HETATM   26  C12 UNL     1      30.076   3.003  53.944  1.00  0.00     0.016 C
HETATM   27  C13 UNL     1      30.309   3.791  56.244  1.00  0.00     0.016 C
ENDBRANCH   7  25
TORSDOF 4
ENDMDL