MODEL 3
REMARK VINA RESULT: -5.183381689      3.822      4.880
REMARK  5 active torsions:
REMARK  status: ('A' for Active; 'I' for Inactive)
REMARK    1  A    between atoms: C2_2  and  C3_3
REMARK    2  A    between atoms: C2_2  and  C4_5
REMARK    3  A    between atoms: C4_5  and  N1_7
REMARK    4  A    between atoms: N1_7  and  C6_9
REMARK    5  A    between atoms: C14_20  and  N2_21
ROOT
HETATM    1  C6  UNL     1      34.757  -1.136  53.969  1.00  0.00     0.061 A
HETATM    2  C7  UNL     1      34.300  -2.434  54.065  1.00  0.00     0.086 A
HETATM    3 CL2  UNL     1      33.899  -3.094  55.656  1.00  0.00    -0.080 Cl
HETATM    4  C8  UNL     1      34.160  -3.264  52.960  1.00  0.00     0.099 A
HETATM    5 CL3  UNL     1      33.574  -4.903  53.132  1.00  0.00    -0.079 Cl
HETATM    6  C9  UNL     1      34.490  -2.777  51.716  1.00  0.00     0.173 A
HETATM    7  F1  UNL     1      34.366  -3.568  50.595  1.00  0.00    -0.201 F
HETATM    8  C10 UNL     1      34.953  -1.479  51.577  1.00  0.00     0.120 A
HETATM    9  C11 UNL     1      35.080  -0.676  52.711  1.00  0.00     0.007 A
HETATM   10  C12 UNL     1      35.574   0.726  52.611  1.00  0.00     0.048 C
HETATM   11  C13 UNL     1      36.342   0.841  51.309  1.00  0.00     0.066 C
HETATM   12  C14 UNL     1      35.392   0.409  50.186  1.00  0.00     0.325 C
HETATM   13  O1  UNL     1      35.288  -0.998  50.302  1.00  0.00    -0.314 OA
ENDROOT
BRANCH   1  14
HETATM   14  N1  UNL     1      34.881  -0.275  55.071  1.00  0.00    -0.380 N
ATOM     15  H1  UNL     1      35.836  -0.062  55.361  1.00  0.00     0.160 HD
BRANCH  14  16
HETATM   16  C4  UNL     1      33.858   0.335  55.833  1.00  0.00     0.107 C
HETATM   17  C5  UNL     1      34.441   0.857  57.120  1.00  0.00     0.037 C
BRANCH  16  18
HETATM   18  C2  UNL     1      33.093   1.414  55.171  1.00  0.00    -0.053 C
HETATM   19  C1  UNL     1      31.938   1.195  54.567  1.00  0.00     0.017 C
BRANCH  18  20
HETATM   20  C3  UNL     1      33.595   2.828  55.169  1.00  0.00     0.150 C
HETATM   21 CL1  UNL     1      32.488   4.004  55.829  1.00  0.00    -0.126 Cl
ENDBRANCH  18  20
ENDBRANCH  16  18
ENDBRANCH  14  16
ENDBRANCH   1  14
BRANCH  12  22
HETATM   22  N2  UNL     1      35.854   0.835  48.901  1.00  0.00    -0.052 N
ATOM     23  H23 UNL     1      35.552   1.787  48.695  1.00  0.00     0.277 HD
ATOM     24  H22 UNL     1      36.863   0.982  48.901  1.00  0.00     0.277 HD
ATOM     25  H21 UNL     1      35.574   0.190  48.162  1.00  0.00     0.277 HD
ENDBRANCH  12  22
TORSDOF 5
ENDMDL