MODEL 1
REMARK VINA RESULT: -6.460104582      0.000      0.000
REMARK  4 active torsions:
REMARK  status: ('A' for Active; 'I' for Inactive)
REMARK    1  A    between atoms: C2_2  and  C3_3
REMARK    2  A    between atoms: C4_5  and  N1_6
REMARK    3  A    between atoms: C9_14  and  O2_15
REMARK    4  A    between atoms: C10_17  and  O3_18
ROOT
HETATM    1  N1  UNL     1      -4.418   1.333  12.578  1.00  0.00    -0.320 N
HETATM    2  C5  UNL     1      -5.045   1.229  11.391  1.00  0.00     0.186 A
HETATM    3  N2  UNL     1      -4.746   0.032  10.833  1.00  0.00    -0.343 N
ATOM      4  H2  UNL     1      -5.090  -0.300   9.933  1.00  0.00     0.167 HD
HETATM    5  C6  UNL     1      -3.923  -0.650  11.651  1.00  0.00     0.130 A
HETATM    6  C7  UNL     1      -3.348  -1.962  11.468  1.00  0.00     0.119 C
HETATM    7  N3  UNL     1      -2.878  -3.020  11.339  1.00  0.00    -0.190 NA
HETATM    8  C8  UNL     1      -3.735   0.198  12.744  1.00  0.00     0.135 A
ENDROOT
BRANCH   1   9
HETATM    9  C4  UNL     1      -4.526   2.494  13.438  1.00  0.00     0.260 C
HETATM   10  O1  UNL     1      -5.216   2.253  14.593  1.00  0.00    -0.352 OA
HETATM   11  C3  UNL     1      -6.241   3.150  14.720  1.00  0.00     0.177 C
HETATM   12  C10 UNL     1      -5.756   4.378  13.967  1.00  0.00     0.183 C
HETATM   13  C9  UNL     1      -5.184   3.660  12.732  1.00  0.00     0.199 C
BRANCH  11  14
HETATM   14  C2  UNL     1      -6.645   3.446  16.098  1.00  0.00    -0.003 C
HETATM   15  C1  UNL     1      -6.763   2.461  16.971  1.00  0.00     0.009 C
ENDBRANCH  11  14
BRANCH  12  16
HETATM   16  O3  UNL     1      -6.758   5.248  13.650  1.00  0.00    -0.390 OA
ATOM     17  H3  UNL     1      -6.867   5.371  12.714  1.00  0.00     0.210 HD
ENDBRANCH  12  16
BRANCH  13  18
HETATM   18  O2  UNL     1      -4.278   4.475  12.080  1.00  0.00    -0.388 OA
ATOM     19  H2  UNL     1      -4.216   5.342  12.464  1.00  0.00     0.210 HD
ENDBRANCH  13  18
ENDBRANCH   1   9
TORSDOF 4
ENDMDL