MODEL 2
REMARK VINA RESULT: -6.159852375      2.088      5.313
REMARK  4 active torsions:
REMARK  status: ('A' for Active; 'I' for Inactive)
REMARK    1  A    between atoms: N1_2  and  O3_4
REMARK    2  A    between atoms: O3_4  and  C1_5
REMARK    3  A    between atoms: C4_9  and  O5_10
REMARK    4  A    between atoms: C5_12  and  O6_13
ROOT
HETATM    1  C1  UNL     1      -5.811   2.666  15.485  1.00  0.00     0.189 C
HETATM    2  C2  UNL     1      -6.485   3.985  15.805  1.00  0.00     0.203 C
HETATM    3  O4  UNL     1      -6.350   4.802  14.715  1.00  0.00    -0.380 OA
HETATM    4  C3  UNL     1      -5.767   4.096  13.689  1.00  0.00     0.159 C
HETATM    5  C4  UNL     1      -5.084   4.918  12.663  1.00  0.00     0.176 C
HETATM    6  C5  UNL     1      -3.716   5.381  13.033  1.00  0.00     0.149 C
HETATM    7  C6  UNL     1      -3.591   5.342  14.540  1.00  0.00     0.035 C
HETATM    8  C7  UNL     1      -3.698   3.946  15.051  1.00  0.00     0.012 C
HETATM    9  C8  UNL     1      -4.810   3.147  14.425  1.00  0.00     0.051 C
ENDROOT
BRANCH   1  10
HETATM   10  O3  UNL     1      -5.189   2.077  16.575  1.00  0.00    -0.213 OA
BRANCH  10  11
HETATM   11  N1  UNL     1      -4.799   0.764  16.489  1.00  0.00     0.005 N
HETATM   12  O1  UNL     1      -3.655   0.381  16.182  1.00  0.00    -0.511 OA
HETATM   13  O2  UNL     1      -5.739  -0.197  16.761  1.00  0.00    -0.511 OA
ENDBRANCH  10  11
ENDBRANCH   1  10
BRANCH   5  14
HETATM   14  O5  UNL     1      -5.899   6.028  12.381  1.00  0.00    -0.390 OA
ATOM     15  H5  UNL     1      -5.342   6.729  12.062  1.00  0.00     0.210 HD
ENDBRANCH   5  14
BRANCH   6  16
HETATM   16  O6  UNL     1      -3.548   6.677  12.566  1.00  0.00    -0.393 OA
ATOM     17  H6  UNL     1      -2.864   6.674  11.906  1.00  0.00     0.210 HD
ENDBRANCH   6  16
TORSDOF 4
ENDMDL