MODEL 1
REMARK VINA RESULT: -7.191267612      0.000      0.000
REMARK  5 active torsions:
REMARK  status: ('A' for Active; 'I' for Inactive)
REMARK    1  A    between atoms: C2_3  and  N2_4
REMARK    2  A    between atoms: C3_8  and  C4_9
REMARK    3  A    between atoms: C5_10  and  C6_11
REMARK    4  A    between atoms: C6_11  and  O1_12
REMARK    5  A    between atoms: O1_12  and  N3_13
ROOT
HETATM    1  N1  UNL     1      -6.532   4.073  13.953  1.00  0.00    -0.194 NA
HETATM    2  C1  UNL     1      -5.827   3.328  14.494  1.00  0.00     0.103 C
HETATM    3  C2  UNL     1      -4.933   2.412  15.150  1.00  0.00     0.255 C
HETATM    4  C3  UNL     1      -5.004   1.001  14.615  1.00  0.00     0.254 C
HETATM    5  O2  UNL     1      -4.372   0.285  15.632  1.00  0.00    -0.340 OA
HETATM    6  C7  UNL     1      -5.116   0.696  16.740  1.00  0.00     0.269 C
HETATM    7  O3  UNL     1      -6.339   0.092  16.675  1.00  0.00    -0.361 OA
HETATM    8  C8  UNL     1      -7.317   0.986  17.002  1.00  0.00     0.171 C
HETATM    9  C9  UNL     1      -6.750   2.372  16.886  1.00  0.00     0.039 C
HETATM   10  C10 UNL     1      -5.301   2.177  16.619  1.00  0.00     0.097 C
ENDROOT
BRANCH   3  11
HETATM   11  N2  UNL     1      -3.560   2.863  15.143  1.00  0.00    -0.053 N
ATOM     12  H23 UNL     1      -3.433   3.633  14.486  1.00  0.00     0.276 HD
ATOM     13  H22 UNL     1      -3.330   3.345  16.012  1.00  0.00     0.276 HD
ATOM     14  H21 UNL     1      -2.896   2.111  14.955  1.00  0.00     0.276 HD
ENDBRANCH   3  11
BRANCH   4  15
HETATM   15  C4  UNL     1      -4.277   0.938  13.351  1.00  0.00    -0.068 C
HETATM   16  C5  UNL     1      -3.688   0.872  12.299  1.00  0.00    -0.075 C
BRANCH  16  17
HETATM   17  C6  UNL     1      -2.990   0.778  11.014  1.00  0.00     0.294 C
BRANCH  17  18
HETATM   18  O1  UNL     1      -3.718  -0.062  10.142  1.00  0.00    -0.275 OA
BRANCH  18  19
HETATM   19  N3  UNL     1      -5.022   0.286  10.205  1.00  0.00    -0.310 N
ATOM     20  H32 UNL     1      -5.721  -0.166  10.795  1.00  0.00     0.184 HD
ATOM     21  H31 UNL     1      -5.178   1.067   9.567  1.00  0.00     0.184 HD
ENDBRANCH  18  19
ENDBRANCH  17  18
ENDBRANCH  16  17
ENDBRANCH   4  15
TORSDOF 5
ENDMDL