MODEL 4
REMARK VINA RESULT: -6.148172556      1.964      5.347
REMARK  4 active torsions:
REMARK  status: ('A' for Active; 'I' for Inactive)
REMARK    1  A    between atoms: O1_2  and  C2_3
REMARK    2  A    between atoms: C8_11  and  C9_12
REMARK    3  A    between atoms: C9_12  and  O4_13
REMARK    4  A    between atoms: C10_15  and  O5_16
ROOT
HETATM    1  C2  UNL     1      -4.408   4.152  12.151  1.00  0.00     0.283 C
HETATM    2  C3  UNL     1      -4.027   5.152  13.170  1.00  0.00     0.029 C
HETATM    3  C4  UNL     1      -3.683   4.922  14.420  1.00  0.00    -0.023 C
HETATM    4  C5  UNL     1      -3.578   3.670  15.148  1.00  0.00     0.070 C
HETATM    5  C6  UNL     1      -4.739   2.736  14.995  1.00  0.00     0.114 C
HETATM    6  C7  UNL     1      -5.405   2.836  13.656  1.00  0.00     0.212 C
HETATM    7  O2  UNL     1      -4.382   2.878  12.696  1.00  0.00    -0.355 OA
HETATM    8  O3  UNL     1      -5.676   2.826  16.025  1.00  0.00    -0.365 OA
HETATM    9  C8  UNL     1      -5.838   1.455  16.025  1.00  0.00     0.178 C
HETATM   10  C10 UNL     1      -4.446   1.329  15.465  1.00  0.00     0.186 C
ENDROOT
BRANCH  10  11
HETATM   11  O5  UNL     1      -3.424   1.324  16.417  1.00  0.00    -0.390 OA
ATOM     12  H5  UNL     1      -3.222   2.207  16.702  1.00  0.00     0.210 HD
ENDBRANCH  10  11
BRANCH   9  13
HETATM   13  C9  UNL     1      -6.032   0.876  17.407  1.00  0.00     0.198 C
BRANCH  13  14
HETATM   14  O4  UNL     1      -5.899  -0.522  17.324  1.00  0.00    -0.398 OA
ATOM     15  H4  UNL     1      -5.199  -0.791  17.907  1.00  0.00     0.209 HD
ENDBRANCH  13  14
ENDBRANCH   9  13
BRANCH   1  16
HETATM   16  O1  UNL     1      -3.628   4.252  11.003  1.00  0.00    -0.363 OA
HETATM   17  C1  UNL     1      -2.607   3.301  10.983  1.00  0.00     0.205 C
ENDBRANCH   1  16
TORSDOF 4
ENDMDL