MODEL 2
REMARK VINA RESULT: -5.953646515      1.531      3.336
REMARK  5 active torsions:
REMARK  status: ('A' for Active; 'I' for Inactive)
REMARK    1  A    between atoms: C2_2  and  O1_3
REMARK    2  A    between atoms: O1_3  and  C3_4
REMARK    3  A    between atoms: C4_5  and  O2_6
REMARK    4  A    between atoms: C5_8  and  O3_9
REMARK    5  A    between atoms: C7_13  and  N1_14
ROOT
HETATM    1  C3  UNL     1      -4.661   1.245  12.446  1.00  0.00     0.209 C
HETATM    2  C4  UNL     1      -3.818   1.716  11.265  1.00  0.00     0.182 C
HETATM    3  C5  UNL     1      -4.350   3.095  10.898  1.00  0.00     0.173 C
HETATM    4  C6  UNL     1      -4.182   3.974  12.120  1.00  0.00     0.205 C
HETATM    5  O4  UNL     1      -5.007   3.454  13.119  1.00  0.00    -0.360 OA
HETATM    6  C7  UNL     1      -4.420   2.240  13.543  1.00  0.00     0.275 C
ENDROOT
BRANCH   6   7
HETATM    7  N1  UNL     1      -4.965   1.836  14.804  1.00  0.00    -0.272 N
HETATM    8  C8  UNL     1      -5.855   2.524  15.536  1.00  0.00     0.114 A
HETATM    9  C9  UNL     1      -6.151   1.830  16.688  1.00  0.00     0.037 A
HETATM   10  C10 UNL     1      -5.398   0.678  16.629  1.00  0.00     0.108 A
HETATM   11  N2  UNL     1      -4.707   0.735  15.480  1.00  0.00    -0.308 N
ATOM     12  H2  UNL     1      -4.058   0.012  15.168  1.00  0.00     0.186 HD
ENDBRANCH   6   7
BRANCH   1  13
HETATM   13  O1  UNL     1      -4.255  -0.063  12.799  1.00  0.00    -0.351 OA
BRANCH  13  14
HETATM   14  C2  UNL     1      -4.264  -1.032  11.807  1.00  0.00     0.125 C
HETATM   15  C1  UNL     1      -3.236  -1.803  11.531  1.00  0.00     0.037 C
ENDBRANCH  13  14
ENDBRANCH   1  13
BRANCH   2  16
HETATM   16  O2  UNL     1      -2.499   1.878  11.673  1.00  0.00    -0.390 OA
ATOM     17  H2  UNL     1      -2.108   2.602  11.200  1.00  0.00     0.210 HD
ENDBRANCH   2  16
BRANCH   3  18
HETATM   18  O3  UNL     1      -3.718   3.621   9.793  1.00  0.00    -0.391 OA
ATOM     19  H3  UNL     1      -4.211   3.477   8.994  1.00  0.00     0.210 HD
ENDBRANCH   3  18
TORSDOF 5
ENDMDL