MODEL 3
REMARK VINA RESULT: -5.806035058      1.919      3.588
REMARK  4 active torsions:
REMARK  status: ('A' for Active; 'I' for Inactive)
REMARK    1  A    between atoms: C7_11  and  C8_12
REMARK    2  A    between atoms: C7_11  and  C9_15
REMARK    3  A    between atoms: C8_12  and  O5_13
REMARK    4  A    between atoms: C9_15  and  O6_16
ROOT
HETATM    1  O1  UNL     1      -4.182   1.100  11.769  1.00  0.00    -0.262 OA
HETATM    2  C1  UNL     1      -4.117   1.704  12.901  1.00  0.00     0.298 C
HETATM    3  O2  UNL     1      -3.987   1.170  14.113  1.00  0.00    -0.315 OA
HETATM    4  C2  UNL     1      -4.564   0.486  15.103  1.00  0.00     0.206 C
HETATM    5  C3  UNL     1      -4.507   1.043  16.490  1.00  0.00    -0.002 C
HETATM    6  C4  UNL     1      -5.363   1.956  16.941  1.00  0.00    -0.003 C
HETATM    7  C5  UNL     1      -6.454   2.482  16.048  1.00  0.00     0.197 C
HETATM    8  O3  UNL     1      -5.886   3.465  15.241  1.00  0.00    -0.363 OA
HETATM    9  C6  UNL     1      -6.250   3.406  13.940  1.00  0.00     0.340 C
HETATM   10  O4  UNL     1      -5.409   3.731  12.983  1.00  0.00    -0.341 OA
HETATM   11  C7  UNL     1      -4.202   3.199  12.767  1.00  0.00     0.192 C
ENDROOT
BRANCH  11  12
HETATM   12  C8  UNL     1      -3.045   3.880  13.454  1.00  0.00     0.215 C
BRANCH  12  13
HETATM   13  O5  UNL     1      -2.967   3.747  14.795  1.00  0.00    -0.397 OA
ATOM     14  H5  UNL     1      -3.567   3.134  15.201  1.00  0.00     0.209 HD
ENDBRANCH  12  13
ENDBRANCH  11  12
BRANCH  11  15
HETATM   15  C9  UNL     1      -3.935   3.622  11.294  1.00  0.00     0.215 C
BRANCH  15  16
HETATM   16  O6  UNL     1      -5.108   3.353  10.597  1.00  0.00    -0.397 OA
ATOM     17  H6  UNL     1      -4.977   3.695   9.720  1.00  0.00     0.209 HD
ENDBRANCH  15  16
ENDBRANCH  11  15
TORSDOF 4
ENDMDL