MODEL 4
REMARK VINA RESULT: -5.622616997      2.513      4.912
REMARK  4 active torsions:
REMARK  status: ('A' for Active; 'I' for Inactive)
REMARK    1  A    between atoms: O1_2  and  C2_3
REMARK    2  A    between atoms: C3_4  and  O2_5
REMARK    3  A    between atoms: C6_10  and  N1_11
REMARK    4  A    between atoms: C10_17  and  O4_18
ROOT
HETATM    1  C2  UNL     1      -4.381   4.236  11.739  1.00  0.00     0.183 C
HETATM    2  C3  UNL     1      -3.390   3.520  10.887  1.00  0.00     0.181 C
HETATM    3  C4  UNL     1      -3.447   2.045  10.929  1.00  0.00     0.184 A
HETATM    4  O3  UNL     1      -2.613   1.515  12.012  1.00  0.00    -0.370 OA
HETATM    5  C5  UNL     1      -4.004   1.379  12.026  1.00  0.00     0.179 A
HETATM    6  C6  UNL     1      -4.835   2.085  13.023  1.00  0.00     0.153 C
HETATM    7  C10 UNL     1      -4.853   3.570  12.958  1.00  0.00     0.175 C
ENDROOT
BRANCH   6   8
HETATM    8  N1  UNL     1      -4.628   1.595  14.397  1.00  0.00    -0.342 N
HETATM    9  C7  UNL     1      -4.534   2.303  15.532  1.00  0.00     0.109 A
HETATM   10  C8  UNL     1      -4.342   1.459  16.600  1.00  0.00     0.106 A
HETATM   11  N2  UNL     1      -4.318   0.213  16.095  1.00  0.00    -0.361 N
HETATM   12  C9  UNL     1      -4.491   0.294  14.763  1.00  0.00     0.183 A
ATOM     13  H2  UNL     1      -4.190  -0.646  16.630  1.00  0.00     0.166 HD
ENDBRANCH   6   8
BRANCH   7  14
HETATM   14  O4  UNL     1      -6.117   4.080  13.292  1.00  0.00    -0.391 OA
ATOM     15  H4  UNL     1      -6.774   3.423  13.095  1.00  0.00     0.210 HD
ENDBRANCH   7  14
BRANCH   1  16
HETATM   16  O1  UNL     1      -3.811   5.466  12.080  1.00  0.00    -0.385 OA
HETATM   17  C1  UNL     1      -2.700   5.343  12.888  1.00  0.00     0.202 C
ENDBRANCH   1  16
BRANCH   2  18
HETATM   18  O2  UNL     1      -3.551   3.899   9.529  1.00  0.00    -0.390 OA
ATOM     19  H2  UNL     1      -2.748   3.734   9.048  1.00  0.00     0.210 HD
ENDBRANCH   2  18
TORSDOF 4
ENDMDL