MODEL 2
REMARK VINA RESULT: -6.463408154      1.759      4.710
REMARK  5 active torsions:
REMARK  status: ('A' for Active; 'I' for Inactive)
REMARK    1  A    between atoms: C2_2  and  O1_3
REMARK    2  A    between atoms: C2_2  and  C3_5
REMARK    3  A    between atoms: C3_5  and  O2_6
REMARK    4  A    between atoms: C3_5  and  C4_8
REMARK    5  A    between atoms: C7_13  and  O5_14
ROOT
HETATM    1  C4  UNL     1      -3.986   1.084  12.712  1.00  0.00     0.182 C
HETATM    2  C5  UNL     1      -4.145   2.494  12.405  1.00  0.00     0.206 C
HETATM    3  O3  UNL     1      -5.231   3.211  12.677  1.00  0.00    -0.353 OA
HETATM    4  C6  UNL     1      -5.954   3.100  13.769  1.00  0.00     0.330 A
HETATM    5  O4  UNL     1      -6.350   3.985  14.708  1.00  0.00    -0.311 OA
HETATM    6  C7  UNL     1      -5.183   3.442  15.065  1.00  0.00     0.237 A
HETATM    7  C8  UNL     1      -4.949   2.120  15.687  1.00  0.00     0.070 C
HETATM    8  C9  UNL     1      -4.661   0.931  15.190  1.00  0.00     0.137 C
HETATM    9  O6  UNL     1      -4.481   0.524  13.876  1.00  0.00    -0.353 OA
ENDROOT
BRANCH   1  10
HETATM   10  C3  UNL     1      -4.500   0.192  11.566  1.00  0.00     0.178 C
BRANCH  10  11
HETATM   11  C2  UNL     1      -3.372  -0.437  10.809  1.00  0.00     0.145 C
HETATM   12  C1  UNL     1      -3.225  -1.858  11.312  1.00  0.00     0.042 C
BRANCH  11  13
HETATM   13  O1  UNL     1      -3.655  -0.502   9.448  1.00  0.00    -0.393 OA
ATOM     14  H1  UNL     1      -2.861  -0.775   9.004  1.00  0.00     0.210 HD
ENDBRANCH  11  13
ENDBRANCH  10  11
BRANCH  10  15
HETATM   15  O2  UNL     1      -5.290   0.900  10.681  1.00  0.00    -0.390 OA
ATOM     16  H2  UNL     1      -4.869   1.730  10.490  1.00  0.00     0.210 HD
ENDBRANCH  10  15
ENDBRANCH   1  10
BRANCH   6  17
HETATM   17  O5  UNL     1      -3.983   4.150  14.878  1.00  0.00    -0.358 OA
ATOM     18  H5  UNL     1      -3.397   3.788  14.225  1.00  0.00     0.213 HD
ENDBRANCH   6  17
TORSDOF 5
ENDMDL