MODEL 1
REMARK VINA RESULT: -5.429500596      0.000      0.000
REMARK  3 active torsions:
REMARK  status: ('A' for Active; 'I' for Inactive)
REMARK    1  A    between atoms: O1_2  and  C2_3
REMARK    2  A    between atoms: C5_8  and  O2_9
REMARK    3  A    between atoms: C6_11  and  N2_12
ROOT
HETATM    1  C2  UNL     1      -2.418   1.690  11.581  1.00  0.00     0.085 C
HETATM    2  C3  UNL     1      -2.444   0.687  10.709  1.00  0.00     0.117 C
HETATM    3  N1  UNL     1      -3.687   0.013  10.419  1.00  0.00    -0.394 N
ATOM      4  H1  UNL     1      -3.835  -0.542   9.575  1.00  0.00     0.159 HD
HETATM    5  C4  UNL     1      -4.716   0.195  11.440  1.00  0.00     0.153 C
HETATM    6  C5  UNL     1      -4.839   1.719  11.609  1.00  0.00     0.164 C
HETATM    7  C6  UNL     1      -3.608   2.181  12.300  1.00  0.00     0.168 C
ENDROOT
BRANCH   7   8
HETATM    8  N2  UNL     1      -3.496   3.561  12.586  1.00  0.00    -0.396 N
HETATM    9  C7  UNL     1      -3.777   4.491  11.564  1.00  0.00     0.144 C
HETATM   10  C8  UNL     1      -4.838   5.520  11.972  1.00  0.00     0.187 C
HETATM   11  O3  UNL     1      -5.760   4.990  12.850  1.00  0.00    -0.388 OA
HETATM   12  C9  UNL     1      -5.224   4.543  14.031  1.00  0.00     0.187 C
HETATM   13  C10 UNL     1      -3.845   3.957  13.910  1.00  0.00     0.144 C
ENDBRANCH   7   8
BRANCH   1  14
HETATM   14  O1  UNL     1      -1.213   2.325  11.846  1.00  0.00    -0.357 OA
HETATM   15  C1  UNL     1      -0.445   2.951  10.835  1.00  0.00     0.209 C
ENDBRANCH   1  14
BRANCH   6  16
HETATM   16  O2  UNL     1      -4.982   2.213  10.314  1.00  0.00    -0.391 OA
ATOM     17  H2  UNL     1      -4.377   2.944  10.262  1.00  0.00     0.210 HD
ENDBRANCH   6  16
TORSDOF 3
ENDMDL