MODEL 3
REMARK VINA RESULT: -8.398697379      2.121      5.792
REMARK  15 active torsions:
REMARK  status: ('A' for Active; 'I' for Inactive)
REMARK    1  A    between atoms: N1_1  and  C1_4
REMARK    2  A    between atoms: C2_10  and  C3_11
REMARK    3  A    between atoms: C3_11  and  C4_13
REMARK    4  A    between atoms: C5_15  and  C6_16
REMARK    5  A    between atoms: C6_16  and  O4_17
REMARK    6  A    between atoms: C6_16  and  O5_19
REMARK    7  A    between atoms: C6_16  and  N4_21
REMARK    8  A    between atoms: N4_21  and  C7_23
REMARK    9  A    between atoms: C12_31  and  C13_32
REMARK   10  A    between atoms: C13_32  and  O9_33
REMARK   11  A    between atoms: C14_35  and  O10_36
REMARK   12  A    between atoms: C16_40  and  N5_41
REMARK   13  A    between atoms: N5_41  and  C17_43
REMARK   14  A    between atoms: C17_43  and  O12_44
REMARK   15  A    between atoms: C19_49  and  O13_50
ROOT
HETATM    1  N4  UNL     1      20.234  47.877  -8.862  1.00  0.00    -0.316 N
ATOM      2  H4  UNL     1      21.134  48.303  -9.081  1.00  0.00     0.167 HD
ENDROOT
BRANCH   1   3
HETATM    3  C6  UNL     1      19.261  47.775  -9.891  1.00  0.00     0.299 C
BRANCH   3   4
HETATM    4  C5  UNL     1      18.105  48.678  -9.600  1.00  0.00     0.141 A
HETATM    5  O3  UNL     1      18.191  49.770  -8.883  1.00  0.00    -0.300 OA
HETATM    6  C4  UNL     1      17.033  50.383  -8.777  1.00  0.00     0.161 A
HETATM    7  C19 UNL     1      16.127  49.628  -9.482  1.00  0.00     0.106 A
HETATM    8  C18 UNL     1      16.799  48.533 -10.015  1.00  0.00     0.080 A
BRANCH   6   9
HETATM    9  C3  UNL     1      16.845  51.612  -8.043  1.00  0.00     0.240 C
HETATM   10  O2  UNL     1      16.623  52.671  -8.677  1.00  0.00    -0.283 OA
BRANCH   9  11
HETATM   11  C2  UNL     1      16.899  51.699  -6.592  1.00  0.00     0.154 A
HETATM   12  C1  UNL     1      17.250  52.751  -5.775  1.00  0.00     0.154 A
HETATM   13  N2  UNL     1      17.118  52.329  -4.499  1.00  0.00    -0.224 N
HETATM   14  O1  UNL     1      16.717  51.109  -4.517  1.00  0.00    -0.155 OA
ATOM     15  H2  UNL     1      17.305  52.884  -3.664  1.00  0.00     0.198 HD
HETATM   16  N3  UNL     1      16.570  50.682  -5.729  1.00  0.00    -0.234 N
ATOM     17  H3  UNL     1      16.262  49.747  -5.999  1.00  0.00     0.197 HD
BRANCH  12  18
HETATM   18  N1  UNL     1      17.648  53.925  -6.153  1.00  0.00    -0.382 N
ATOM     19  H12 UNL     1      17.854  54.722  -5.551  1.00  0.00     0.157 HD
ATOM     20  H11 UNL     1      17.803  54.226  -7.115  1.00  0.00     0.157 HD
ENDBRANCH  12  18
ENDBRANCH   9  11
ENDBRANCH   6   9
BRANCH   7  21
HETATM   21  O13 UNL     1      14.787  49.898  -9.641  1.00  0.00    -0.358 OA
ATOM     22  H13 UNL     1      14.080  49.589  -9.086  1.00  0.00     0.217 HD
ENDBRANCH   7  21
ENDBRANCH   3   4
BRANCH   3  23
HETATM   23  O4  UNL     1      18.779  46.470  -9.969  1.00  0.00    -0.343 OA
ATOM     24  H4  UNL     1      18.979  46.134 -10.836  1.00  0.00     0.215 HD
ENDBRANCH   3  23
BRANCH   3  25
HETATM   25  O5  UNL     1      19.801  48.222 -11.103  1.00  0.00    -0.343 OA
ATOM     26  H5  UNL     1      20.739  48.280 -10.963  1.00  0.00     0.215 HD
ENDBRANCH   3  25
ENDBRANCH   1   3
BRANCH   1  27
HETATM   27  C7  UNL     1      20.005  47.403  -7.525  1.00  0.00     0.113 A
HETATM   28  C8  UNL     1      21.063  46.890  -6.804  1.00  0.00     0.131 A
HETATM   29  C9  UNL     1      20.748  46.450  -5.524  1.00  0.00     0.293 A
HETATM   30  O6  UNL     1      21.703  45.977  -4.852  1.00  0.00    -0.260 OA
HETATM   31  O7  UNL     1      19.537  46.546  -5.110  1.00  0.00    -0.255 OA
HETATM   32  C10 UNL     1      18.494  47.013  -5.721  1.00  0.00     0.189 A
HETATM   33  C11 UNL     1      17.142  47.109  -5.232  1.00  0.00     0.157 A
HETATM   34  N6  UNL     1      18.777  47.458  -6.997  1.00  0.00    -0.320 N
HETATM   35  O8  UNL     1      16.233  47.587  -6.074  1.00  0.00    -0.303 OA
HETATM   36  C16 UNL     1      16.746  46.743  -3.989  1.00  0.00     0.122 A
HETATM   37  C12 UNL     1      14.988  47.721  -5.768  1.00  0.00     0.114 A
HETATM   38  C14 UNL     1      14.504  47.375  -4.537  1.00  0.00     0.150 A
HETATM   39  C15 UNL     1      15.410  46.866  -3.602  1.00  0.00     0.236 A
HETATM   40  O11 UNL     1      14.942  46.564  -2.497  1.00  0.00    -0.283 OA
ATOM     41  H6  UNL     1      18.018  47.842  -7.561  1.00  0.00     0.169 HD
BRANCH  37  42
HETATM   42  C13 UNL     1      14.031  48.261  -6.763  1.00  0.00     0.232 C
BRANCH  42  43
HETATM   43  O9  UNL     1      13.974  49.641  -6.636  1.00  0.00    -0.394 OA
ATOM     44  H9  UNL     1      13.393  49.992  -7.300  1.00  0.00     0.209 HD
ENDBRANCH  42  43
ENDBRANCH  37  42
BRANCH  38  45
HETATM   45  O10 UNL     1      13.168  47.521  -4.217  1.00  0.00    -0.355 OA
ATOM     46  H10 UNL     1      12.815  47.200  -3.395  1.00  0.00     0.218 HD
ENDBRANCH  38  45
BRANCH  36  47
HETATM   47  N5  UNL     1      17.657  46.277  -3.006  1.00  0.00    -0.363 N
ATOM     48  H5  UNL     1      17.908  45.289  -3.038  1.00  0.00     0.162 HD
BRANCH  47  49
HETATM   49  C17 UNL     1      18.261  47.073  -1.964  1.00  0.00     0.287 C
BRANCH  49  50
HETATM   50  O12 UNL     1      19.133  48.039  -2.445  1.00  0.00    -0.382 OA
ATOM     51  H12 UNL     1      19.976  48.039  -2.006  1.00  0.00     0.211 HD
ENDBRANCH  49  50
ENDBRANCH  47  49
ENDBRANCH  36  47
ENDBRANCH   1  27
TORSDOF 15
ENDMDL