MODEL 4
REMARK VINA RESULT: -8.485871487      2.977      5.205
REMARK  13 active torsions:
REMARK  status: ('A' for Active; 'I' for Inactive)
REMARK    1  A    between atoms: C3_9  and  C4_10
REMARK       I    between atoms: C4_10  and  N3_12
REMARK    2  A    between atoms: N3_12  and  C5_14
REMARK    3  A    between atoms: C6_15  and  O2_16
REMARK    4  A    between atoms: C7_18  and  C8_19
REMARK    5  A    between atoms: C8_19  and  O3_20
REMARK    6  A    between atoms: C8_19  and  O4_22
REMARK    7  A    between atoms: N5_26  and  C9_27
REMARK    8  A    between atoms: C9_27  and  C10_28
REMARK    9  A    between atoms: C10_28  and  C11_29
REMARK   10  A    between atoms: C10_28  and  N6_34
REMARK   11  A    between atoms: C11_29  and  O5_30
REMARK   12  A    between atoms: C11_29  and  O6_32
REMARK   13  A    between atoms: C14_40  and  O9_41
ROOT
HETATM    1  C5  UNL     1      20.459  45.529  -7.922  1.00  0.00     0.141 A
HETATM    2  C6  UNL     1      21.056  45.112  -9.092  1.00  0.00     0.127 A
HETATM    3  C7  UNL     1      20.626  45.713 -10.265  1.00  0.00     0.116 A
HETATM    4  N4  UNL     1      19.666  46.655 -10.204  1.00  0.00    -0.292 N
ATOM      5  H4  UNL     1      19.365  47.084 -11.079  1.00  0.00     0.187 HD
HETATM    6  N5  UNL     1      19.091  47.060  -9.089  1.00  0.00    -0.253 N
HETATM    7  C15 UNL     1      19.486  46.496  -7.934  1.00  0.00     0.291 A
HETATM    8  O10 UNL     1      18.983  46.829  -6.823  1.00  0.00    -0.264 OA
ENDROOT
BRANCH   6   9
HETATM    9  C9  UNL     1      18.095  48.079  -9.118  1.00  0.00     0.185 C
BRANCH   9  10
HETATM   10  C10 UNL     1      18.483  49.446  -8.745  1.00  0.00     0.192 C
BRANCH  10  11
HETATM   11  C11 UNL     1      17.430  50.304  -8.106  1.00  0.00     0.280 C
BRANCH  11  12
HETATM   12  O5  UNL     1      17.733  51.624  -7.946  1.00  0.00    -0.369 OA
ATOM     13  H5  UNL     1      17.536  52.006  -7.099  1.00  0.00     0.212 HD
ENDBRANCH  11  12
BRANCH  11  14
HETATM   14  O6  UNL     1      16.256  50.217  -8.892  1.00  0.00    -0.369 OA
ATOM     15  H6  UNL     1      15.719  50.977  -8.704  1.00  0.00     0.212 HD
ENDBRANCH  11  14
ENDBRANCH  10  11
BRANCH  10  16
HETATM   16  N6  UNL     1      18.953  50.164  -9.910  1.00  0.00    -0.214 N
HETATM   17  O7  UNL     1      18.184  50.939 -10.651  1.00  0.00    -0.189 OA
HETATM   18  C12 UNL     1      18.824  51.468 -11.629  1.00  0.00     0.334 A
HETATM   19  O8  UNL     1      18.358  52.252 -12.503  1.00  0.00    -0.256 OA
HETATM   20  C13 UNL     1      20.115  51.035 -11.563  1.00  0.00     0.175 A
HETATM   21  N7  UNL     1      21.178  51.355 -12.428  1.00  0.00    -0.091 NA
HETATM   22  C14 UNL     1      20.160  50.197 -10.444  1.00  0.00     0.194 A
BRANCH  22  23
HETATM   23  O9  UNL     1      21.351  49.582 -10.089  1.00  0.00    -0.343 OA
ATOM     24  H9  UNL     1      21.883  48.925 -10.523  1.00  0.00     0.219 HD
ENDBRANCH  22  23
ENDBRANCH  10  16
ENDBRANCH   9  10
ENDBRANCH   6   9
BRANCH   3  25
HETATM   25  C8  UNL     1      21.248  45.287 -11.542  1.00  0.00     0.309 C
BRANCH  25  26
HETATM   26  O3  UNL     1      21.013  46.204 -12.563  1.00  0.00    -0.366 OA
ATOM     27  H3  UNL     1      20.087  46.395 -12.661  1.00  0.00     0.213 HD
ENDBRANCH  25  26
BRANCH  25  28
HETATM   28  O4  UNL     1      20.800  44.011 -11.873  1.00  0.00    -0.366 OA
ATOM     29  H4  UNL     1      20.064  44.079 -12.470  1.00  0.00     0.213 HD
ENDBRANCH  25  28
ENDBRANCH   3  25
BRANCH   1  30
HETATM   30  N3  UNL     1      20.911  44.899  -6.708  1.00  0.00    -0.316 N
HETATM   31  C4  UNL     1      20.469  43.619  -6.434  1.00  0.00     0.261 C
HETATM   32  O1  UNL     1      19.686  43.115  -7.307  1.00  0.00    -0.267 OA
ATOM     33  H3  UNL     1      21.540  45.385  -6.069  1.00  0.00     0.169 HD
BRANCH  31  34
HETATM   34  C3  UNL     1      20.803  42.778  -5.248  1.00  0.00     0.097 A
HETATM   35  C1  UNL     1      21.687  41.745  -5.337  1.00  0.00     0.092 A
HETATM   36  N1  UNL     1      22.339  41.362  -6.427  1.00  0.00    -0.392 N
HETATM   37  S1  UNL     1      21.971  40.867  -3.887  1.00  0.00    -0.033 SA
ATOM     38  H12 UNL     1      23.000  40.589  -6.493  1.00  0.00     0.156 HD
ATOM     39  H11 UNL     1      22.170  41.883  -7.288  1.00  0.00     0.156 HD
HETATM   40  S2  UNL     1      20.687  41.995  -2.753  1.00  0.00    -0.035 SA
HETATM   41  C2  UNL     1      20.226  43.023  -4.025  1.00  0.00     0.112 A
HETATM   42  N2  UNL     1      19.258  44.102  -3.791  1.00  0.00    -0.093 NA
ENDBRANCH  31  34
ENDBRANCH   1  30
BRANCH   2  43
HETATM   43  O2  UNL     1      22.056  44.123  -9.114  1.00  0.00    -0.356 OA
ATOM     44  H2  UNL     1      22.909  44.274  -9.502  1.00  0.00     0.218 HD
ENDBRANCH   2  43
TORSDOF 13
ENDMDL