MODEL 1
REMARK VINA RESULT: -8.327739394      0.000      0.000
REMARK  18 active torsions:
REMARK  status: ('A' for Active; 'I' for Inactive)
REMARK    1  A    between atoms: N1_1  and  C1_4
REMARK    2  A    between atoms: C2_7  and  C3_8
REMARK    3  A    between atoms: C3_8  and  O1_9
REMARK    4  A    between atoms: C3_8  and  C4_11
REMARK    5  A    between atoms: C4_11  and  O2_12
REMARK    6  A    between atoms: C4_11  and  C5_14
REMARK    7  A    between atoms: C5_14  and  O3_15
REMARK    8  A    between atoms: C5_14  and  C6_17
REMARK    9  A    between atoms: C6_17  and  O4_18
REMARK   10  A    between atoms: C7_20  and  O5_21
REMARK   11  A    between atoms: C8_23  and  C9_24
REMARK   12  A    between atoms: N5_30  and  C11_31
REMARK   13  A    between atoms: C11_31  and  C12_32
REMARK   14  A    between atoms: C11_31  and  C15_41
REMARK   15  A    between atoms: C13_35  and  N7_36
REMARK   16  A    between atoms: N7_36  and  O6_38
REMARK   17  A    between atoms: C16_44  and  O7_45
REMARK   18  A    between atoms: C17_49  and  O8_50
ROOT
HETATM    1  C9  UNL     1      15.601  44.838  -6.173  1.00  0.00     0.168 A
HETATM    2  N3  UNL     1      16.804  44.235  -6.364  1.00  0.00    -0.168 N
ATOM      3  H3  UNL     1      17.707  44.708  -6.337  1.00  0.00     0.186 HD
HETATM    4  C10 UNL     1      16.627  42.928  -6.594  1.00  0.00     0.738 A
HETATM    5  N4  UNL     1      16.738  41.604  -6.846  1.00  0.00    -0.109 N
ATOM      6  H4  UNL     1      17.528  40.981  -7.013  1.00  0.00     0.207 HD
HETATM    7  N5  UNL     1      15.438  41.425  -6.792  1.00  0.00    -0.167 N
HETATM    8  N10 UNL     1      15.318  42.723  -6.545  1.00  0.00     0.002 N
HETATM    9  N11 UNL     1      14.711  43.866  -6.295  1.00  0.00    -0.245 N
ATOM     10  H11 UNL     1      13.702  43.984  -6.206  1.00  0.00     0.191 HD
ENDROOT
BRANCH   1  11
HETATM   11  C8  UNL     1      15.380  46.250  -5.878  1.00  0.00     0.130 A
HETATM   12  C7  UNL     1      16.368  47.195  -5.994  1.00  0.00     0.122 A
HETATM   13  C2  UNL     1      16.072  48.547  -5.692  1.00  0.00     0.093 A
HETATM   14  N2  UNL     1      14.826  48.823  -5.306  1.00  0.00    -0.190 N
HETATM   15  C1  UNL     1      13.854  47.895  -5.192  1.00  0.00     0.676 A
ATOM     16  H2  UNL     1      14.595  49.792  -5.085  1.00  0.00     0.184 HD
HETATM   17  N12 UNL     1      14.137  46.613  -5.478  1.00  0.00    -0.185 N
ATOM     18  H12 UNL     1      13.407  45.905  -5.393  1.00  0.00     0.184 HD
BRANCH  12  19
HETATM   19  O5  UNL     1      17.642  46.952  -6.382  1.00  0.00    -0.356 OA
ATOM     20  H5  UNL     1      17.770  46.157  -6.886  1.00  0.00     0.218 HD
ENDBRANCH  12  19
BRANCH  13  21
HETATM   21  C3  UNL     1      17.138  49.578  -5.804  1.00  0.00     0.202 C
BRANCH  21  22
HETATM   22  O1  UNL     1      17.670  49.553  -7.071  1.00  0.00    -0.387 OA
ATOM     23  H1  UNL     1      17.555  50.402  -7.480  1.00  0.00     0.210 HD
ENDBRANCH  21  22
BRANCH  21  24
HETATM   24  C4  UNL     1      16.524  50.928  -5.552  1.00  0.00     0.183 C
BRANCH  24  25
HETATM   25  O2  UNL     1      15.593  51.159  -6.553  1.00  0.00    -0.390 OA
ATOM     26  H2  UNL     1      15.996  51.732  -7.194  1.00  0.00     0.210 HD
ENDBRANCH  24  25
BRANCH  24  27
HETATM   27  C5  UNL     1      17.545  52.038  -5.602  1.00  0.00     0.173 C
BRANCH  27  28
HETATM   28  O3  UNL     1      17.673  52.413  -6.943  1.00  0.00    -0.391 OA
ATOM     29  H3  UNL     1      16.849  52.813  -7.198  1.00  0.00     0.210 HD
ENDBRANCH  27  28
BRANCH  27  30
HETATM   30  C6  UNL     1      17.080  53.248  -4.808  1.00  0.00     0.198 C
BRANCH  30  31
HETATM   31  O4  UNL     1      16.103  53.945  -5.502  1.00  0.00    -0.398 OA
ATOM     32  H4  UNL     1      15.297  53.983  -5.003  1.00  0.00     0.209 HD
ENDBRANCH  30  31
ENDBRANCH  27  30
ENDBRANCH  24  27
ENDBRANCH  21  24
ENDBRANCH  13  21
BRANCH  15  33
HETATM   33  N1  UNL     1      12.674  48.252  -4.815  1.00  0.00    -0.234 N
ATOM     34  H12 UNL     1      12.288  49.162  -5.070  1.00  0.00     0.174 HD
ATOM     35  H11 UNL     1      12.113  47.617  -4.247  1.00  0.00     0.174 HD
ENDBRANCH  15  33
ENDBRANCH   1  11
BRANCH   7  36
HETATM   36  C11 UNL     1      14.524  40.328  -6.921  1.00  0.00     0.229 C
BRANCH  36  37
HETATM   37  C12 UNL     1      13.556  40.399  -5.786  1.00  0.00     0.020 A
HETATM   38  N6  UNL     1      12.324  40.442  -5.573  1.00  0.00    -0.371 N
HETATM   39  C13 UNL     1      12.346  40.496  -4.177  1.00  0.00     0.208 A
ATOM     40  H6  UNL     1      11.538  40.439  -6.224  1.00  0.00     0.161 HD
HETATM   41  C14 UNL     1      13.816  40.452  -4.329  1.00  0.00     0.103 A
BRANCH  39  42
HETATM   42  N7  UNL     1      11.757  39.327  -3.589  1.00  0.00    -0.281 N
ATOM     43  H7  UNL     1      12.321  38.488  -3.458  1.00  0.00     0.189 HD
BRANCH  42  44
HETATM   44  O6  UNL     1      10.607  39.330  -3.251  1.00  0.00    -0.292 OA
ATOM     45  H6  UNL     1      10.340  38.899  -2.447  1.00  0.00     0.244 HD
ENDBRANCH  42  44
ENDBRANCH  39  42
ENDBRANCH  36  37
BRANCH  36  46
HETATM   46  C15 UNL     1      13.831  40.286  -8.212  1.00  0.00     0.096 A
HETATM   47  N8  UNL     1      13.940  39.317  -9.137  1.00  0.00    -0.320 N
HETATM   48  C16 UNL     1      13.174  39.582 -10.203  1.00  0.00     0.223 A
ATOM     49  H8  UNL     1      14.528  38.489  -9.040  1.00  0.00     0.169 HD
HETATM   50  N9  UNL     1      12.557  40.746  -9.961  1.00  0.00    -0.301 N
HETATM   51  C17 UNL     1      12.941  41.191  -8.761  1.00  0.00     0.169 A
ATOM     52  H9  UNL     1      11.903  41.214 -10.589  1.00  0.00     0.171 HD
BRANCH  48  53
HETATM   53  O7  UNL     1      13.044  38.780 -11.360  1.00  0.00    -0.332 OA
ATOM     54  H7  UNL     1      12.530  37.985 -11.439  1.00  0.00     0.221 HD
ENDBRANCH  48  53
BRANCH  51  55
HETATM   55  O8  UNL     1      12.529  42.379  -8.126  1.00  0.00    -0.344 OA
ATOM     56  H8  UNL     1      11.641  42.544  -7.830  1.00  0.00     0.219 HD
ENDBRANCH  51  55
ENDBRANCH  36  46
ENDBRANCH   7  36
TORSDOF 18
ENDMDL