MODEL 1
REMARK VINA RESULT: -9.648530023      0.000      0.000
REMARK  13 active torsions:
REMARK  status: ('A' for Active; 'I' for Inactive)
REMARK    1  A    between atoms: C2_2  and  O1_3
REMARK    2  A    between atoms: O1_3  and  C3_4
REMARK    3  A    between atoms: C3_4  and  C4_6
REMARK    4  A    between atoms: C5_7  and  C6_8
REMARK    5  A    between atoms: C7_12  and  C8_13
REMARK    6  A    between atoms: C8_13  and  O6_14
REMARK    7  A    between atoms: C8_13  and  O7_16
REMARK    8  A    between atoms: N1_20  and  C11_22
REMARK    9  A    between atoms: C11_22  and  O8_23
REMARK   10  A    between atoms: C11_22  and  N2_25
REMARK   11  A    between atoms: N2_25  and  C12_28
REMARK   12  A    between atoms: N3_29  and  C13_30
REMARK   13  A    between atoms: C19_43  and  N7_44
ROOT
HETATM    1  N2  UNL     1      16.118  48.664  -8.617  1.00  0.00     0.011 N
ATOM      2  H21 UNL     1      15.348  49.314  -8.458  1.00  0.00     0.287 HD
ATOM      3  H22 UNL     1      16.908  49.304  -8.539  1.00  0.00     0.287 HD
ENDROOT
BRANCH   1   4
HETATM    4  C11 UNL     1      16.043  48.110  -9.974  1.00  0.00     0.431 C
BRANCH   4   5
HETATM    5  N1  UNL     1      17.251  47.567 -10.402  1.00  0.00    -0.341 N
HETATM    6  C10 UNL     1      18.391  47.889 -10.769  1.00  0.00     0.053 A
HETATM    7  C4  UNL     1      18.901  49.169 -10.885  1.00  0.00     0.106 A
HETATM    8  C9  UNL     1      19.318  46.864 -11.106  1.00  0.00     0.068 A
HETATM    9  C5  UNL     1      20.226  49.375 -11.302  1.00  0.00     0.170 A
HETATM   10  O5  UNL     1      21.003  48.340 -11.591  1.00  0.00    -0.302 OA
HETATM   11  C7  UNL     1      20.586  47.114 -11.504  1.00  0.00     0.110 A
ATOM     12  H1  UNL     1      17.170  46.550 -10.419  1.00  0.00     0.164 HD
BRANCH   7  13
HETATM   13  C3  UNL     1      18.133  50.371 -10.595  1.00  0.00     0.298 C
HETATM   14  O2  UNL     1      18.014  50.720  -9.393  1.00  0.00    -0.259 OA
BRANCH  13  15
HETATM   15  O1  UNL     1      17.531  51.156 -11.541  1.00  0.00    -0.318 OA
BRANCH  15  16
HETATM   16  C2  UNL     1      17.400  52.542 -11.554  1.00  0.00     0.174 C
HETATM   17  C1  UNL     1      18.434  53.298 -12.316  1.00  0.00     0.034 C
ENDBRANCH  15  16
ENDBRANCH  13  15
ENDBRANCH   7  13
BRANCH   9  18
HETATM   18  C6  UNL     1      20.816  50.682 -11.440  1.00  0.00     0.235 C
HETATM   19  O3  UNL     1      21.022  51.422 -10.465  1.00  0.00    -0.642 OA
HETATM   20  O4  UNL     1      21.180  51.162 -12.683  1.00  0.00    -0.642 OA
ENDBRANCH   9  18
BRANCH  11  21
HETATM   21  C8  UNL     1      21.539  46.012 -11.852  1.00  0.00     0.312 C
BRANCH  21  22
HETATM   22  O6  UNL     1      22.332  45.735 -10.738  1.00  0.00    -0.365 OA
ATOM     23  H6  UNL     1      23.231  45.622 -11.024  1.00  0.00     0.213 HD
ENDBRANCH  21  22
BRANCH  21  24
HETATM   24  O7  UNL     1      22.331  46.408 -12.927  1.00  0.00    -0.365 OA
ATOM     25  H7  UNL     1      22.579  45.644 -13.434  1.00  0.00     0.213 HD
ENDBRANCH  21  24
ENDBRANCH  11  21
ENDBRANCH   4   5
BRANCH   4  26
HETATM   26  O8  UNL     1      15.774  49.226 -10.827  1.00  0.00    -0.354 OA
ATOM     27  H8  UNL     1      15.726  49.991 -10.265  1.00  0.00     0.214 HD
ENDBRANCH   4  26
ENDBRANCH   1   4
BRANCH   1  28
HETATM   28  C12 UNL     1      16.166  47.695  -7.580  1.00  0.00     0.453 C
HETATM   29  N3  UNL     1      17.535  47.705  -7.020  1.00  0.00    -0.219 N
HETATM   30  N4  UNL     1      17.942  48.740  -6.174  1.00  0.00    -0.001 NA
HETATM   31  N5  UNL     1      16.864  49.434  -5.616  1.00  0.00    -0.114 N
HETATM   32  C18 UNL     1      15.622  48.750  -5.517  1.00  0.00     0.730 A
ATOM     33  H5  UNL     1      16.966  50.396  -5.292  1.00  0.00     0.203 HD
HETATM   34  N6  UNL     1      14.651  48.781  -4.581  1.00  0.00    -0.019 N
HETATM   35  N9  UNL     1      15.250  47.870  -6.495  1.00  0.00    -0.056 N
HETATM   36  C19 UNL     1      13.686  47.922  -4.984  1.00  0.00     0.705 A
ATOM     37  H6  UNL     1      14.645  49.345  -3.731  1.00  0.00     0.203 HD
HETATM   38  N8  UNL     1      14.086  47.390  -6.148  1.00  0.00    -0.112 N
ATOM     39  H8  UNL     1      13.555  46.705  -6.687  1.00  0.00     0.206 HD
BRANCH  29  40
HETATM   40  C13 UNL     1      18.458  46.690  -7.315  1.00  0.00     0.128 A
HETATM   41  C14 UNL     1      18.152  45.346  -7.268  1.00  0.00     0.039 A
HETATM   42  C15 UNL     1      19.094  44.379  -7.566  1.00  0.00     0.027 A
HETATM   43  C16 UNL     1      20.350  44.816  -7.912  1.00  0.00     0.146 A
HETATM   44  O9  UNL     1      20.651  46.103  -7.959  1.00  0.00    -0.286 OA
HETATM   45  C17 UNL     1      19.742  47.029  -7.671  1.00  0.00     0.315 A
HETATM   46  O10 UNL     1      20.144  48.221  -7.750  1.00  0.00    -0.257 OA
ENDBRANCH  29  40
BRANCH  36  47
HETATM   47  N7  UNL     1      12.609  47.715  -4.309  1.00  0.00    -0.233 N
ATOM     48  H72 UNL     1      11.691  48.151  -4.392  1.00  0.00     0.174 HD
ATOM     49  H71 UNL     1      12.553  47.033  -3.552  1.00  0.00     0.174 HD
ENDBRANCH  36  47
ENDBRANCH   1  28
TORSDOF 13
ENDMDL