MODEL 3
REMARK VINA RESULT: -8.427491200      3.104      5.606
REMARK  13 active torsions:
REMARK  status: ('A' for Active; 'I' for Inactive)
REMARK    1  A    between atoms: C3_3  and  C4_4
REMARK    2  A    between atoms: C6_6  and  N1_7
REMARK    3  A    between atoms: N1_7  and  C7_9
REMARK    4  A    between atoms: C7_9  and  N2_10
REMARK    5  A    between atoms: C7_9  and  O1_14
REMARK    6  A    between atoms: C11_24  and  O4_25
REMARK    7  A    between atoms: O4_25  and  C12_26
REMARK    8  A    between atoms: C12_26  and  O5_27
REMARK    9  A    between atoms: C12_26  and  C13_29
REMARK   10  A    between atoms: C14_31  and  N5_32
REMARK   11  A    between atoms: N5_32  and  C15_34
REMARK   12  A    between atoms: C15_34  and  O7_37
REMARK   13  A    between atoms: C19_45  and  N8_46
ROOT
HETATM    1  C4  UNL     1      18.225  48.349  -9.832  1.00  0.00     0.085 C
HETATM    2  C5  UNL     1      19.381  49.024  -9.435  1.00  0.00     0.110 C
HETATM    3  C6  UNL     1      20.136  49.871 -10.170  1.00  0.00     0.135 C
HETATM    4  N3  UNL     1      21.045  49.021 -11.063  1.00  0.00    -0.323 N
ATOM      5  H3  UNL     1      21.777  49.338 -11.699  1.00  0.00     0.169 HD
HETATM    6  C8  UNL     1      20.649  47.748 -10.810  1.00  0.00     0.186 C
HETATM    7  C9  UNL     1      19.612  46.990 -11.275  1.00  0.00     0.267 C
HETATM    8  O2  UNL     1      19.625  45.888 -11.877  1.00  0.00    -0.280 OA
HETATM    9  C10 UNL     1      18.253  47.538 -11.031  1.00  0.00     0.241 C
HETATM   10  O3  UNL     1      17.320  47.412 -11.614  1.00  0.00    -0.283 OA
HETATM   11  N4  UNL     1      20.947  46.889  -9.732  1.00  0.00    -0.118 N
HETATM   12  C11 UNL     1      21.506  45.725 -10.064  1.00  0.00     0.257 C
HETATM   13  C14 UNL     1      20.593  47.262  -8.316  1.00  0.00     0.690 C
HETATM   14  N6  UNL     1      19.790  48.352  -8.197  1.00  0.00    -0.186 N
ATOM     15  H6  UNL     1      19.484  48.689  -7.284  1.00  0.00     0.184 HD
ENDROOT
BRANCH   1  16
HETATM   16  C3  UNL     1      17.169  48.522  -8.987  1.00  0.00     0.120 A
HETATM   17  C2  UNL     1      16.256  49.483  -8.722  1.00  0.00     0.070 A
HETATM   18  C1  UNL     1      16.107  50.758  -9.361  1.00  0.00     0.074 C
HETATM   19  N10 UNL     1      15.425  49.050  -7.734  1.00  0.00    -0.206 N
HETATM   20  C18 UNL     1      15.835  47.833  -7.407  1.00  0.00     0.266 A
HETATM   21  N9  UNL     1      14.380  49.359  -6.977  1.00  0.00    -0.122 N
HETATM   22  O8  UNL     1      16.840  47.529  -8.129  1.00  0.00    -0.274 OA
HETATM   23  N7  UNL     1      15.034  47.381  -6.434  1.00  0.00    -0.152 N
HETATM   24  C19 UNL     1      14.100  48.341  -6.147  1.00  0.00     0.694 A
ATOM     25  H7  UNL     1      15.107  46.470  -5.980  1.00  0.00     0.188 HD
ATOM     26  H9  UNL     1      13.866  50.238  -7.018  1.00  0.00     0.206 HD
BRANCH  24  27
HETATM   27  N8  UNL     1      13.161  48.259  -5.262  1.00  0.00    -0.233 N
ATOM     28  H82 UNL     1      13.151  47.721  -4.395  1.00  0.00     0.174 HD
ATOM     29  H81 UNL     1      12.258  48.731  -5.292  1.00  0.00     0.174 HD
ENDBRANCH  24  27
ENDBRANCH   1  16
BRANCH   3  30
HETATM   30  N1  UNL     1      20.285  51.197 -10.309  1.00  0.00    -0.326 N
ATOM     31  H1  UNL     1      20.513  51.722  -9.464  1.00  0.00     0.165 HD
BRANCH  30  32
HETATM   32  C7  UNL     1      20.157  51.967 -11.537  1.00  0.00     0.425 C
BRANCH  32  33
HETATM   33  N2  UNL     1      18.811  51.972 -12.047  1.00  0.00    -0.035 N
ATOM     34  H23 UNL     1      18.132  51.872 -11.293  1.00  0.00     0.279 HD
ATOM     35  H22 UNL     1      18.548  52.900 -12.380  1.00  0.00     0.279 HD
ATOM     36  H21 UNL     1      18.664  51.267 -12.769  1.00  0.00     0.279 HD
ENDBRANCH  32  33
BRANCH  32  37
HETATM   37  O1  UNL     1      21.001  51.400 -12.512  1.00  0.00    -0.355 OA
ATOM     38  H1  UNL     1      20.513  51.316 -13.323  1.00  0.00     0.213 HD
ENDBRANCH  32  37
ENDBRANCH  30  32
ENDBRANCH   3  30
BRANCH  13  39
HETATM   39  N5  UNL     1      21.096  46.492  -7.376  1.00  0.00    -0.194 N
ATOM     40  H5  UNL     1      22.082  46.256  -7.481  1.00  0.00     0.180 HD
BRANCH  39  41
HETATM   41  C15 UNL     1      20.433  45.927  -6.198  1.00  0.00     0.140 C
HETATM   42  C16 UNL     1      20.626  44.424  -6.138  1.00  0.00     0.071 C
HETATM   43  C17 UNL     1      20.973  46.515  -4.913  1.00  0.00     0.071 C
BRANCH  41  44
HETATM   44  O7  UNL     1      19.058  46.147  -6.199  1.00  0.00    -0.371 OA
ATOM     45  H7  UNL     1      18.640  45.856  -5.397  1.00  0.00     0.212 HD
ENDBRANCH  41  44
ENDBRANCH  39  41
ENDBRANCH  13  39
BRANCH  12  46
HETATM   46  O4  UNL     1      22.712  45.789 -10.815  1.00  0.00    -0.308 OA
BRANCH  46  47
HETATM   47  C12 UNL     1      22.629  45.100 -11.994  1.00  0.00     0.326 C
BRANCH  47  48
HETATM   48  O5  UNL     1      22.594  46.062 -13.024  1.00  0.00    -0.365 OA
ATOM     49  H5  UNL     1      22.242  45.628 -13.792  1.00  0.00     0.213 HD
ENDBRANCH  47  48
BRANCH  47  50
HETATM   50  C13 UNL     1      23.764  44.215 -12.276  1.00  0.00     0.291 C
HETATM   51  O6  UNL     1      24.720  44.535 -12.955  1.00  0.00    -0.302 OA
ENDBRANCH  47  50
ENDBRANCH  46  47
ENDBRANCH  12  46
TORSDOF 13
ENDMDL