MODEL 1
REMARK VINA RESULT: -8.515991256      0.000      0.000
REMARK  18 active torsions:
REMARK  status: ('A' for Active; 'I' for Inactive)
REMARK    1  A    between atoms: O1_2  and  N1_3
REMARK    2  A    between atoms: C2_4  and  C3_5
REMARK    3  A    between atoms: C3_5  and  C4_6
REMARK    4  A    between atoms: C4_6  and  O2_7
REMARK    5  A    between atoms: C4_6  and  O3_9
REMARK    6  A    between atoms: C5_11  and  O4_12
REMARK    7  A    between atoms: N2_14  and  C6_15
REMARK    8  A    between atoms: C6_15  and  O5_16
REMARK    9  A    between atoms: C6_15  and  C7_18
REMARK   10  A    between atoms: C7_18  and  O6_19
REMARK   11  A    between atoms: O6_19  and  C8_20
REMARK   12  A    between atoms: C8_20  and  N4_24
REMARK   13  A    between atoms: N4_24  and  S1_26
REMARK   14  A    between atoms: S1_26  and  N5_27
REMARK   15  A    between atoms: C11_31  and  O8_32
REMARK   16  A    between atoms: C12_34  and  O9_35
REMARK   17  A    between atoms: C13_37  and  O10_38
REMARK   18  A    between atoms: C14_40  and  O11_41
ROOT
HETATM    1  C8  UNL     1      21.060  46.836  -8.630  1.00  0.00     0.224 C
HETATM    2  N3  UNL     1      21.108  47.066  -7.338  1.00  0.00    -0.365 N
ATOM      3  H31 UNL     1      20.751  46.304  -6.761  1.00  0.00     0.159 HD
ATOM      4  H32 UNL     1      21.479  47.949  -6.987  1.00  0.00     0.159 HD
ENDROOT
BRANCH   1   5
HETATM    5  O6  UNL     1      21.545  47.870  -9.412  1.00  0.00    -0.318 OA
BRANCH   5   6
HETATM    6  C7  UNL     1      20.769  49.075  -9.594  1.00  0.00     0.233 C
BRANCH   6   7
HETATM    7  C6  UNL     1      20.305  49.086 -11.021  1.00  0.00     0.256 C
BRANCH   7   8
HETATM    8  N2  UNL     1      19.486  50.225 -11.274  1.00  0.00    -0.246 N
HETATM    9  C5  UNL     1      18.181  50.328 -11.045  1.00  0.00     0.174 A
HETATM   10  C2  UNL     1      17.797  51.591 -11.448  1.00  0.00     0.101 A
HETATM   11  N1  UNL     1      18.905  52.194 -11.906  1.00  0.00    -0.170 N
HETATM   12  C17 UNL     1      19.956  51.390 -11.813  1.00  0.00     0.357 A
HETATM   13  O13 UNL     1      21.157  51.579 -12.132  1.00  0.00    -0.244 OA
BRANCH   9  14
HETATM   14  O4  UNL     1      17.318  49.380 -10.508  1.00  0.00    -0.344 OA
ATOM     15  H4  UNL     1      17.250  49.180  -9.581  1.00  0.00     0.219 HD
ENDBRANCH   9  14
BRANCH  10  16
HETATM   16  C3  UNL     1      16.441  52.186 -11.398  1.00  0.00     0.124 C
BRANCH  16  17
HETATM   17  C4  UNL     1      16.130  52.617  -9.962  1.00  0.00     0.259 C
BRANCH  17  18
HETATM   18  O2  UNL     1      15.532  51.546  -9.299  1.00  0.00    -0.371 OA
ATOM     19  H2  UNL     1      16.211  50.931  -9.046  1.00  0.00     0.212 HD
ENDBRANCH  17  18
BRANCH  17  20
HETATM   20  O3  UNL     1      15.219  53.686 -10.044  1.00  0.00    -0.371 OA
ATOM     21  H3  UNL     1      14.420  53.340 -10.425  1.00  0.00     0.212 HD
ENDBRANCH  17  20
ENDBRANCH  16  17
ENDBRANCH  10  16
BRANCH  11  22
HETATM   22  O1  UNL     1      18.957  53.474 -12.404  1.00  0.00    -0.274 OA
HETATM   23  C1  UNL     1      19.034  54.546 -11.473  1.00  0.00     0.238 C
ENDBRANCH  11  22
ENDBRANCH   7   8
BRANCH   7  24
HETATM   24  O5  UNL     1      19.575  47.928 -11.328  1.00  0.00    -0.374 OA
ATOM     25  H5  UNL     1      20.153  47.176 -11.266  1.00  0.00     0.212 HD
ENDBRANCH   7  24
ENDBRANCH   6   7
ENDBRANCH   5   6
ENDBRANCH   1   5
BRANCH   1  26
HETATM   26  N4  UNL     1      20.545  45.612  -9.116  1.00  0.00    -0.278 N
ATOM     27  H4  UNL     1      20.730  45.343 -10.082  1.00  0.00     0.179 HD
BRANCH  26  28
HETATM   28  S1  UNL     1      19.595  44.542  -8.095  1.00  0.00     0.083 SA
BRANCH  28  29
HETATM   29  N5  UNL     1      18.209  45.443  -7.457  1.00  0.00    -0.196 N
HETATM   30  C9  UNL     1      17.564  45.198  -6.192  1.00  0.00     0.276 A
HETATM   31  O7  UNL     1      17.952  44.295  -5.407  1.00  0.00    -0.266 OA
HETATM   32  C10 UNL     1      16.464  46.143  -6.040  1.00  0.00     0.088 A
HETATM   33  C11 UNL     1      15.538  46.343  -5.036  1.00  0.00     0.118 A
HETATM   34  C15 UNL     1      16.403  46.962  -7.159  1.00  0.00     0.088 A
HETATM   35  C12 UNL     1      14.569  47.343  -5.146  1.00  0.00     0.136 A
HETATM   36  C13 UNL     1      14.516  48.150  -6.258  1.00  0.00     0.136 A
HETATM   37  C14 UNL     1      15.438  47.956  -7.266  1.00  0.00     0.118 A
HETATM   38  C16 UNL     1      17.491  46.518  -8.030  1.00  0.00     0.276 A
HETATM   39  O12 UNL     1      17.752  47.031  -9.148  1.00  0.00    -0.266 OA
BRANCH  33  40
HETATM   40  O8  UNL     1      15.566  45.553  -3.915  1.00  0.00    -0.357 OA
ATOM     41  H8  UNL     1      14.796  45.491  -3.361  1.00  0.00     0.217 HD
ENDBRANCH  33  40
BRANCH  35  42
HETATM   42  O9  UNL     1      13.637  47.531  -4.108  1.00  0.00    -0.356 OA
ATOM     43  H9  UNL     1      12.750  47.208  -4.207  1.00  0.00     0.218 HD
ENDBRANCH  35  42
BRANCH  36  44
HETATM   44  O10 UNL     1      13.535  49.144  -6.344  1.00  0.00    -0.356 OA
ATOM     45  H10 UNL     1      13.429  49.762  -5.629  1.00  0.00     0.218 HD
ENDBRANCH  36  44
BRANCH  37  46
HETATM   46  O11 UNL     1      15.397  48.750  -8.374  1.00  0.00    -0.357 OA
ATOM     47  H11 UNL     1      14.791  48.542  -9.075  1.00  0.00     0.217 HD
ENDBRANCH  37  46
ENDBRANCH  28  29
ENDBRANCH  26  28
ENDBRANCH   1  26
TORSDOF 18
ENDMDL