MODEL 2
REMARK VINA RESULT: -7.827415791      3.052      5.635
REMARK  16 active torsions:
REMARK  status: ('A' for Active; 'I' for Inactive)
REMARK    1  A    between atoms: C2_2  and  O1_3
REMARK    2  A    between atoms: C2_2  and  N1_5
REMARK    3  A    between atoms: C2_2  and  C8_22
REMARK    4  A    between atoms: N1_5  and  C3_8
REMARK    5  A    between atoms: C3_8  and  C4_9
REMARK    6  A    between atoms: C4_9  and  C5_10
REMARK    7  A    between atoms: N3_13  and  C6_14
REMARK    8  A    between atoms: C6_14  and  C7_15
REMARK    9  A    between atoms: C7_15  and  N4_16
REMARK   10  A    between atoms: C10_28  and  C11_29
REMARK   11  A    between atoms: C11_29  and  O2_30
REMARK   12  A    between atoms: C11_29  and  C12_32
REMARK   13  A    between atoms: C12_32  and  O3_33
REMARK   14  A    between atoms: C15_41  and  O4_42
REMARK   15  A    between atoms: C18_47  and  O5_48
REMARK   16  A    between atoms: C20_52  and  O7_53
ROOT
HETATM    1  C8  UNL     1      17.674  47.059  -4.503  1.00  0.00     0.123 C
HETATM    2  N6  UNL     1      16.877  46.584  -5.418  1.00  0.00    -0.280 N
ATOM      3  H6  UNL     1      16.132  46.024  -5.004  1.00  0.00     0.184 HD
HETATM    4  N7  UNL     1      16.763  46.630  -6.777  1.00  0.00    -0.011 NA
HETATM    5  N8  UNL     1      16.870  47.927  -7.292  1.00  0.00    -0.198 N
HETATM    6  C9  UNL     1      16.301  48.892  -6.556  1.00  0.00     0.113 A
HETATM    7  C10 UNL     1      15.280  48.747  -5.619  1.00  0.00     0.073 C
HETATM    8  N9  UNL     1      15.626  48.905  -4.222  1.00  0.00    -0.339 N
ATOM      9  H9  UNL     1      14.984  48.698  -3.457  1.00  0.00     0.167 HD
HETATM   10  C13 UNL     1      16.946  49.374  -4.025  1.00  0.00     0.143 C
HETATM   11  N10 UNL     1      17.348  50.653  -3.977  1.00  0.00    -0.324 N
ATOM     12  H10 UNL     1      17.739  50.967  -3.089  1.00  0.00     0.169 HD
HETATM   13  C14 UNL     1      17.294  51.618  -5.008  1.00  0.00     0.149 A
HETATM   14  C15 UNL     1      17.419  52.886  -5.371  1.00  0.00     0.126 A
HETATM   15  C16 UNL     1      17.198  52.651  -6.746  1.00  0.00     0.139 A
HETATM   16  N11 UNL     1      17.064  51.412  -6.463  1.00  0.00    -0.298 N
HETATM   17  C17 UNL     1      16.899  50.161  -7.030  1.00  0.00     0.110 A
HETATM   18  C18 UNL     1      17.761  49.855  -8.059  1.00  0.00     0.166 A
HETATM   19  C19 UNL     1      17.707  48.458  -8.178  1.00  0.00     0.301 A
HETATM   20  O6  UNL     1      18.387  47.846  -9.035  1.00  0.00    -0.263 OA
HETATM   21  C20 UNL     1      17.847  48.387  -4.024  1.00  0.00     0.139 C
ENDROOT
BRANCH   1  22
HETATM   22  C2  UNL     1      18.611  46.127  -3.709  1.00  0.00     0.267 C
HETATM   23  C1  UNL     1      18.206  46.019  -2.277  1.00  0.00     0.086 C
BRANCH  22  24
HETATM   24  O1  UNL     1      18.582  44.845  -4.251  1.00  0.00    -0.360 OA
ATOM     25  H1  UNL     1      19.480  44.547  -4.330  1.00  0.00     0.213 HD
ENDBRANCH  22  24
BRANCH  22  26
HETATM   26  N1  UNL     1      19.967  46.589  -3.752  1.00  0.00    -0.037 N
ATOM     27  H12 UNL     1      19.995  47.580  -3.993  1.00  0.00     0.281 HD
ATOM     28  H11 UNL     1      20.358  46.624  -2.811  1.00  0.00     0.281 HD
BRANCH  26  29
HETATM   29  C3  UNL     1      20.822  45.848  -4.614  1.00  0.00     0.244 C
BRANCH  29  30
HETATM   30  C4  UNL     1      21.111  46.765  -5.810  1.00  0.00     0.107 C
BRANCH  30  31
HETATM   31  C5  UNL     1      20.649  46.130  -7.046  1.00  0.00     0.114 A
HETATM   32  N2  UNL     1      21.060  46.080  -8.325  1.00  0.00    -0.271 N
HETATM   33  N3  UNL     1      20.042  45.305  -8.642  1.00  0.00    -0.230 N
ATOM     34  H2  UNL     1      21.844  46.480  -8.842  1.00  0.00     0.190 HD
HETATM   35  N5  UNL     1      19.627  45.349  -7.380  1.00  0.00    -0.271 N
ATOM     36  H5  UNL     1      18.840  44.945  -6.872  1.00  0.00     0.190 HD
BRANCH  33  37
HETATM   37  C6  UNL     1      19.547  44.655  -9.838  1.00  0.00     0.196 C
BRANCH  37  38
HETATM   38  C7  UNL     1      20.451  43.485 -10.157  1.00  0.00     0.253 C
BRANCH  38  39
HETATM   39  N4  UNL     1      20.721  43.487 -11.594  1.00  0.00    -0.078 N
ATOM     40  H43 UNL     1      21.622  43.908 -11.822  1.00  0.00     0.274 HD
ATOM     41  H42 UNL     1      20.908  42.553 -11.958  1.00  0.00     0.274 HD
ATOM     42  H41 UNL     1      19.943  43.944 -12.068  1.00  0.00     0.274 HD
ENDBRANCH  38  39
ENDBRANCH  37  38
ENDBRANCH  33  37
ENDBRANCH  30  31
ENDBRANCH  29  30
ENDBRANCH  26  29
ENDBRANCH  22  26
ENDBRANCH   1  22
BRANCH  21  43
HETATM   43  O7  UNL     1      19.102  48.703  -3.494  1.00  0.00    -0.355 OA
ATOM     44  H7  UNL     1      19.127  49.396  -2.844  1.00  0.00     0.218 HD
ENDBRANCH  21  43
BRANCH   7  45
HETATM   45  C11 UNL     1      13.854  48.506  -5.813  1.00  0.00     0.193 C
BRANCH  45  46
HETATM   46  O2  UNL     1      13.458  48.056  -7.054  1.00  0.00    -0.387 OA
ATOM     47  H2  UNL     1      14.139  47.743  -7.637  1.00  0.00     0.210 HD
ENDBRANCH  45  46
BRANCH  45  48
HETATM   48  C12 UNL     1      13.483  47.362  -4.849  1.00  0.00     0.202 C
BRANCH  48  49
HETATM   49  O3  UNL     1      14.051  46.184  -5.252  1.00  0.00    -0.398 OA
ATOM     50  H3  UNL     1      13.436  45.669  -5.761  1.00  0.00     0.209 HD
ENDBRANCH  48  49
ENDBRANCH  45  48
ENDBRANCH   7  45
BRANCH  18  51
HETATM   51  O5  UNL     1      18.462  50.808  -8.738  1.00  0.00    -0.354 OA
ATOM     52  H5  UNL     1      18.105  51.669  -8.924  1.00  0.00     0.218 HD
ENDBRANCH  18  51
BRANCH  14  53
HETATM   53  O4  UNL     1      17.674  54.032  -4.648  1.00  0.00    -0.356 OA
ATOM     54  H4  UNL     1      18.071  54.860  -4.889  1.00  0.00     0.218 HD
ENDBRANCH  14  53
TORSDOF 16
ENDMDL