MODEL 5
REMARK VINA RESULT: -8.835968415      2.512      5.817
REMARK  14 active torsions:
REMARK  status: ('A' for Active; 'I' for Inactive)
REMARK    1  A    between atoms: O1_2  and  C2_3
REMARK    2  A    between atoms: C6_14  and  C7_15
REMARK       I    between atoms: C7_15  and  N6_17
REMARK    3  A    between atoms: N6_17  and  C8_19
REMARK    4  A    between atoms: C9_20  and  C10_21
REMARK    5  A    between atoms: C10_21  and  O3_22
REMARK    6  A    between atoms: C10_21  and  O4_24
REMARK    7  A    between atoms: C11_29  and  C12_30
REMARK    8  A    between atoms: C13_31  and  C14_32
REMARK    9  A    between atoms: C14_32  and  O6_33
REMARK   10  A    between atoms: C14_32  and  O7_35
REMARK   11  A    between atoms: C15_38  and  C16_39
REMARK   12  A    between atoms: C16_39  and  O9_40
REMARK   13  A    between atoms: C16_39  and  O10_42
REMARK   14  A    between atoms: C17_44  and  O11_45
ROOT
HETATM    1  C8  UNL     1      15.897  48.334  -7.440  1.00  0.00     0.102 A
HETATM    2  C9  UNL     1      14.903  48.069  -6.472  1.00  0.00     0.116 A
HETATM    3  N7  UNL     1      14.007  49.056  -6.568  1.00  0.00    -0.258 N
ATOM      4  H7  UNL     1      13.167  49.143  -5.996  1.00  0.00     0.195 HD
HETATM    5  O5  UNL     1      14.360  49.872  -7.482  1.00  0.00    -0.234 OA
HETATM    6  C11 UNL     1      15.526  49.469  -8.056  1.00  0.00     0.144 A
ENDROOT
BRANCH   6   7
HETATM    7  C12 UNL     1      16.153  50.221  -9.119  1.00  0.00     0.090 A
HETATM    8  C13 UNL     1      16.730  51.460  -8.843  1.00  0.00     0.125 A
HETATM    9  O8  UNL     1      17.212  52.232  -9.812  1.00  0.00    -0.305 OA
HETATM   10  C15 UNL     1      17.210  51.942 -11.080  1.00  0.00     0.144 A
HETATM   11  C17 UNL     1      16.664  50.745 -11.437  1.00  0.00     0.152 A
HETATM   12  C18 UNL     1      16.133  49.884 -10.446  1.00  0.00     0.223 A
HETATM   13  O12 UNL     1      15.642  48.802 -10.857  1.00  0.00    -0.284 OA
BRANCH   8  14
HETATM   14  C14 UNL     1      16.855  51.998  -7.459  1.00  0.00     0.313 C
BRANCH  14  15
HETATM   15  O6  UNL     1      17.820  51.129  -6.841  1.00  0.00    -0.365 OA
ATOM     16  H6  UNL     1      17.589  51.154  -5.919  1.00  0.00     0.213 HD
ENDBRANCH  14  15
BRANCH  14  17
HETATM   17  O7  UNL     1      17.376  53.261  -7.400  1.00  0.00    -0.365 OA
ATOM     18  H7  UNL     1      16.846  53.917  -7.838  1.00  0.00     0.213 HD
ENDBRANCH  14  17
ENDBRANCH   8  14
BRANCH  10  19
HETATM   19  C16 UNL     1      17.794  52.911 -12.084  1.00  0.00     0.315 C
BRANCH  19  20
HETATM   20  O9  UNL     1      16.753  53.053 -13.039  1.00  0.00    -0.365 OA
ATOM     21  H9  UNL     1      17.021  53.815 -13.539  1.00  0.00     0.213 HD
ENDBRANCH  19  20
BRANCH  19  22
HETATM   22  O10 UNL     1      18.872  52.372 -12.747  1.00  0.00    -0.365 OA
ATOM     23  H10 UNL     1      19.379  53.039 -13.197  1.00  0.00     0.213 HD
ENDBRANCH  19  22
ENDBRANCH  10  19
BRANCH  11  24
HETATM   24  O11 UNL     1      16.612  50.343 -12.758  1.00  0.00    -0.355 OA
ATOM     25  H11 UNL     1      15.852  49.893 -13.110  1.00  0.00     0.218 HD
ENDBRANCH  11  24
ENDBRANCH   6   7
BRANCH   1  26
HETATM   26  N6  UNL     1      17.003  47.494  -7.546  1.00  0.00    -0.321 N
HETATM   27  C7  UNL     1      18.184  47.659  -6.727  1.00  0.00     0.249 C
HETATM   28  O2  UNL     1      18.156  48.612  -5.908  1.00  0.00    -0.271 OA
ATOM     29  H6  UNL     1      16.979  46.734  -8.226  1.00  0.00     0.169 HD
BRANCH  27  30
HETATM   30  C6  UNL     1      19.360  46.774  -6.831  1.00  0.00     0.242 C
HETATM   31  C3  UNL     1      19.622  46.362  -8.212  1.00  0.00     0.088 A
HETATM   32  N1  UNL     1      20.045  47.025  -9.298  1.00  0.00    -0.320 N
HETATM   33  C4  UNL     1      19.433  45.055  -8.586  1.00  0.00     0.148 A
HETATM   34  C2  UNL     1      20.130  46.187 -10.347  1.00  0.00     0.227 A
ATOM     35  H1  UNL     1      20.271  48.019  -9.325  1.00  0.00     0.169 HD
HETATM   36  N2  UNL     1      19.750  44.985  -9.888  1.00  0.00    -0.301 N
HETATM   37  C5  UNL     1      19.686  43.772 -10.676  1.00  0.00     0.161 C
HETATM   38  N3  UNL     1      18.976  44.132  -7.590  1.00  0.00    -0.271 N
HETATM   39  N4  UNL     1      18.351  44.674  -6.465  1.00  0.00    -0.029 NA
ATOM     40  H3  UNL     1      19.101  43.125  -7.697  1.00  0.00     0.185 HD
HETATM   41  N5  UNL     1      19.187  45.665  -5.930  1.00  0.00    -0.105 NA
BRANCH  34  42
HETATM   42  O1  UNL     1      20.536  46.573 -11.609  1.00  0.00    -0.327 OA
HETATM   43  C1  UNL     1      21.749  46.189 -12.193  1.00  0.00     0.213 C
ENDBRANCH  34  42
ENDBRANCH  27  30
ENDBRANCH   1  26
BRANCH   2  44
HETATM   44  C10 UNL     1      14.825  46.953  -5.530  1.00  0.00     0.309 C
BRANCH  44  45
HETATM   45  O3  UNL     1      13.485  46.808  -5.131  1.00  0.00    -0.366 OA
ATOM     46  H3  UNL     1      13.110  46.077  -5.608  1.00  0.00     0.213 HD
ENDBRANCH  44  45
BRANCH  44  47
HETATM   47  O4  UNL     1      15.199  45.791  -6.212  1.00  0.00    -0.366 OA
ATOM     48  H4  UNL     1      15.915  46.013  -6.794  1.00  0.00     0.213 HD
ENDBRANCH  44  47
ENDBRANCH   2  44
TORSDOF 14
ENDMDL