MODEL 1
REMARK VINA RESULT: -9.074036437      0.000      0.000
REMARK  11 active torsions:
REMARK  status: ('A' for Active; 'I' for Inactive)
REMARK    1  A    between atoms: C2_2  and  O1_3
REMARK    2  A    between atoms: C2_2  and  C3_5
REMARK    3  A    between atoms: C3_5  and  O2_6
REMARK    4  A    between atoms: C3_5  and  C4_8
REMARK    5  A    between atoms: C4_8  and  N1_10
REMARK    6  A    between atoms: C7_14  and  N2_15
REMARK    7  A    between atoms: C8_19  and  C9_20
REMARK       I    between atoms: C9_20  and  N5_22
REMARK    8  A    between atoms: N5_22  and  N6_24
REMARK    9  A    between atoms: N7_26  and  C10_28
REMARK   10  A    between atoms: C13_43  and  N14_44
REMARK   11  A    between atoms: N16_50  and  O5_51
ROOT
HETATM    1  N1  UNL     1      16.844  49.301  -4.085  1.00  0.00    -0.210 N
HETATM    2  C5  UNL     1      17.055  49.505  -5.401  1.00  0.00     0.283 A
HETATM    3  O3  UNL     1      17.168  48.657  -6.324  1.00  0.00    -0.265 OA
HETATM    4  C6  UNL     1      17.138  50.862  -5.635  1.00  0.00     0.130 A
HETATM    5  C7  UNL     1      17.343  51.590  -6.789  1.00  0.00     0.178 A
HETATM    6  N13 UNL     1      17.367  52.941  -6.645  1.00  0.00    -0.173 N
ATOM      7  H13 UNL     1      17.515  53.521  -7.471  1.00  0.00     0.186 HD
HETATM    8  C13 UNL     1      17.202  53.542  -5.454  1.00  0.00     0.679 A
HETATM    9  N15 UNL     1      17.005  52.798  -4.349  1.00  0.00    -0.172 N
ATOM     10  H15 UNL     1      16.882  53.266  -3.451  1.00  0.00     0.186 HD
HETATM   11  C14 UNL     1      16.965  51.440  -4.399  1.00  0.00     0.186 A
HETATM   12  N16 UNL     1      16.789  50.471  -3.475  1.00  0.00    -0.138 N
ENDROOT
BRANCH   5  13
HETATM   13  N2  UNL     1      17.520  50.986  -8.061  1.00  0.00    -0.160 N
HETATM   14  N3  UNL     1      16.846  51.125  -9.191  1.00  0.00     0.004 NA
HETATM   15  N4  UNL     1      17.358  50.363 -10.146  1.00  0.00    -0.262 N
HETATM   16  C8  UNL     1      18.391  49.716  -9.615  1.00  0.00     0.205 A
ATOM     17  H4  UNL     1      17.024  50.288 -11.106  1.00  0.00     0.186 HD
HETATM   18  N12 UNL     1      18.475  50.110  -8.340  1.00  0.00    -0.258 N
ATOM     19  H12 UNL     1      19.176  49.782  -7.676  1.00  0.00     0.190 HD
BRANCH  16  20
HETATM   20  C9  UNL     1      19.250  48.756 -10.341  1.00  0.00     0.307 C
HETATM   21  O4  UNL     1      20.149  49.178 -11.130  1.00  0.00    -0.262 OA
HETATM   22  N5  UNL     1      19.100  47.367 -10.182  1.00  0.00    -0.249 N
ATOM     23  H5  UNL     1      18.384  47.001  -9.554  1.00  0.00     0.192 HD
BRANCH  22  24
HETATM   24  N6  UNL     1      19.919  46.493 -10.876  1.00  0.00    -0.238 N
HETATM   25  N7  UNL     1      21.151  46.358 -10.568  1.00  0.00    -0.268 N
ATOM     26  H7  UNL     1      21.526  46.910  -9.797  1.00  0.00     0.190 HD
ATOM     27  H6  UNL     1      19.533  45.946 -11.646  1.00  0.00     0.208 HD
BRANCH  25  28
HETATM   28  C10 UNL     1      22.016  45.474 -11.256  1.00  0.00     0.178 A
HETATM   29  N8  UNL     1      23.189  45.768 -11.837  1.00  0.00    -0.172 N
HETATM   30  C11 UNL     1      23.664  44.635 -12.367  1.00  0.00     0.678 A
ATOM     31  H8  UNL     1      23.636  46.685 -11.867  1.00  0.00     0.186 HD
HETATM   32  N9  UNL     1      24.788  44.547 -13.011  1.00  0.00    -0.234 N
HETATM   33  N10 UNL     1      22.836  43.604 -12.152  1.00  0.00    -0.175 N
ATOM     34  H92 UNL     1      25.419  45.331 -13.175  1.00  0.00     0.174 HD
ATOM     35  H91 UNL     1      25.150  43.683 -13.415  1.00  0.00     0.174 HD
HETATM   36  C12 UNL     1      21.810  44.127 -11.459  1.00  0.00     0.177 A
ATOM     37  H10 UNL     1      22.957  42.636 -12.449  1.00  0.00     0.185 HD
HETATM   38  N11 UNL     1      20.690  43.348 -11.023  1.00  0.00    -0.078 NA
ENDBRANCH  25  28
ENDBRANCH  22  24
ENDBRANCH  16  20
ENDBRANCH   5  13
BRANCH   8  39
HETATM   39  N14 UNL     1      17.229  54.844  -5.334  1.00  0.00    -0.234 N
ATOM     40 2H14 UNL     1      16.766  55.409  -6.046  1.00  0.00     0.174 HD
ATOM     41 1H14 UNL     1      17.698  55.299  -4.551  1.00  0.00     0.174 HD
ENDBRANCH   8  39
BRANCH   1  42
HETATM   42  C4  UNL     1      16.704  48.024  -3.483  1.00  0.00     0.217 C
HETATM   43  S1  UNL     1      18.257  47.111  -3.771  1.00  0.00    -0.065 SA
BRANCH  42  44
HETATM   44  C3  UNL     1      15.584  47.165  -3.903  1.00  0.00     0.182 C
BRANCH  44  45
HETATM   45  C2  UNL     1      14.332  47.884  -4.327  1.00  0.00     0.145 C
HETATM   46  C1  UNL     1      13.936  47.700  -5.744  1.00  0.00     0.042 C
BRANCH  45  47
HETATM   47  O1  UNL     1      13.265  47.588  -3.479  1.00  0.00    -0.393 OA
ATOM     48  H1  UNL     1      13.335  46.697  -3.155  1.00  0.00     0.210 HD
ENDBRANCH  45  47
ENDBRANCH  44  45
BRANCH  44  49
HETATM   49  O2  UNL     1      15.868  46.219  -4.869  1.00  0.00    -0.390 OA
ATOM     50  H2  UNL     1      16.667  45.775  -4.609  1.00  0.00     0.210 HD
ENDBRANCH  44  49
ENDBRANCH  42  44
ENDBRANCH   1  42
BRANCH  12  51
HETATM   51  O5  UNL     1      16.589  50.769  -2.149  1.00  0.00    -0.266 OA
ATOM     52  H5  UNL     1      15.790  50.770  -1.635  1.00  0.00     0.247 HD
ENDBRANCH  12  51
TORSDOF 11
ENDMDL