MODEL 4
REMARK VINA RESULT: -8.527132665      1.581      2.162
REMARK  14 active torsions:
REMARK  status: ('A' for Active; 'I' for Inactive)
REMARK    1  A    between atoms: C3_4  and  N2_5
REMARK    2  A    between atoms: N2_5  and  C4_7
REMARK    3  A    between atoms: C4_7  and  O1_9
REMARK    4  A    between atoms: C4_7  and  C6_11
REMARK    5  A    between atoms: N3_13  and  C8_14
REMARK    6  A    between atoms: C9_20  and  N6_21
REMARK    7  A    between atoms: C10_24  and  O3_25
REMARK    8  A    between atoms: C11_27  and  O4_28
REMARK    9  A    between atoms: C12_30  and  C13_31
REMARK   10  A    between atoms: C14_40  and  C15_41
REMARK   11  A    between atoms: C16_45  and  C17_46
REMARK   12  A    between atoms: C17_46  and  O6_47
REMARK   13  A    between atoms: C17_46  and  C18_49
REMARK   14  A    between atoms: C18_49  and  O7_50
ROOT
HETATM    1  C1  UNL     1      20.732  45.201  -5.734  1.00  0.00     0.156 C
HETATM    2  N1  UNL     1      20.073  45.967  -6.767  1.00  0.00    -0.355 N
HETATM    3  C2  UNL     1      20.394  45.985  -8.091  1.00  0.00     0.121 A
HETATM    4  C3  UNL     1      19.538  46.839  -8.766  1.00  0.00     0.062 A
HETATM    5  C12 UNL     1      18.699  47.322  -7.780  1.00  0.00     0.069 A
HETATM    6  C14 UNL     1      19.030  46.786  -6.554  1.00  0.00     0.097 A
ENDROOT
BRANCH   4   7
HETATM    7  N2  UNL     1      19.482  47.170 -10.146  1.00  0.00    -0.353 N
ATOM      8  H2  UNL     1      18.935  46.578 -10.771  1.00  0.00     0.163 HD
BRANCH   7   9
HETATM    9  C4  UNL     1      20.179  48.326 -10.704  1.00  0.00     0.161 C
HETATM   10  C5  UNL     1      21.274  48.842  -9.835  1.00  0.00     0.077 C
BRANCH   9  11
HETATM   11  O1  UNL     1      20.765  47.899 -11.908  1.00  0.00    -0.367 OA
ATOM     12  H1  UNL     1      21.607  47.521 -11.681  1.00  0.00     0.213 HD
ENDBRANCH   9  11
BRANCH   9  13
HETATM   13  C6  UNL     1      19.177  49.376 -11.006  1.00  0.00     0.050 A
HETATM   14  C7  UNL     1      19.287  50.743 -10.923  1.00  0.00     0.116 A
HETATM   15  N3  UNL     1      18.118  51.335 -11.299  1.00  0.00    -0.281 N
HETATM   16  C10 UNL     1      17.250  50.365 -11.624  1.00  0.00     0.183 A
HETATM   17  C11 UNL     1      17.889  49.155 -11.450  1.00  0.00     0.130 A
BRANCH  15  18
HETATM   18  C8  UNL     1      17.908  52.740 -11.322  1.00  0.00     0.181 A
HETATM   19  N4  UNL     1      18.606  53.694 -11.970  1.00  0.00    -0.221 N
HETATM   20  O2  UNL     1      18.087  54.858 -11.731  1.00  0.00    -0.153 OA
ATOM     21  H4  UNL     1      19.420  53.525 -12.561  1.00  0.00     0.198 HD
HETATM   22  N5  UNL     1      17.062  54.740 -10.946  1.00  0.00    -0.222 N
HETATM   23  C9  UNL     1      16.917  53.437 -10.668  1.00  0.00     0.168 A
ATOM     24  H5  UNL     1      16.474  55.499 -10.603  1.00  0.00     0.198 HD
BRANCH  23  25
HETATM   25  N6  UNL     1      15.980  52.956  -9.902  1.00  0.00    -0.381 N
ATOM     26  H62 UNL     1      15.893  51.968  -9.660  1.00  0.00     0.157 HD
ATOM     27  H61 UNL     1      15.224  53.467  -9.448  1.00  0.00     0.157 HD
ENDBRANCH  23  25
ENDBRANCH  15  18
BRANCH  16  28
HETATM   28  O3  UNL     1      15.924  50.546 -12.067  1.00  0.00    -0.344 OA
ATOM     29  H3  UNL     1      15.624  50.530 -12.969  1.00  0.00     0.219 HD
ENDBRANCH  16  28
BRANCH  17  30
HETATM   30  O4  UNL     1      17.290  47.923 -11.694  1.00  0.00    -0.356 OA
ATOM     31  H4  UNL     1      16.362  47.725 -11.663  1.00  0.00     0.218 HD
ENDBRANCH  17  30
ENDBRANCH   9  13
ENDBRANCH   7   9
ENDBRANCH   4   7
BRANCH   5  32
HETATM   32  C13 UNL     1      17.614  48.271  -8.017  1.00  0.00     0.152 A
HETATM   33  N7  UNL     1      16.396  47.984  -8.496  1.00  0.00    -0.268 N
HETATM   34  N8  UNL     1      15.708  49.094  -8.565  1.00  0.00    -0.227 N
ATOM     35  H7  UNL     1      16.062  47.057  -8.761  1.00  0.00     0.190 HD
HETATM   36  N9  UNL     1      16.476  50.062  -8.139  1.00  0.00    -0.227 N
ATOM     37  H8  UNL     1      14.746  49.188  -8.892  1.00  0.00     0.210 HD
HETATM   38  N10 UNL     1      17.653  49.608  -7.791  1.00  0.00    -0.268 N
ATOM     39  H9  UNL     1      16.195  51.041  -8.084  1.00  0.00     0.210 HD
ATOM     40  H10 UNL     1      18.438  50.148  -7.426  1.00  0.00     0.190 HD
ENDBRANCH   5  32
BRANCH   6  41
HETATM   41  C15 UNL     1      18.364  47.066  -5.284  1.00  0.00     0.155 A
HETATM   42  N11 UNL     1      18.919  47.648  -4.205  1.00  0.00    -0.241 N
HETATM   43  O5  UNL     1      18.013  47.730  -3.259  1.00  0.00    -0.220 OA
ATOM     44  H11 UNL     1      19.884  47.972  -4.134  1.00  0.00     0.196 HD
HETATM   45  C16 UNL     1      16.877  47.227  -3.661  1.00  0.00     0.179 A
HETATM   46  N12 UNL     1      17.092  46.806  -4.936  1.00  0.00    -0.319 N
ATOM     47  H12 UNL     1      16.395  46.363  -5.534  1.00  0.00     0.169 HD
BRANCH  45  48
HETATM   48  C17 UNL     1      15.589  47.102  -2.951  1.00  0.00     0.218 C
BRANCH  48  49
HETATM   49  O6  UNL     1      15.462  45.780  -2.524  1.00  0.00    -0.385 OA
ATOM     50  H6  UNL     1      16.043  45.655  -1.782  1.00  0.00     0.210 HD
ENDBRANCH  48  49
BRANCH  48  51
HETATM   51  C18 UNL     1      14.422  47.512  -3.815  1.00  0.00     0.204 C
BRANCH  51  52
HETATM   52  O7  UNL     1      14.164  46.627  -4.837  1.00  0.00    -0.398 OA
ATOM     53  H7  UNL     1      13.291  46.714  -5.199  1.00  0.00     0.209 HD
ENDBRANCH  51  52
ENDBRANCH  48  51
ENDBRANCH  45  48
ENDBRANCH   6  41
TORSDOF 14
ENDMDL