MODEL 2
REMARK VINA RESULT: -10.266909260      1.617      1.814
REMARK  5 active torsions:
REMARK  status: ('A' for Active; 'I' for Inactive)
REMARK       I    between atoms: N1_2  and  C2_3
REMARK    1  A    between atoms: N1_2  and  C19_32
REMARK    2  A    between atoms: C2_3  and  C3_5
REMARK    3  A    between atoms: N2_8  and  S1_9
REMARK    4  A    between atoms: S1_9  and  N3_12
REMARK    5  A    between atoms: C9_15  and  C10_16
REMARK       I    between atoms: C10_16  and  N4_18
ROOT
HETATM    1  S1  UNL     1      19.419   3.695 -23.881  1.00  0.00     0.090 S
HETATM    2  C6  UNL     1      17.586   3.592 -23.478  1.00  0.00     0.155 C
HETATM    3  O2  UNL     1      20.165   3.286 -25.302  1.00  0.00    -0.234 OA
ENDROOT
BRANCH   1   4
HETATM    4  N2  UNL     1      19.887   2.116 -23.178  1.00  0.00    -0.163 NA
HETATM    5  C5  UNL     1      19.069   1.483 -22.156  1.00  0.00     0.113 C
HETATM    6  C4  UNL     1      19.358   0.004 -22.040  1.00  0.00     0.030 C
HETATM    7  C3  UNL     1      20.752  -0.125 -21.463  1.00  0.00     0.086 C
HETATM    8  C18 UNL     1      21.336   1.255 -21.389  1.00  0.00     0.112 C
HETATM    9  C17 UNL     1      21.268   2.028 -22.651  1.00  0.00     0.315 C
HETATM   10  F1  UNL     1      21.739   3.303 -22.352  1.00  0.00    -0.187 F
HETATM   11  F2  UNL     1      22.050   1.395 -23.597  1.00  0.00    -0.187 F
BRANCH   7  12
HETATM   12  C2  UNL     1      20.723  -0.673 -20.069  1.00  0.00     0.224 C
HETATM   13  N1  UNL     1      21.476  -1.761 -19.594  1.00  0.00    -0.351 N
HETATM   14  C1  UNL     1      21.207  -2.157 -18.187  1.00  0.00     0.153 C
HETATM   15  O1  UNL     1      19.934  -0.105 -19.216  1.00  0.00    -0.273 OA
BRANCH  13  16
HETATM   16  C19 UNL     1      22.482  -2.503 -20.253  1.00  0.00     0.086 C
HETATM   17  C20 UNL     1      22.765  -3.872 -19.659  1.00  0.00     0.025 C
HETATM   18  C21 UNL     1      24.194  -4.297 -19.915  1.00  0.00     0.002 C
HETATM   19  C22 UNL     1      24.563  -4.010 -21.356  1.00  0.00     0.000 C
HETATM   20  C23 UNL     1      24.551  -2.519 -21.629  1.00  0.00     0.002 C
HETATM   21  C24 UNL     1      23.811  -1.837 -20.456  1.00  0.00     0.025 C
ENDBRANCH  13  16
ENDBRANCH   7  12
ENDBRANCH   1   4
BRANCH   1  22
HETATM   22  N3  UNL     1      19.571   5.368 -24.217  1.00  0.00    -0.331 N
HETATM   23  C7  UNL     1      18.421   6.214 -24.219  1.00  0.00     0.134 C
HETATM   24  C8  UNL     1      18.659   7.484 -23.445  1.00  0.00     0.034 C
HETATM   25  C9  UNL     1      19.687   8.328 -24.134  1.00  0.00     0.081 C
HETATM   26  C15 UNL     1      20.829   7.421 -24.580  1.00  0.00     0.034 C
HETATM   27  C16 UNL     1      20.734   6.167 -23.791  1.00  0.00     0.134 C
BRANCH  25  28
HETATM   28  C10 UNL     1      19.089   9.083 -25.246  1.00  0.00     0.227 C
HETATM   29  O3  UNL     1      18.181   9.917 -24.987  1.00  0.00    -0.273 OA
HETATM   30  N4  UNL     1      19.452   8.949 -26.602  1.00  0.00    -0.317 N
HETATM   31  C11 UNL     1      20.426   9.565 -27.152  1.00  0.00     0.079 C
ATOM     32  H4  UNL     1      18.899   8.318 -27.183  1.00  0.00     0.170 HD
HETATM   33  C12 UNL     1      20.903   9.509 -28.550  1.00  0.00     0.078 C
HETATM   34  N5  UNL     1      21.287  10.473 -26.476  1.00  0.00    -0.380 N
HETATM   35  C13 UNL     1      21.900  10.648 -28.694  1.00  0.00     0.027 C
HETATM   36  C14 UNL     1      22.464  10.726 -27.282  1.00  0.00     0.121 C
ATOM     37  H5  UNL     1      21.104  10.884 -25.561  1.00  0.00     0.160 HD
ENDBRANCH  25  28
ENDBRANCH   1  22
TORSDOF 5
ENDMDL