MODEL 5
REMARK VINA RESULT: -6.096434090      1.026      1.099
REMARK  5 active torsions:
REMARK  status: ('A' for Active; 'I' for Inactive)
REMARK    1  A    between atoms: N2_15  and  C13_16
REMARK    2  A    between atoms: C13_16  and  C14_17
REMARK    3  A    between atoms: C16_21  and  C17_22
REMARK    4  A    between atoms: C17_22  and  C18_23
REMARK    5  A    between atoms: C18_23  and  C19_24
REMARK       I    between atoms: C19_24  and  N3_26
ROOT
HETATM    1  C1  UNL     1      15.395  11.015 -17.649  1.00  0.00     0.152 C
HETATM    2  N1  UNL     1      16.605  10.706 -18.386  1.00  0.00    -0.356 N
HETATM    3  C2  UNL     1      17.684  11.666 -18.483  1.00  0.00     0.125 C
HETATM    4  C3  UNL     1      17.306  13.022 -17.965  1.00  0.00     0.020 C
HETATM    5  C4  UNL     1      17.040  13.951 -19.108  1.00  0.00     0.002 C
HETATM    6  C5  UNL     1      18.071  15.037 -19.252  1.00  0.00     0.000 C
HETATM    7  C6  UNL     1      19.476  14.515 -19.337  1.00  0.00     0.000 C
HETATM    8  C7  UNL     1      19.808  14.047 -20.728  1.00  0.00     0.000 C
HETATM    9  C8  UNL     1      20.893  12.993 -20.717  1.00  0.00     0.000 C
HETATM   10  C9  UNL     1      21.521  12.899 -22.094  1.00  0.00     0.000 C
HETATM   11  C10 UNL     1      21.720  11.449 -22.472  1.00  0.00     0.009 C
HETATM   12  C11 UNL     1      21.444  11.315 -23.950  1.00  0.00     0.103 C
HETATM   13  C12 UNL     1      21.913  10.053 -24.527  1.00  0.00     0.220 C
HETATM   14  O1  UNL     1      23.156   9.801 -24.427  1.00  0.00    -0.273 OA
HETATM   15  N2  UNL     1      21.110   9.084 -25.188  1.00  0.00    -0.346 N
HETATM   16  C15 UNL     1      19.733   8.874 -24.781  1.00  0.00     0.140 C
HETATM   17  C16 UNL     1      19.612   7.985 -23.566  1.00  0.00     0.096 C
HETATM   18  C23 UNL     1      18.191   7.865 -23.232  1.00  0.00     0.223 C
HETATM   19  O3  UNL     1      17.395   7.439 -24.136  1.00  0.00    -0.273 OA
HETATM   20  N4  UNL     1      17.611   8.185 -21.973  1.00  0.00    -0.360 N
ATOM     21  H4  UNL     1      16.866   7.585 -21.618  1.00  0.00     0.162 HD
HETATM   22  C24 UNL     1      18.020   9.321 -21.166  1.00  0.00     0.132 C
HETATM   23  C25 UNL     1      17.998   9.005 -19.693  1.00  0.00     0.122 C
HETATM   24  C26 UNL     1      16.763   9.453 -19.032  1.00  0.00     0.221 C
HETATM   25  O4  UNL     1      15.773   8.668 -19.041  1.00  0.00    -0.273 OA
ENDROOT
BRANCH  17  26
HETATM   26  C17 UNL     1      20.273   6.648 -23.805  1.00  0.00     0.025 C
BRANCH  26  27
HETATM   27  C18 UNL     1      19.229   5.631 -24.173  1.00  0.00     0.104 C
BRANCH  27  28
HETATM   28  C19 UNL     1      19.565   4.351 -23.519  1.00  0.00     0.219 C
HETATM   29  O2  UNL     1      20.744   4.126 -23.181  1.00  0.00    -0.273 OA
HETATM   30  N3  UNL     1      18.587   3.360 -23.259  1.00  0.00    -0.352 N
HETATM   31  C20 UNL     1      18.494   2.042 -22.674  1.00  0.00     0.127 C
HETATM   32  C22 UNL     1      17.164   3.289 -23.509  1.00  0.00     0.127 C
HETATM   33  C21 UNL     1      17.023   2.241 -22.448  1.00  0.00     0.040 C
ENDBRANCH  27  28
ENDBRANCH  26  27
ENDBRANCH  17  26
BRANCH  15  34
HETATM   34  C13 UNL     1      21.618   8.275 -26.280  1.00  0.00     0.196 C
BRANCH  34  35
HETATM   35  C14 UNL     1      21.753   9.080 -27.554  1.00  0.00     0.370 C
HETATM   36  F1  UNL     1      23.056   9.582 -27.656  1.00  0.00    -0.213 F
HETATM   37  F2  UNL     1      20.815  10.089 -27.642  1.00  0.00    -0.213 F
ENDBRANCH  34  35
ENDBRANCH  15  34
TORSDOF 5
ENDMDL