MODEL 5
REMARK VINA RESULT: -7.361836767      2.726      7.666
REMARK  7 active torsions:
REMARK  status: ('A' for Active; 'I' for Inactive)
REMARK    1  A    between atoms: C3_6  and  C4_7
REMARK    2  A    between atoms: C4_7  and  C5_8
REMARK    3  A    between atoms: C8_11  and  C9_12
REMARK    4  A    between atoms: C10_13  and  C11_14
REMARK    5  A    between atoms: C11_14  and  O2_15
REMARK    6  A    between atoms: O2_15  and  C12_16
REMARK    7  A    between atoms: C12_16  and  C13_17
ROOT
HETATM    1  C5  UNL     1      22.259  -1.313 -20.052  1.00  0.00    -0.036 A
HETATM    2  C6  UNL     1      22.257  -1.064 -21.440  1.00  0.00     0.010 A
HETATM    3  C7  UNL     1      21.278  -0.351 -22.072  1.00  0.00     0.023 A
HETATM    4  C8  UNL     1      20.254   0.139 -21.296  1.00  0.00     0.045 A
HETATM    5  C14 UNL     1      20.219  -0.080 -19.938  1.00  0.00     0.068 A
HETATM    6  N2  UNL     1      19.238   0.410 -19.158  1.00  0.00    -0.344 N
ATOM      7  H2  UNL     1      18.483   0.946 -19.586  1.00  0.00     0.167 HD
HETATM    8  C15 UNL     1      19.229   0.210 -17.826  1.00  0.00     0.086 A
HETATM    9  N3  UNL     1      20.175  -0.475 -17.183  1.00  0.00    -0.303 N
HETATM   10  C16 UNL     1      21.191  -0.989 -17.953  1.00  0.00     0.262 A
HETATM   11  O3  UNL     1      22.050  -1.603 -17.326  1.00  0.00    -0.267 OA
HETATM   12  C17 UNL     1      21.228  -0.811 -19.300  1.00  0.00     0.067 A
HETATM   13  C18 UNL     1      19.934  -0.549 -15.751  1.00  0.00     0.134 C
HETATM   14  C19 UNL     1      18.784   0.348 -15.485  1.00  0.00     0.028 C
HETATM   15  C20 UNL     1      18.220   0.667 -16.827  1.00  0.00     0.078 C
ENDROOT
BRANCH   1  16
HETATM   16  C4  UNL     1      23.300  -2.168 -19.555  1.00  0.00     0.077 C
BRANCH  16  17
HETATM   17  C3  UNL     1      23.552  -3.426 -20.366  1.00  0.00    -0.035 A
HETATM   18  C2  UNL     1      24.671  -3.790 -21.236  1.00  0.00     0.159 A
HETATM   19  N1  UNL     1      24.440  -5.103 -21.761  1.00  0.00    -0.352 N
HETATM   20  C1  UNL     1      23.224  -5.537 -21.244  1.00  0.00     0.259 A
ATOM     21  H1  UNL     1      25.052  -5.622 -22.392  1.00  0.00     0.163 HD
HETATM   22  O1  UNL     1      22.655  -6.644 -21.467  1.00  0.00    -0.267 OA
HETATM   23  C21 UNL     1      22.719  -4.481 -20.397  1.00  0.00     0.082 A
HETATM   24 BR2  UNL     1      21.050  -4.546 -19.417  1.00  0.00    -0.045 Br
ENDBRANCH  16  17
ENDBRANCH   1  16
BRANCH   4  25
HETATM   25  C9  UNL     1      19.224   0.923 -21.931  1.00  0.00    -0.062 C
HETATM   26  C10 UNL     1      18.341   1.563 -22.446  1.00  0.00    -0.075 C
BRANCH  26  27
HETATM   27  C11 UNL     1      17.231   2.328 -23.047  1.00  0.00     0.261 C
BRANCH  27  28
HETATM   28  O2  UNL     1      17.511   3.693 -23.054  1.00  0.00    -0.379 OA
BRANCH  28  29
HETATM   29  C12 UNL     1      18.270   4.070 -24.133  1.00  0.00     0.179 C
BRANCH  29  30
HETATM   30  C13 UNL     1      19.370   5.038 -23.842  1.00  0.00     0.111 C
HETATM   31 BR1  UNL     1      21.009   4.050 -23.437  1.00  0.00    -0.094 Br
ENDBRANCH  29  30
ENDBRANCH  28  29
ENDBRANCH  27  28
ENDBRANCH  26  27
ENDBRANCH   4  25
TORSDOF 7
ENDMDL