MODEL 3
REMARK VINA RESULT: -9.512949393      0.753      1.406
REMARK  5 active torsions:
REMARK  status: ('A' for Active; 'I' for Inactive)
REMARK    1  A    between atoms: C2_2  and  C3_3
REMARK       I    between atoms: C3_3  and  N1_5
REMARK    2  A    between atoms: C7_10  and  C8_11
REMARK       I    between atoms: C8_11  and  N2_13
REMARK    3  A    between atoms: N2_13  and  N3_15
REMARK       I    between atoms: N4_23  and  C15_24
REMARK    4  A    between atoms: C15_24  and  C16_26
REMARK    5  A    between atoms: C16_26  and  C17_27
ROOT
HETATM    1  C1  UNL     1      18.238   1.831 -25.479  1.00  0.00     0.049 C
HETATM    2  C2  UNL     1      18.051   2.092 -24.001  1.00  0.00     0.114 C
HETATM    3  C13 UNL     1      16.643   2.197 -23.516  1.00  0.00     0.061 C
HETATM    4  C14 UNL     1      17.262   1.589 -22.251  1.00  0.00     0.130 C
HETATM    5  N4  UNL     1      18.244   0.961 -23.149  1.00  0.00    -0.334 N
HETATM    6  C15 UNL     1      18.973  -0.231 -23.074  1.00  0.00     0.221 C
HETATM    7  O4  UNL     1      19.787  -0.572 -23.986  1.00  0.00    -0.273 OA
ENDROOT
BRANCH   2   8
HETATM    8  C3  UNL     1      18.828   3.320 -23.632  1.00  0.00     0.249 C
HETATM    9  O1  UNL     1      18.146   4.349 -23.405  1.00  0.00    -0.271 OA
HETATM   10  N1  UNL     1      20.225   3.305 -23.551  1.00  0.00    -0.334 N
HETATM   11  C4  UNL     1      21.166   2.242 -23.814  1.00  0.00     0.164 C
HETATM   12  C7  UNL     1      21.030   4.460 -23.143  1.00  0.00     0.183 C
HETATM   13  C5  UNL     1      22.236   2.464 -22.772  1.00  0.00     0.190 C
HETATM   14  F1  UNL     1      21.841   2.077 -21.513  1.00  0.00    -0.248 F
HETATM   15  C6  UNL     1      22.389   3.968 -22.794  1.00  0.00     0.074 C
BRANCH  12  16
HETATM   16  C8  UNL     1      21.002   5.534 -24.162  1.00  0.00     0.255 C
HETATM   17  O2  UNL     1      21.629   5.371 -25.222  1.00  0.00    -0.270 OA
HETATM   18  N2  UNL     1      20.282   6.719 -23.936  1.00  0.00    -0.287 N
ATOM     19  H2  UNL     1      19.774   6.832 -23.058  1.00  0.00     0.184 HD
BRANCH  18  20
HETATM   20  N3  UNL     1      20.243   7.728 -24.866  1.00  0.00    -0.225 NA
HETATM   21  C9  UNL     1      21.195   8.790 -24.679  1.00  0.00     0.140 C
HETATM   22  C10 UNL     1      21.022   9.742 -25.869  1.00  0.00     0.183 C
HETATM   23  O3  UNL     1      19.800  10.395 -25.797  1.00  0.00    -0.389 OA
HETATM   24  C11 UNL     1      18.942   9.793 -24.880  1.00  0.00     0.183 C
HETATM   25  C12 UNL     1      18.909   8.299 -25.004  1.00  0.00     0.140 C
ENDBRANCH  18  20
ENDBRANCH  12  16
ENDBRANCH   2   8
BRANCH   6  26
HETATM   26  C16 UNL     1      18.860  -1.186 -21.936  1.00  0.00     0.112 C
BRANCH  26  27
HETATM   27  C17 UNL     1      20.135  -1.337 -21.153  1.00  0.00    -0.029 C
HETATM   28  C18 UNL     1      21.278  -1.170 -22.128  1.00  0.00     0.014 C
HETATM   29  C19 UNL     1      22.625  -1.300 -21.490  1.00  0.00    -0.010 C
HETATM   30  C20 UNL     1      22.740  -0.259 -20.389  1.00  0.00     0.009 C
HETATM   31  C24 UNL     1      22.732  -2.696 -20.914  1.00  0.00     0.048 C
HETATM   32  C21 UNL     1      21.631  -0.456 -19.409  1.00  0.00    -0.010 C
HETATM   33  C22 UNL     1      21.780  -1.833 -18.792  1.00  0.00     0.048 C
HETATM   34  C26 UNL     1      20.284  -0.303 -20.059  1.00  0.00     0.014 C
HETATM   35  C23 UNL     1      21.627  -2.854 -19.904  1.00  0.00     0.105 C
HETATM   36  F2  UNL     1      21.652  -4.097 -19.293  1.00  0.00    -0.243 F
HETATM   37  C25 UNL     1      20.261  -2.704 -20.526  1.00  0.00     0.053 C
ENDBRANCH  26  27
ENDBRANCH   6  26
TORSDOF 5
ENDMDL