MODEL 5
REMARK VINA RESULT: -8.152559792      2.213      3.616
REMARK  5 active torsions:
REMARK  status: ('A' for Active; 'I' for Inactive)
REMARK    1  A    between atoms: C1_2  and  C2_3
REMARK       I    between atoms: C1_2  and  N2_21
REMARK    2  A    between atoms: C4_5  and  N1_6
REMARK    3  A    between atoms: N1_6  and  C5_9
REMARK    4  A    between atoms: N3_24  and  C17_26
REMARK    5  A    between atoms: C17_26  and  C18_27
ROOT
HETATM    1  C2  UNL     1      20.827  -0.770 -21.708  1.00  0.00     0.219 C
HETATM    2  C3  UNL     1      22.254  -0.410 -22.101  1.00  0.00     0.075 C
HETATM    3  C4  UNL     1      23.187  -0.955 -21.072  1.00  0.00     0.194 C
HETATM    4  C9  UNL     1      22.712  -0.927 -19.668  1.00  0.00     0.106 C
HETATM    5  C10 UNL     1      21.217  -0.893 -19.487  1.00  0.00     0.185 C
HETATM    6  C11 UNL     1      20.751  -2.285 -19.361  1.00  0.00     0.037 C
HETATM    7  C12 UNL     1      19.901  -2.650 -18.433  1.00  0.00    -0.023 C
HETATM    8  C13 UNL     1      19.354  -1.706 -17.456  1.00  0.00     0.053 C
HETATM    9  C14 UNL     1      19.639  -0.295 -17.919  1.00  0.00     0.175 C
HETATM   10  O2  UNL     1      20.968  -0.154 -18.317  1.00  0.00    -0.351 OA
HETATM   11  O3  UNL     1      20.584  -0.179 -20.506  1.00  0.00    -0.337 OA
ENDROOT
BRANCH   1  12
HETATM   12  C1  UNL     1      19.948  -0.377 -22.821  1.00  0.00     0.249 C
HETATM   13  O1  UNL     1      19.560  -1.351 -23.551  1.00  0.00    -0.270 OA
HETATM   14  N2  UNL     1      19.502   0.911 -23.158  1.00  0.00    -0.347 N
HETATM   15  C15 UNL     1      18.596   1.034 -24.302  1.00  0.00     0.155 C
HETATM   16  C20 UNL     1      19.944   2.038 -22.400  1.00  0.00     0.155 C
HETATM   17  C16 UNL     1      18.768   2.404 -24.917  1.00  0.00     0.271 C
HETATM   18  N3  UNL     1      18.442   3.360 -23.864  1.00  0.00    -0.007 N
HETATM   19 BR1  UNL     1      16.905   2.886 -22.902  1.00  0.00     0.164 Br
HETATM   20  C19 UNL     1      19.563   3.381 -22.959  1.00  0.00     0.271 C
BRANCH  18  21
HETATM   21  C17 UNL     1      18.304   4.691 -24.393  1.00  0.00     0.262 C
BRANCH  21  22
HETATM   22  C18 UNL     1      19.354   5.658 -23.956  1.00  0.00     0.114 C
HETATM   23 BR2  UNL     1      20.697   6.020 -25.267  1.00  0.00    -0.095 Br
ENDBRANCH  21  22
ENDBRANCH  18  21
ENDBRANCH   1  12
BRANCH   3  24
HETATM   24  N1  UNL     1      23.770  -2.248 -21.448  1.00  0.00    -0.066 N
ATOM     25  H12 UNL     1      23.436  -2.586 -22.351  1.00  0.00     0.278 HD
ATOM     26  H11 UNL     1      24.760  -2.183 -21.687  1.00  0.00     0.278 HD
BRANCH  24  27
HETATM   27  C5  UNL     1      23.516  -3.169 -20.383  1.00  0.00     0.186 C
HETATM   28  C6  UNL     1      22.759  -4.431 -20.812  1.00  0.00     0.033 C
HETATM   29  C7  UNL     1      23.615  -5.183 -19.818  1.00  0.00     0.004 C
HETATM   30  C8  UNL     1      24.684  -4.112 -20.078  1.00  0.00     0.033 C
ENDBRANCH  24  27
ENDBRANCH   3  24
TORSDOF 5
ENDMDL