MODEL 1
REMARK VINA RESULT: -9.909600335      0.000      0.000
REMARK  7 active torsions:
REMARK  status: ('A' for Active; 'I' for Inactive)
REMARK    1  A    between atoms: C1_2  and  C2_3
REMARK       I    between atoms: C1_2  and  N3_22
REMARK       I    between atoms: N1_9  and  C6_10
REMARK    2  A    between atoms: C6_10  and  C7_12
REMARK    3  A    between atoms: C7_12  and  N2_13
REMARK    4  A    between atoms: N2_13  and  C8_16
REMARK    5  A    between atoms: N4_25  and  C16_26
REMARK    6  A    between atoms: C16_26  and  O3_27
REMARK    7  A    between atoms: C16_26  and  C17_29
ROOT
HETATM    1  O1  UNL     1      21.289   1.967 -24.360  1.00  0.00    -0.271 OA
HETATM    2  C1  UNL     1      20.872   1.921 -23.161  1.00  0.00     0.243 C
HETATM    3  N3  UNL     1      21.395   0.919 -22.340  1.00  0.00    -0.347 N
HETATM    4  C14 UNL     1      21.009   0.748 -20.927  1.00  0.00     0.145 C
HETATM    5  C15 UNL     1      22.079  -0.094 -20.238  1.00  0.00     0.144 C
HETATM    6  N4  UNL     1      22.144  -1.422 -20.896  1.00  0.00    -0.362 N
HETATM    7  C27 UNL     1      22.039  -1.424 -22.306  1.00  0.00     0.144 C
HETATM    8  C28 UNL     1      22.376  -0.019 -22.839  1.00  0.00     0.145 C
ENDROOT
BRANCH   2   9
HETATM    9  C2  UNL     1      19.879   2.927 -22.743  1.00  0.00     0.185 C
HETATM   10  C3  UNL     1      18.508   2.378 -22.473  1.00  0.00     0.115 C
HETATM   11  C4  UNL     1      18.008   2.163 -23.899  1.00  0.00     0.261 C
HETATM   12  F1  UNL     1      18.353   0.877 -24.333  1.00  0.00    -0.204 F
HETATM   13  F2  UNL     1      16.630   2.225 -23.974  1.00  0.00    -0.204 F
HETATM   14  C5  UNL     1      18.695   3.208 -24.725  1.00  0.00     0.205 C
HETATM   15  N1  UNL     1      19.636   3.837 -23.835  1.00  0.00    -0.331 N
HETATM   16  C6  UNL     1      20.241   5.128 -23.975  1.00  0.00     0.246 C
HETATM   17  O2  UNL     1      21.041   5.499 -23.085  1.00  0.00    -0.272 OA
BRANCH  16  18
HETATM   18  C7  UNL     1      19.960   6.023 -25.113  1.00  0.00     0.335 C
BRANCH  18  19
HETATM   19  N2  UNL     1      20.816   7.167 -25.151  1.00  0.00    -0.063 N
ATOM     20  H22 UNL     1      20.324   7.992 -24.808  1.00  0.00     0.278 HD
ATOM     21  H21 UNL     1      21.543   7.090 -24.440  1.00  0.00     0.278 HD
BRANCH  19  22
HETATM   22  C8  UNL     1      21.394   7.428 -26.429  1.00  0.00     0.186 C
HETATM   23  C9  UNL     1      22.296   8.617 -26.437  1.00  0.00     0.033 C
HETATM   24  C10 UNL     1      22.739   8.935 -27.848  1.00  0.00     0.002 C
HETATM   25  C11 UNL     1      23.451   7.724 -28.423  1.00  0.00     0.000 C
HETATM   26  C12 UNL     1      22.421   6.605 -28.470  1.00  0.00     0.002 C
HETATM   27  C13 UNL     1      22.071   6.222 -27.037  1.00  0.00     0.033 C
ENDBRANCH  19  22
ENDBRANCH  18  19
ENDBRANCH  16  18
ENDBRANCH   2   9
BRANCH   6  28
HETATM   28  C16 UNL     1      22.280  -2.515 -20.060  1.00  0.00     0.122 C
BRANCH  28  29
HETATM   29  O3  UNL     1      23.480  -3.027 -19.989  1.00  0.00    -0.349 OA
ATOM     30  H3  UNL     1      24.139  -2.476 -19.584  1.00  0.00     0.219 HD
ENDBRANCH  28  29
BRANCH  28  31
HETATM   31  C17 UNL     1      21.266  -3.183 -19.241  1.00  0.00     0.026 C
HETATM   32  C18 UNL     1      20.944  -2.409 -18.004  1.00  0.00     0.022 C
HETATM   33  C19 UNL     1      19.803  -3.085 -17.235  1.00  0.00    -0.013 C
HETATM   34  C20 UNL     1      18.594  -2.995 -18.139  1.00  0.00     0.009 C
HETATM   35  C24 UNL     1      20.216  -4.484 -16.915  1.00  0.00     0.009 C
HETATM   36  C21 UNL     1      18.864  -3.798 -19.378  1.00  0.00    -0.013 C
HETATM   37  C22 UNL     1      19.236  -5.235 -19.037  1.00  0.00     0.009 C
HETATM   38  C26 UNL     1      19.995  -3.222 -20.148  1.00  0.00     0.022 C
HETATM   39  C23 UNL     1      20.463  -5.253 -18.187  1.00  0.00    -0.013 C
HETATM   40  C25 UNL     1      21.619  -4.597 -18.916  1.00  0.00     0.022 C
ENDBRANCH  28  31
ENDBRANCH   6  28
TORSDOF 7
ENDMDL