MODEL 4
REMARK VINA RESULT: -9.882309990      1.871      2.399
REMARK  5 active torsions:
REMARK  status: ('A' for Active; 'I' for Inactive)
REMARK    1  A    between atoms: C3_4  and  C4_5
REMARK       I    between atoms: C4_5  and  N2_7
REMARK    2  A    between atoms: C10_15  and  C11_16
REMARK    3  A    between atoms: C11_16  and  C12_17
REMARK       I    between atoms: C12_17  and  N3_19
REMARK    4  A    between atoms: N3_19  and  C13_21
REMARK    5  A    between atoms: C13_21  and  C14_22
ROOT
HETATM    1  C1  UNL     1      21.481   5.196 -25.234  1.00  0.00     0.152 C
HETATM    2  N1  UNL     1      20.197   5.062 -24.685  1.00  0.00    -0.355 N
HETATM    3  C2  UNL     1      19.100   5.963 -24.960  1.00  0.00     0.139 C
HETATM    4  C3  UNL     1      18.210   5.840 -23.711  1.00  0.00     0.097 C
HETATM    5  C9  UNL     1      17.485   4.548 -23.774  1.00  0.00     0.030 C
HETATM    6  C10 UNL     1      18.501   3.389 -23.838  1.00  0.00     0.087 C
HETATM    7  C24 UNL     1      19.873   3.988 -23.773  1.00  0.00     0.224 C
HETATM    8  O4  UNL     1      20.704   3.568 -22.952  1.00  0.00    -0.273 OA
ENDROOT
BRANCH   6   9
HETATM    9  C11 UNL     1      18.293   2.617 -25.093  1.00  0.00     0.117 C
BRANCH   9  10
HETATM   10  C12 UNL     1      19.003   1.288 -25.012  1.00  0.00     0.222 C
HETATM   11  O3  UNL     1      19.736   0.992 -25.963  1.00  0.00    -0.273 OA
HETATM   12  N3  UNL     1      18.755   0.524 -23.862  1.00  0.00    -0.340 N
ATOM     13  H3  UNL     1      18.131   0.945 -23.174  1.00  0.00     0.167 HD
BRANCH  12  14
HETATM   14  C13 UNL     1      19.251  -0.734 -23.539  1.00  0.00     0.073 C
BRANCH  14  15
HETATM   15  C14 UNL     1      20.216  -0.904 -22.429  1.00  0.00    -0.007 C
HETATM   16  C15 UNL     1      19.942  -2.254 -21.750  1.00  0.00     0.019 C
HETATM   17  C16 UNL     1      20.780  -2.366 -20.526  1.00  0.00    -0.013 C
HETATM   18  C17 UNL     1      20.384  -1.274 -19.546  1.00  0.00     0.009 C
HETATM   19  C21 UNL     1      22.245  -2.218 -20.797  1.00  0.00     0.009 C
HETATM   20  C18 UNL     1      20.634   0.067 -20.166  1.00  0.00    -0.013 C
HETATM   21  C19 UNL     1      22.102   0.276 -20.541  1.00  0.00     0.009 C
HETATM   22  C23 UNL     1      19.852   0.210 -21.421  1.00  0.00     0.019 C
HETATM   23  C20 UNL     1      22.477  -0.865 -21.422  1.00  0.00    -0.013 C
HETATM   24  C22 UNL     1      21.663  -0.843 -22.719  1.00  0.00     0.019 C
ENDBRANCH  14  15
ENDBRANCH  12  14
ENDBRANCH   9  10
ENDBRANCH   6   9
BRANCH   4  25
HETATM   25  C4  UNL     1      17.352   7.006 -23.503  1.00  0.00     0.225 C
HETATM   26  O1  UNL     1      16.110   6.968 -23.748  1.00  0.00    -0.273 OA
HETATM   27  N2  UNL     1      17.902   8.221 -23.016  1.00  0.00    -0.347 N
HETATM   28  C5  UNL     1      17.032   9.401 -22.832  1.00  0.00     0.152 C
HETATM   29  C8  UNL     1      19.288   8.405 -22.642  1.00  0.00     0.169 C
HETATM   30  C6  UNL     1      17.680  10.295 -21.832  1.00  0.00     0.189 C
HETATM   31  O2  UNL     1      18.917  10.752 -22.195  1.00  0.00    -0.372 OA
HETATM   32  C7  UNL     1      19.661   9.840 -22.928  1.00  0.00     0.210 C
HETATM   33 BR1  UNL     1      19.344  10.191 -24.800  1.00  0.00    -0.060 Br
ENDBRANCH   4  25
TORSDOF 5
ENDMDL