MODEL 3
REMARK VINA RESULT: -9.290231158      1.198      1.944
REMARK  5 active torsions:
REMARK  status: ('A' for Active; 'I' for Inactive)
REMARK    1  A    between atoms: C2_2  and  C3_3
REMARK       I    between atoms: C3_3  and  N1_5
REMARK    2  A    between atoms: N2_8  and  C6_9
REMARK    3  A    between atoms: C6_9  and  N3_11
REMARK    4  A    between atoms: C6_9  and  C9_16
REMARK       I    between atoms: N3_11  and  C8_13
REMARK       I    between atoms: N4_23  and  C14_24
REMARK    5  A    between atoms: C14_24  and  C15_26
ROOT
HETATM    1  C3  UNL     1      19.977   2.496 -23.588  1.00  0.00     0.248 C
HETATM    2  O1  UNL     1      21.135   1.975 -23.387  1.00  0.00    -0.271 OA
HETATM    3  N1  UNL     1      19.959   3.870 -23.865  1.00  0.00    -0.347 N
HETATM    4  C4  UNL     1      21.249   4.599 -23.895  1.00  0.00     0.145 C
HETATM    5  C5  UNL     1      20.864   6.011 -23.418  1.00  0.00     0.139 C
HETATM    6  N2  UNL     1      20.162   6.603 -24.491  1.00  0.00    -0.378 N
HETATM    7  C10 UNL     1      19.028   5.880 -24.923  1.00  0.00     0.139 C
HETATM    8  C11 UNL     1      18.768   4.615 -24.123  1.00  0.00     0.145 C
ENDROOT
BRANCH   1   9
HETATM    9  C2  UNL     1      18.824   1.611 -23.509  1.00  0.00     0.114 C
HETATM   10  C1  UNL     1      18.029   1.795 -22.233  1.00  0.00     0.049 C
HETATM   11  C12 UNL     1      17.970   1.448 -24.742  1.00  0.00     0.061 C
HETATM   12  C13 UNL     1      19.038   0.462 -25.129  1.00  0.00     0.130 C
HETATM   13  N4  UNL     1      19.231   0.208 -23.717  1.00  0.00    -0.334 N
HETATM   14  C14 UNL     1      19.653  -0.924 -22.983  1.00  0.00     0.225 C
HETATM   15  O4  UNL     1      19.914  -1.973 -23.681  1.00  0.00    -0.273 OA
BRANCH  14  16
HETATM   16  C15 UNL     1      19.817  -1.013 -21.525  1.00  0.00     0.086 C
HETATM   17  C16 UNL     1      21.037  -0.264 -21.073  1.00  0.00    -0.000 C
HETATM   18  C17 UNL     1      22.344  -0.930 -21.287  1.00  0.00     0.010 C
HETATM   19  C21 UNL     1      20.872  -0.088 -19.555  1.00  0.00     0.010 C
HETATM   20  C18 UNL     1      22.351  -2.315 -20.632  1.00  0.00    -0.013 C
HETATM   21  C19 UNL     1      22.192  -2.188 -19.149  1.00  0.00     0.009 C
HETATM   22  C24 UNL     1      21.245  -3.083 -21.283  1.00  0.00     0.010 C
HETATM   23  C20 UNL     1      20.887  -1.451 -18.891  1.00  0.00    -0.013 C
HETATM   24  C22 UNL     1      19.793  -2.302 -19.467  1.00  0.00     0.010 C
HETATM   25  C23 UNL     1      19.930  -2.424 -20.993  1.00  0.00    -0.000 C
ENDBRANCH  14  16
ENDBRANCH   1   9
BRANCH   6  26
HETATM   26  C6  UNL     1      20.138   8.016 -24.603  1.00  0.00     0.179 C
HETATM   27  C7  UNL     1      21.502   8.618 -24.865  1.00  0.00     0.073 C
BRANCH  26  28
HETATM   28  N3  UNL     1      19.344   8.340 -25.801  1.00  0.00    -0.314 N
HETATM   29  C8  UNL     1      19.087   9.661 -26.201  1.00  0.00     0.316 C
HETATM   30  O2  UNL     1      19.507  10.676 -25.585  1.00  0.00    -0.254 OA
HETATM   31 CL1  UNL     1      18.114   9.918 -27.656  1.00  0.00    -0.020 Cl
ATOM     32  H3  UNL     1      18.968   7.575 -26.362  1.00  0.00     0.166 HD
ENDBRANCH  26  28
BRANCH  26  33
HETATM   33  C9  UNL     1      19.573   8.689 -23.396  1.00  0.00     0.267 C
HETATM   34  O3  UNL     1      20.162   9.445 -22.673  1.00  0.00    -0.275 OA
HETATM   35 CL2  UNL     1      17.877   8.310 -23.033  1.00  0.00    -0.039 Cl
ENDBRANCH  26  33
ENDBRANCH   6  26
TORSDOF 5
ENDMDL