MODEL 5
REMARK VINA RESULT: -7.975061170      4.293      7.618
REMARK  6 active torsions:
REMARK  status: ('A' for Active; 'I' for Inactive)
REMARK    1  A    between atoms: C6_6  and  N1_7
REMARK    2  A    between atoms: C9_10  and  N2_11
REMARK       I    between atoms: N2_11  and  C10_13
REMARK    3  A    between atoms: C10_13  and  C11_15
REMARK    4  A    between atoms: C17_21  and  C18_22
REMARK       I    between atoms: C18_22  and  N3_24
REMARK    5  A    between atoms: N4_32  and  C24_33
REMARK    6  A    between atoms: C24_33  and  C25_34
ROOT
HETATM    1  C1  UNL     1      22.185  -2.279 -19.847  1.00  0.00     0.026 C
HETATM    2  C2  UNL     1      20.686  -2.430 -19.734  1.00  0.00     0.043 C
HETATM    3  C3  UNL     1      20.314  -3.804 -19.209  1.00  0.00     0.019 C
HETATM    4  C4  UNL     1      19.179  -3.668 -18.250  1.00  0.00     0.003 C
HETATM    5  C5  UNL     1      19.620  -2.850 -17.047  1.00  0.00     0.036 C
HETATM    6  C6  UNL     1      20.480  -1.656 -17.469  1.00  0.00     0.228 C
HETATM    7  C15 UNL     1      20.068  -1.350 -18.875  1.00  0.00     0.039 C
HETATM    8  C16 UNL     1      20.348   0.017 -19.363  1.00  0.00     0.043 C
HETATM    9  C17 UNL     1      19.993   0.182 -20.811  1.00  0.00     0.179 C
HETATM   10  N4  UNL     1      19.683  -1.018 -21.516  1.00  0.00    -0.338 N
HETATM   11  C28 UNL     1      20.112  -2.301 -21.090  1.00  0.00     0.229 C
HETATM   12  O3  UNL     1      20.012  -3.320 -21.842  1.00  0.00    -0.272 OA
ENDROOT
BRANCH   6  13
HETATM   13  N1  UNL     1      20.483  -0.586 -16.541  1.00  0.00     0.095 N
HETATM   14  C7  UNL     1      20.150  -0.954 -15.197  1.00  0.00     0.275 C
HETATM   15  C8  UNL     1      19.192   0.084 -14.676  1.00  0.00     0.057 C
HETATM   16  C9  UNL     1      18.484   0.525 -15.938  1.00  0.00     0.114 C
HETATM   17  C14 UNL     1      19.652   0.549 -16.911  1.00  0.00     0.298 C
BRANCH  16  18
HETATM   18  N2  UNL     1      17.812   1.770 -15.787  1.00  0.00    -0.354 N
HETATM   19  C10 UNL     1      16.617   2.100 -16.462  1.00  0.00     0.222 C
HETATM   20  O1  UNL     1      16.138   1.217 -17.249  1.00  0.00    -0.273 OA
ATOM     21  H2  UNL     1      18.216   2.462 -15.155  1.00  0.00     0.162 HD
BRANCH  19  22
HETATM   22  C11 UNL     1      15.900   3.367 -16.320  1.00  0.00     0.078 A
HETATM   23  C12 UNL     1      14.814   3.283 -15.221  1.00  0.00     0.015 A
HETATM   24  C13 UNL     1      15.972   4.243 -15.144  1.00  0.00     0.015 A
ENDBRANCH  19  22
ENDBRANCH  16  18
ENDBRANCH   6  13
BRANCH   9  25
HETATM   25  C18 UNL     1      21.133   0.817 -21.571  1.00  0.00     0.242 C
HETATM   26  O2  UNL     1      22.266   0.222 -21.613  1.00  0.00    -0.271 OA
HETATM   27  N3  UNL     1      21.046   2.040 -22.253  1.00  0.00    -0.350 N
HETATM   28  C19 UNL     1      22.243   2.563 -22.920  1.00  0.00     0.131 C
HETATM   29  C23 UNL     1      19.865   2.842 -22.387  1.00  0.00     0.131 C
HETATM   30  C20 UNL     1      21.761   3.596 -23.933  1.00  0.00     0.099 C
HETATM   31  C21 UNL     1      20.555   3.110 -24.710  1.00  0.00     0.246 C
HETATM   32  F1  UNL     1      20.125   4.160 -25.492  1.00  0.00    -0.206 F
HETATM   33  F2  UNL     1      21.003   2.063 -25.520  1.00  0.00    -0.206 F
HETATM   34  C22 UNL     1      19.412   2.685 -23.843  1.00  0.00     0.099 C
ENDBRANCH   9  25
BRANCH  10  35
HETATM   35  C24 UNL     1      18.946  -0.969 -22.753  1.00  0.00     0.131 C
BRANCH  35  36
HETATM   36  C25 UNL     1      19.733  -0.920 -24.001  1.00  0.00     0.004 A
HETATM   37  C26 UNL     1      19.428  -1.701 -25.248  1.00  0.00     0.007 A
HETATM   38  C27 UNL     1      18.995  -0.275 -25.181  1.00  0.00     0.007 A
ENDBRANCH  35  36
ENDBRANCH  10  35
TORSDOF 6
ENDMDL