MODEL 3
REMARK VINA RESULT: -7.939873196      7.146     12.040
REMARK  5 active torsions:
REMARK  status: ('A' for Active; 'I' for Inactive)
REMARK       I    between atoms: N2_7  and  C6_8
REMARK    1  A    between atoms: C6_8  and  C7_10
REMARK    2  A    between atoms: C7_10  and  C8_11
REMARK    3  A    between atoms: C7_10  and  N4_20
REMARK       I    between atoms: N3_12  and  C9_14
REMARK    4  A    between atoms: C9_14  and  C10_16
REMARK       I    between atoms: N4_20  and  C14_22
REMARK    5  A    between atoms: C14_22  and  C15_24
ROOT
HETATM    1  N1  UNL     1      18.192  10.565 -24.424  1.00  0.00    -0.195 NA
HETATM    2  C1  UNL     1      18.476   9.646 -23.824  1.00  0.00     0.084 C
HETATM    3  C2  UNL     1      18.869   8.471 -23.041  1.00  0.00     0.194 C
HETATM    4  C3  UNL     1      17.710   8.139 -22.127  1.00  0.00     0.042 C
HETATM    5  C4  UNL     1      16.727   7.597 -23.175  1.00  0.00     0.023 C
HETATM    6  C5  UNL     1      17.605   6.952 -24.231  1.00  0.00     0.127 C
HETATM    7  N2  UNL     1      18.954   7.274 -23.849  1.00  0.00    -0.333 N
HETATM    8  C6  UNL     1      20.159   6.580 -24.151  1.00  0.00     0.248 C
HETATM    9  O1  UNL     1      21.223   7.013 -23.652  1.00  0.00    -0.271 OA
ENDROOT
BRANCH   8  10
HETATM   10  C7  UNL     1      20.225   5.375 -25.021  1.00  0.00     0.215 C
BRANCH  10  11
HETATM   11  C8  UNL     1      21.601   5.293 -25.621  1.00  0.00     0.098 C
HETATM   12  N3  UNL     1      22.093   6.041 -26.481  1.00  0.00    -0.338 N
HETATM   13  C9  UNL     1      21.622   7.147 -27.170  1.00  0.00     0.225 C
ATOM     14  H3  UNL     1      23.048   5.788 -26.733  1.00  0.00     0.167 HD
HETATM   15  O2  UNL     1      20.762   7.964 -26.711  1.00  0.00    -0.273 OA
BRANCH  13  16
HETATM   16  C10 UNL     1      22.119   7.446 -28.534  1.00  0.00     0.078 C
HETATM   17  C11 UNL     1      22.120   6.249 -29.488  1.00  0.00     0.014 C
HETATM   18  C12 UNL     1      23.497   6.733 -29.996  1.00  0.00     0.002 C
HETATM   19  C13 UNL     1      23.658   7.346 -28.605  1.00  0.00     0.014 C
ENDBRANCH  13  16
ENDBRANCH  10  11
BRANCH  10  20
HETATM   20  N4  UNL     1      20.167   4.176 -24.175  1.00  0.00    -0.343 N
HETATM   21  C14 UNL     1      19.220   3.170 -24.560  1.00  0.00     0.222 C
HETATM   22  O3  UNL     1      18.489   3.332 -25.585  1.00  0.00    -0.273 OA
ATOM     23  H4  UNL     1      20.768   4.065 -23.358  1.00  0.00     0.163 HD
BRANCH  21  24
HETATM   24  C15 UNL     1      19.086   1.943 -23.785  1.00  0.00     0.080 C
HETATM   25  C16 UNL     1      18.906   2.174 -22.299  1.00  0.00     0.016 C
HETATM   26  C17 UNL     1      19.656   1.073 -21.620  1.00  0.00     0.034 C
HETATM   27  C18 UNL     1      20.128   0.139 -22.705  1.00  0.00     0.076 C
HETATM   28 BR1  UNL     1      18.794  -1.225 -23.013  1.00  0.00    -0.073 Br
HETATM   29 BR2  UNL     1      21.813  -0.674 -22.182  1.00  0.00    -0.073 Br
HETATM   30  C19 UNL     1      20.276   1.013 -23.907  1.00  0.00     0.047 C
ENDBRANCH  21  24
ENDBRANCH  10  20
ENDBRANCH   8  10
TORSDOF 5
ENDMDL