MODEL 3
REMARK VINA RESULT: -7.954058980      2.270      4.798
REMARK  6 active torsions:
REMARK  status: ('A' for Active; 'I' for Inactive)
REMARK    1  A    between atoms: C2_2  and  O1_4
REMARK    2  A    between atoms: O1_4  and  C4_5
REMARK    3  A    between atoms: C6_9  and  C7_10
REMARK    4  A    between atoms: C7_10  and  C8_11
REMARK    5  A    between atoms: N3_16  and  C11_17
REMARK    6  A    between atoms: C20_26  and  N4_27
ROOT
HETATM    1  C4  UNL     1      23.337  -1.221 -19.992  1.00  0.00     0.226 A
HETATM    2  N1  UNL     1      23.133  -0.090 -19.240  1.00  0.00    -0.318 N
ATOM      3  H1  UNL     1      23.149  -0.149 -18.222  1.00  0.00     0.169 HD
HETATM    4  C5  UNL     1      22.913   1.088 -19.836  1.00  0.00     0.092 A
HETATM    5  C6  UNL     1      22.679   2.365 -19.330  1.00  0.00     0.055 A
HETATM    6  N2  UNL     1      22.533   3.127 -20.396  1.00  0.00    -0.299 N
ATOM      7  H2  UNL     1      22.348   4.129 -20.348  1.00  0.00     0.187 HD
HETATM    8  N3  UNL     1      22.650   2.464 -21.535  1.00  0.00    -0.278 N
HETATM    9  C19 UNL     1      22.887   1.185 -21.235  1.00  0.00     0.124 A
HETATM   10  C20 UNL     1      23.094   0.036 -21.984  1.00  0.00     0.133 A
HETATM   11  N5  UNL     1      23.313  -1.129 -21.326  1.00  0.00    -0.306 N
ATOM     12  H5  UNL     1      23.466  -1.975 -21.874  1.00  0.00     0.171 HD
ENDROOT
BRANCH   8  13
HETATM   13  C11 UNL     1      22.539   3.011 -22.870  1.00  0.00     0.131 C
HETATM   14  C12 UNL     1      23.182   4.361 -23.053  1.00  0.00     0.031 C
HETATM   15  C13 UNL     1      22.804   4.993 -24.367  1.00  0.00     0.002 C
HETATM   16  C14 UNL     1      21.545   5.752 -24.410  1.00  0.00     0.000 C
HETATM   17  C15 UNL     1      21.024   6.290 -23.132  1.00  0.00     0.004 C
HETATM   18  C16 UNL     1      20.458   5.326 -22.161  1.00  0.00     0.027 C
HETATM   19  C17 UNL     1      20.164   3.959 -22.577  1.00  0.00    -0.029 C
HETATM   20  C18 UNL     1      21.063   3.031 -23.184  1.00  0.00    -0.004 C
ENDBRANCH   8  13
BRANCH   5  21
HETATM   21  C7  UNL     1      22.626   2.697 -17.876  1.00  0.00     0.065 C
BRANCH  21  22
HETATM   22  C8  UNL     1      21.396   2.076 -17.280  1.00  0.00    -0.009 A
HETATM   23  C9  UNL     1      20.824   2.551 -16.004  1.00  0.00     0.005 A
HETATM   24  C10 UNL     1      21.588   1.233 -16.075  1.00  0.00     0.005 A
ENDBRANCH  21  22
ENDBRANCH   5  21
BRANCH  10  25
HETATM   25  N4  UNL     1      23.076   0.091 -23.263  1.00  0.00    -0.383 N
ATOM     26  H42 UNL     1      23.937   0.149 -23.807  1.00  0.00     0.157 HD
ATOM     27  H41 UNL     1      22.188   0.077 -23.764  1.00  0.00     0.157 HD
ENDBRANCH  10  25
BRANCH   1  28
HETATM   28  O1  UNL     1      23.561  -2.420 -19.352  1.00  0.00    -0.317 OA
BRANCH  28  29
HETATM   29  C2  UNL     1      23.315  -3.655 -19.891  1.00  0.00     0.123 C
HETATM   30  C1  UNL     1      22.307  -4.345 -18.941  1.00  0.00     0.040 C
HETATM   31  C3  UNL     1      24.564  -4.522 -19.978  1.00  0.00     0.040 C
ENDBRANCH  28  29
ENDBRANCH   1  28
TORSDOF 6
ENDMDL