MODEL 5
REMARK VINA RESULT: -7.326166713      1.918      2.448
REMARK  7 active torsions:
REMARK  status: ('A' for Active; 'I' for Inactive)
REMARK    1  A    between atoms: C9_9  and  O1_10
REMARK    2  A    between atoms: N1_12  and  C10_13
REMARK    3  A    between atoms: C10_13  and  C11_14
REMARK    4  A    between atoms: C11_14  and  C12_15
REMARK    5  A    between atoms: C12_15  and  C13_16
REMARK    6  A    between atoms: C13_16  and  N2_17
REMARK    7  A    between atoms: C20_24  and  O2_25
ROOT
HETATM    1  C1  UNL     1      18.344   8.198 -23.626  1.00  0.00     0.032 C
HETATM    2  C2  UNL     1      18.788   7.125 -22.651  1.00  0.00     0.079 C
HETATM    3  C3  UNL     1      17.743   6.096 -22.408  1.00  0.00     0.038 C
HETATM    4  C4  UNL     1      17.927   4.849 -23.240  1.00  0.00    -0.012 C
HETATM    5  C5  UNL     1      16.914   3.805 -22.776  1.00  0.00     0.020 C
HETATM    6  C6  UNL     1      17.584   5.190 -24.673  1.00  0.00     0.020 C
HETATM    7  C7  UNL     1      19.304   4.318 -23.110  1.00  0.00     0.032 A
HETATM    8  C8  UNL     1      20.343   5.207 -23.005  1.00  0.00     0.091 A
HETATM    9  C9  UNL     1      21.502   4.451 -22.897  1.00  0.00     0.172 A
HETATM   10  N1  UNL     1      21.196   3.146 -22.934  1.00  0.00    -0.306 N
HETATM   11  C20 UNL     1      19.864   3.056 -23.063  1.00  0.00     0.153 A
HETATM   12  N3  UNL     1      20.075   6.597 -23.034  1.00  0.00    -0.382 N
ATOM     13  H3  UNL     1      20.809   7.240 -23.333  1.00  0.00     0.160 HD
ENDROOT
BRANCH  10  14
HETATM   14  C10 UNL     1      22.199   2.098 -22.850  1.00  0.00     0.133 C
BRANCH  14  15
HETATM   15  C11 UNL     1      22.721   1.867 -21.476  1.00  0.00     0.022 C
BRANCH  15  16
HETATM   16  C12 UNL     1      23.262   0.434 -21.424  1.00  0.00     0.032 C
BRANCH  16  17
HETATM   17  C13 UNL     1      23.286  -0.076 -20.009  1.00  0.00     0.272 C
BRANCH  17  18
HETATM   18  N2  UNL     1      23.914  -1.382 -20.008  1.00  0.00     0.088 N
HETATM   19  C14 UNL     1      23.085  -2.367 -20.678  1.00  0.00     0.272 C
HETATM   20  C15 UNL     1      23.262  -3.662 -19.912  1.00  0.00     0.030 C
HETATM   21  C16 UNL     1      24.759  -3.974 -19.934  1.00  0.00     0.002 C
HETATM   22  C17 UNL     1      25.262  -3.726 -21.320  1.00  0.00     0.002 C
HETATM   23  C18 UNL     1      25.496  -2.304 -21.679  1.00  0.00     0.030 C
HETATM   24  C19 UNL     1      25.235  -1.306 -20.586  1.00  0.00     0.272 C
ENDBRANCH  17  18
ENDBRANCH  16  17
ENDBRANCH  15  16
ENDBRANCH  14  15
ENDBRANCH  10  14
BRANCH   9  25
HETATM   25  O1  UNL     1      22.775   5.043 -22.770  1.00  0.00    -0.344 OA
ATOM     26  H1  UNL     1      23.330   4.891 -22.015  1.00  0.00     0.219 HD
ENDBRANCH   9  25
BRANCH  11  27
HETATM   27  O2  UNL     1      19.150   1.888 -23.137  1.00  0.00    -0.345 OA
ATOM     28  H2  UNL     1      19.329   1.188 -23.753  1.00  0.00     0.219 HD
ENDBRANCH  11  27
TORSDOF 7
ENDMDL