MODEL 4
REMARK VINA RESULT: -7.608724007      2.839      7.110
REMARK  9 active torsions:
REMARK  status: ('A' for Active; 'I' for Inactive)
REMARK    1  A    between atoms: C2_2  and  C3_3
REMARK    2  A    between atoms: C2_2  and  C6_6
REMARK    3  A    between atoms: C9_9  and  C10_10
REMARK    4  A    between atoms: C10_10  and  O1_11
REMARK    5  A    between atoms: C10_10  and  C11_13
REMARK    6  A    between atoms: C11_13  and  C12_14
REMARK    7  A    between atoms: C12_14  and  C13_15
REMARK    8  A    between atoms: C13_15  and  O2_18
REMARK    9  A    between atoms: C18_25  and  O4_26
ROOT
HETATM    1  C6  UNL     1      22.751   3.215 -21.876  1.00  0.00    -0.021 C
HETATM    2  C7  UNL     1      23.356   1.874 -21.877  1.00  0.00    -0.012 C
HETATM    3  C8  UNL     1      22.882   0.771 -21.059  1.00  0.00     0.055 C
HETATM    4  C9  UNL     1      23.617   0.550 -19.730  1.00  0.00     0.113 C
HETATM    5  N1  UNL     1      22.665   1.065 -18.726  1.00  0.00    -0.389 N
ATOM      6  H1  UNL     1      22.288   0.386 -18.065  1.00  0.00     0.159 HD
HETATM    7  C16 UNL     1      22.253   2.300 -18.593  1.00  0.00     0.122 C
HETATM    8  C17 UNL     1      22.495   3.574 -19.261  1.00  0.00     0.104 A
HETATM    9  O3  UNL     1      22.549   4.663 -18.486  1.00  0.00    -0.286 OA
HETATM   10  C18 UNL     1      22.775   5.705 -19.222  1.00  0.00     0.184 A
HETATM   11  C19 UNL     1      22.874   5.288 -20.537  1.00  0.00     0.079 A
HETATM   12  C20 UNL     1      22.693   3.922 -20.578  1.00  0.00     0.014 A
ENDROOT
BRANCH   4  13
HETATM   13  C10 UNL     1      23.819  -0.952 -19.461  1.00  0.00     0.141 C
BRANCH  13  14
HETATM   14  O1  UNL     1      22.820  -1.221 -18.491  1.00  0.00    -0.394 OA
ATOM     15  H1  UNL     1      23.270  -1.813 -17.898  1.00  0.00     0.210 HD
ENDBRANCH  13  14
BRANCH  13  16
HETATM   16  C11 UNL     1      23.543  -1.632 -20.769  1.00  0.00     0.036 C
BRANCH  16  17
HETATM   17  C12 UNL     1      23.073  -3.007 -20.776  1.00  0.00     0.039 C
BRANCH  17  18
HETATM   18  C13 UNL     1      23.854  -4.157 -20.362  1.00  0.00     0.051 C
HETATM   19  C14 UNL     1      25.331  -3.988 -20.228  1.00  0.00     0.045 C
HETATM   20  C15 UNL     1      23.514  -5.451 -21.038  1.00  0.00     0.045 C
BRANCH  18  21
HETATM   21  O2  UNL     1      23.438  -4.394 -18.988  1.00  0.00    -0.391 OA
ATOM     22  H2  UNL     1      24.120  -3.990 -18.465  1.00  0.00     0.210 HD
ENDBRANCH  18  21
ENDBRANCH  17  18
ENDBRANCH  16  17
ENDBRANCH  13  16
ENDBRANCH   4  13
BRANCH   1  23
HETATM   23  C2  UNL     1      21.569   3.426 -22.744  1.00  0.00    -0.053 C
HETATM   24  C1  UNL     1      20.391   2.864 -22.511  1.00  0.00     0.020 C
BRANCH  23  25
HETATM   25  C3  UNL     1      21.607   4.303 -23.948  1.00  0.00     0.010 C
HETATM   26  C4  UNL     1      20.798   5.576 -23.697  1.00  0.00     0.015 C
HETATM   27  C5  UNL     1      23.020   4.679 -24.339  1.00  0.00     0.015 C
ENDBRANCH  23  25
ENDBRANCH   1  23
BRANCH  10  28
HETATM   28  O4  UNL     1      22.908   7.046 -18.814  1.00  0.00    -0.341 OA
ATOM     29  H4  UNL     1      22.267   7.592 -18.374  1.00  0.00     0.220 HD
ENDBRANCH  10  28
TORSDOF 9
ENDMDL