MODEL 1
REMARK VINA RESULT: -8.070056174      0.000      0.000
REMARK  8 active torsions:
REMARK  status: ('A' for Active; 'I' for Inactive)
REMARK    1  A    between atoms: C2_2  and  C3_3
REMARK    2  A    between atoms: C3_3  and  C4_4
REMARK    3  A    between atoms: C4_4  and  C5_5
REMARK    4  A    between atoms: C9_9  and  N1_10
REMARK    5  A    between atoms: C12_16  and  O1_17
REMARK    6  A    between atoms: N2_19  and  C13_20
REMARK    7  A    between atoms: C13_20  and  N3_21
REMARK    8  A    between atoms: C20_28  and  O2_29
ROOT
HETATM    1  C5  UNL     1      21.662  -0.346 -14.492  1.00  0.00     0.012 C
HETATM    2  C6  UNL     1      20.944   0.241 -13.338  1.00  0.00    -0.026 C
HETATM    3  C7  UNL     1      19.749   0.046 -12.810  1.00  0.00    -0.028 C
HETATM    4  C8  UNL     1      18.527  -0.779 -13.015  1.00  0.00     0.064 C
HETATM    5  C9  UNL     1      18.684  -2.097 -12.290  1.00  0.00     0.224 C
HETATM    6  C10 UNL     1      20.105  -2.550 -12.397  1.00  0.00     0.034 A
HETATM    7  C11 UNL     1      21.137  -2.440 -13.303  1.00  0.00     0.007 A
HETATM    8  C12 UNL     1      22.254  -3.081 -12.850  1.00  0.00     0.156 A
HETATM    9  N2  UNL     1      21.922  -3.605 -11.636  1.00  0.00    -0.272 N
HETATM   10  C20 UNL     1      20.655  -3.302 -11.351  1.00  0.00     0.158 A
HETATM   11  C21 UNL     1      21.281  -1.789 -14.629  1.00  0.00     0.052 C
ENDROOT
BRANCH   9  12
HETATM   12  C13 UNL     1      22.809  -4.384 -10.837  1.00  0.00     0.163 C
BRANCH  12  13
HETATM   13  N3  UNL     1      24.186  -4.077 -10.881  1.00  0.00    -0.279 NA
HETATM   14  C14 UNL     1      25.016  -5.218 -10.501  1.00  0.00     0.096 C
HETATM   15  C15 UNL     1      26.438  -4.773 -10.527  1.00  0.00     0.015 C
HETATM   16  C16 UNL     1      27.014  -4.396  -9.215  1.00  0.00     0.001 C
HETATM   17  C17 UNL     1      26.226  -3.522  -8.339  1.00  0.00     0.001 C
HETATM   18  C18 UNL     1      24.799  -3.309  -8.686  1.00  0.00     0.015 C
HETATM   19  C19 UNL     1      24.583  -2.944 -10.140  1.00  0.00     0.096 C
ENDBRANCH  12  13
ENDBRANCH   9  12
BRANCH   8  20
HETATM   20  O1  UNL     1      23.495  -3.206 -13.451  1.00  0.00    -0.345 OA
ATOM     21  H1  UNL     1      23.901  -3.974 -13.837  1.00  0.00     0.219 HD
ENDBRANCH   8  20
BRANCH  10  22
HETATM   22  O2  UNL     1      19.864  -3.611 -10.240  1.00  0.00    -0.345 OA
ATOM     23  H2  UNL     1      20.283  -3.810  -9.412  1.00  0.00     0.219 HD
ENDBRANCH  10  22
BRANCH   5  24
HETATM   24  N1  UNL     1      17.757  -3.099 -12.731  1.00  0.00    -0.071 N
ATOM     25  H13 UNL     1      16.926  -3.108 -12.141  1.00  0.00     0.275 HD
ATOM     26  H12 UNL     1      17.331  -2.833 -13.619  1.00  0.00     0.275 HD
ATOM     27  H11 UNL     1      18.170  -4.029 -12.792  1.00  0.00     0.275 HD
ENDBRANCH   5  24
BRANCH   1  28
HETATM   28  C4  UNL     1      21.306   0.463 -15.718  1.00  0.00     0.009 C
BRANCH  28  29
HETATM   29  C3  UNL     1      22.311   0.223 -16.843  1.00  0.00     0.000 C
BRANCH  29  30
HETATM   30  C2  UNL     1      22.405   1.533 -17.625  1.00  0.00    -0.005 C
HETATM   31  C1  UNL     1      21.412   2.502 -16.976  1.00  0.00     0.005 C
ENDBRANCH  29  30
ENDBRANCH  28  29
ENDBRANCH   1  28
TORSDOF 8
ENDMDL