MODEL 4
REMARK VINA RESULT: -6.246912630      0.838      1.154
REMARK  8 active torsions:
REMARK  status: ('A' for Active; 'I' for Inactive)
REMARK    1  A    between atoms: C8_8  and  N1_9
REMARK    2  A    between atoms: N1_9  and  C9_10
REMARK    3  A    between atoms: N1_9  and  C16_25
REMARK    4  A    between atoms: C9_10  and  C10_11
REMARK    5  A    between atoms: C9_10  and  C15_18
REMARK    6  A    between atoms: C10_11  and  C11_12
REMARK    7  A    between atoms: C15_18  and  O2_19
REMARK    8  A    between atoms: N3_21  and  O3_23
ROOT
HETATM    1  C9  UNL     1      21.894  -4.317  -9.908  1.00  0.00     0.167 C
ENDROOT
BRANCH   1   2
HETATM    2  N1  UNL     1      21.619  -3.025 -10.314  1.00  0.00    -0.366 N
BRANCH   2   3
HETATM    3  C8  UNL     1      21.064  -2.583 -11.495  1.00  0.00    -0.006 C
HETATM    4  C2  UNL     1      21.616  -2.744 -12.843  1.00  0.00    -0.009 C
HETATM    5  C1  UNL     1      20.990  -3.793 -13.735  1.00  0.00     0.021 C
HETATM    6  C3  UNL     1      23.083  -2.787 -13.044  1.00  0.00     0.021 C
HETATM    7  C4  UNL     1      21.193  -1.451 -13.627  1.00  0.00     0.015 C
HETATM    8  C5  UNL     1      19.726  -1.275 -13.653  1.00  0.00     0.001 C
HETATM    9  C6  UNL     1      18.945  -1.746 -12.497  1.00  0.00     0.006 C
HETATM   10  C7  UNL     1      19.560  -2.867 -11.682  1.00  0.00     0.053 C
ENDBRANCH   2   3
BRANCH   2  11
HETATM   11  C16 UNL     1      21.779  -2.015  -9.284  1.00  0.00     0.022 C
HETATM   12  C17 UNL     1      23.228  -1.810  -8.875  1.00  0.00     0.037 C
HETATM   13  C18 UNL     1      21.273  -0.650  -9.672  1.00  0.00     0.037 C
HETATM   14  C19 UNL     1      21.080  -2.318  -7.976  1.00  0.00     0.037 C
ENDBRANCH   2  11
ENDBRANCH   1   2
BRANCH   1  15
HETATM   15  C10 UNL     1      22.946  -5.130 -10.597  1.00  0.00     0.099 C
BRANCH  15  16
HETATM   16  C11 UNL     1      24.309  -4.978 -10.005  1.00  0.00     0.057 A
HETATM   17  C12 UNL     1      25.557  -5.063 -10.552  1.00  0.00     0.036 A
HETATM   18  C13 UNL     1      26.450  -4.835  -9.550  1.00  0.00     0.055 A
HETATM   19  C14 UNL     1      25.689  -4.617  -8.399  1.00  0.00     0.157 A
HETATM   20  N2  UNL     1      26.188  -4.338  -7.101  1.00  0.00    -0.075 NA
HETATM   21  O1  UNL     1      24.450  -4.712  -8.724  1.00  0.00    -0.300 OA
ENDBRANCH  15  16
ENDBRANCH   1  15
BRANCH   1  22
HETATM   22  C15 UNL     1      20.624  -5.169  -9.834  1.00  0.00     0.159 C
HETATM   23  N3  UNL     1      20.472  -6.115 -10.666  1.00  0.00    -0.249 N
ATOM     24  H3  UNL     1      21.207  -6.272 -11.355  1.00  0.00     0.196 HD
BRANCH  22  25
HETATM   25  O2  UNL     1      19.631  -4.965  -8.913  1.00  0.00    -0.347 OA
ATOM     26  H2  UNL     1      19.607  -5.396  -8.067  1.00  0.00     0.219 HD
ENDBRANCH  22  25
BRANCH  23  27
HETATM   27  O3  UNL     1      19.391  -6.928 -10.693  1.00  0.00    -0.288 OA
ATOM     28  H3  UNL     1      19.028  -7.353  -9.925  1.00  0.00     0.244 HD
ENDBRANCH  23  27
ENDBRANCH   1  22
TORSDOF 8
ENDMDL