MODEL 3
REMARK VINA RESULT: -7.380653876      0.980      1.059
REMARK  9 active torsions:
REMARK  status: ('A' for Active; 'I' for Inactive)
REMARK    1  A    between atoms: C3_3  and  O1_4
REMARK    2  A    between atoms: O1_4  and  C4_5
REMARK    3  A    between atoms: C6_7  and  C7_8
REMARK    4  A    between atoms: C11_12  and  O2_14
REMARK    5  A    between atoms: C13_16  and  C14_17
REMARK    6  A    between atoms: C14_17  and  C15_18
REMARK    7  A    between atoms: C17_20  and  O3_21
REMARK    8  A    between atoms: C18_23  and  O4_24
REMARK    9  A    between atoms: C19_26  and  O5_27
ROOT
HETATM    1  C7  UNL     1      20.859  -1.551 -12.490  1.00  0.00     0.018 C
HETATM    2  C8  UNL     1      19.991  -2.473 -13.353  1.00  0.00     0.009 C
HETATM    3  C9  UNL     1      18.967  -3.165 -12.535  1.00  0.00     0.004 C
HETATM    4  C10 UNL     1      18.404  -2.328 -11.434  1.00  0.00     0.038 C
HETATM    5  C11 UNL     1      19.442  -1.853 -10.462  1.00  0.00     0.059 C
HETATM    6  C12 UNL     1      19.425  -2.819  -9.269  1.00  0.00     0.046 C
HETATM    7  C13 UNL     1      20.831  -2.041 -11.098  1.00  0.00     0.031 C
ENDROOT
BRANCH   7   8
HETATM    8  C14 UNL     1      21.934  -1.720 -10.171  1.00  0.00     0.047 C
BRANCH   8   9
HETATM    9  C15 UNL     1      22.939  -2.780  -9.969  1.00  0.00    -0.052 A
HETATM   10  C16 UNL     1      22.788  -3.999 -10.558  1.00  0.00     0.046 A
HETATM   11  C17 UNL     1      23.762  -4.994 -10.334  1.00  0.00     0.102 A
HETATM   12  C18 UNL     1      24.856  -4.783  -9.546  1.00  0.00     0.132 A
HETATM   13  C19 UNL     1      25.005  -3.523  -8.943  1.00  0.00     0.104 A
HETATM   14  C21 UNL     1      24.062  -2.556  -9.158  1.00  0.00     0.047 A
BRANCH  11  15
HETATM   15  O3  UNL     1      23.583  -6.224 -10.944  1.00  0.00    -0.358 OA
ATOM     16  H3  UNL     1      22.902  -6.298 -11.603  1.00  0.00     0.217 HD
ENDBRANCH  11  15
BRANCH  12  17
HETATM   17  O4  UNL     1      25.839  -5.726  -9.295  1.00  0.00    -0.356 OA
ATOM     18  H4  UNL     1      26.630  -5.562  -8.795  1.00  0.00     0.218 HD
ENDBRANCH  12  17
BRANCH  13  19
HETATM   19  O5  UNL     1      26.129  -3.313  -8.137  1.00  0.00    -0.353 OA
HETATM   20  C20 UNL     1      26.529  -2.012  -7.752  1.00  0.00     0.210 C
ENDBRANCH  13  19
ENDBRANCH   8   9
ENDBRANCH   7   8
BRANCH   1  21
HETATM   21  C6  UNL     1      20.330  -0.190 -12.704  1.00  0.00     0.010 C
HETATM   22  C4  UNL     1      20.687   0.506 -13.752  1.00  0.00     0.045 C
HETATM   23  C5  UNL     1      20.159   1.902 -13.986  1.00  0.00     0.076 C
BRANCH  22  24
HETATM   24  O1  UNL     1      21.562  -0.000 -14.693  1.00  0.00    -0.328 OA
BRANCH  24  25
HETATM   25  C3  UNL     1      21.754   0.652 -15.909  1.00  0.00     0.137 C
HETATM   26  C2  UNL     1      22.462   0.100 -16.856  1.00  0.00    -0.006 C
HETATM   27  C1  UNL     1      22.681   0.768 -18.154  1.00  0.00     0.038 C
ENDBRANCH  24  25
ENDBRANCH  22  24
ENDBRANCH   1  21
BRANCH   5  28
HETATM   28  O2  UNL     1      19.217  -0.559 -10.061  1.00  0.00    -0.390 OA
ATOM     29  H2  UNL     1      19.992  -0.166  -9.678  1.00  0.00     0.210 HD
ENDBRANCH   5  28
TORSDOF 9
ENDMDL