MODEL 4
REMARK VINA RESULT: -7.955772076      1.046      1.605
REMARK  8 active torsions:
REMARK  status: ('A' for Active; 'I' for Inactive)
REMARK    1  A    between atoms: C2_2  and  C3_3
REMARK    2  A    between atoms: C3_3  and  C4_4
REMARK    3  A    between atoms: C4_4  and  C5_5
REMARK    4  A    between atoms: C7_7  and  C8_8
REMARK    5  A    between atoms: C10_12  and  O3_13
REMARK    6  A    between atoms: C10_12  and  C11_15
REMARK    7  A    between atoms: C16_20  and  O4_21
REMARK    8  A    between atoms: C17_23  and  O5_24
ROOT
HETATM    1  C8  UNL     1      22.003   5.111 -18.837  1.00  0.00     0.233 C
HETATM    2  O1  UNL     1      23.303   5.550 -18.366  1.00  0.00    -0.227 OA
HETATM    3  O2  UNL     1      24.181   4.893 -19.113  1.00  0.00    -0.237 OA
HETATM    4  C9  UNL     1      23.729   5.087 -20.414  1.00  0.00     0.251 C
HETATM    5  C10 UNL     1      22.256   4.833 -20.250  1.00  0.00     0.121 C
ENDROOT
BRANCH   1   6
HETATM    6  C7  UNL     1      21.527   4.111 -17.903  1.00  0.00     0.010 A
HETATM    7  C6  UNL     1      21.933   2.804 -17.869  1.00  0.00     0.020 A
HETATM    8  C5  UNL     1      21.594   1.928 -16.840  1.00  0.00    -0.051 A
HETATM    9  C19 UNL     1      20.804   2.403 -15.799  1.00  0.00    -0.053 A
HETATM   10  C18 UNL     1      20.387   3.701 -15.804  1.00  0.00     0.044 A
HETATM   11  C20 UNL     1      20.440   1.498 -14.651  1.00  0.00     0.049 C
HETATM   12  C17 UNL     1      20.736   4.559 -16.838  1.00  0.00     0.075 A
BRANCH   8  13
HETATM   13  C4  UNL     1      22.058   0.537 -16.711  1.00  0.00     0.039 C
BRANCH  13  14
HETATM   14  C3  UNL     1      23.216   0.058 -17.466  1.00  0.00     0.004 C
BRANCH  14  15
HETATM   15  C2  UNL     1      22.814  -0.859 -18.608  1.00  0.00    -0.004 C
HETATM   16  C1  UNL     1      23.790  -0.789 -19.785  1.00  0.00     0.005 C
ENDBRANCH  14  15
ENDBRANCH  13  14
ENDBRANCH   8  13
BRANCH  12  17
HETATM   17  O5  UNL     1      20.275   5.877 -16.791  1.00  0.00    -0.360 OA
ATOM     18  H5  UNL     1      20.032   6.281 -15.966  1.00  0.00     0.217 HD
ENDBRANCH  12  17
ENDBRANCH   1   6
BRANCH   5  19
HETATM   19  O3  UNL     1      21.668   5.913 -21.040  1.00  0.00    -0.384 OA
ATOM     20  H3  UNL     1      20.751   5.710 -21.186  1.00  0.00     0.210 HD
ENDBRANCH   5  19
BRANCH   5  21
HETATM   21  C11 UNL     1      21.771   3.606 -20.903  1.00  0.00     0.054 C
HETATM   22  C12 UNL     1      22.606   2.391 -20.932  1.00  0.00     0.010 C
HETATM   23  C13 UNL     1      23.075   2.014 -22.332  1.00  0.00     0.001 C
HETATM   24  C14 UNL     1      22.061   2.178 -23.406  1.00  0.00     0.002 C
HETATM   25  C15 UNL     1      20.724   2.628 -22.913  1.00  0.00     0.032 C
HETATM   26  C16 UNL     1      20.999   3.935 -22.152  1.00  0.00     0.125 C
BRANCH  26  27
HETATM   27  O4  UNL     1      19.767   4.529 -21.872  1.00  0.00    -0.395 OA
ATOM     28  H4  UNL     1      19.739   4.908 -21.001  1.00  0.00     0.210 HD
ENDBRANCH  26  27
ENDBRANCH   5  21
TORSDOF 8
ENDMDL