MODEL 2
REMARK VINA RESULT: -6.882027453      1.060      1.222
REMARK  6 active torsions:
REMARK  status: ('A' for Active; 'I' for Inactive)
REMARK    1  A    between atoms: C2_2  and  N1_3
REMARK    2  A    between atoms: C3_4  and  O1_5
REMARK    3  A    between atoms: C6_9  and  O2_10
REMARK    4  A    between atoms: C7_12  and  C8_13
REMARK    5  A    between atoms: C8_13  and  C9_14
REMARK    6  A    between atoms: C9_14  and  C10_15
ROOT
HETATM    1  N1  UNL     1      22.412  -0.380  -8.873  1.00  0.00    -0.308 N
HETATM    2  C3  UNL     1      23.344  -1.249  -8.444  1.00  0.00     0.151 A
HETATM    3  C4  UNL     1      23.375  -2.347  -9.266  1.00  0.00     0.008 A
HETATM    4  C5  UNL     1      22.428  -2.141 -10.233  1.00  0.00     0.009 A
HETATM    5  C6  UNL     1      21.854  -0.940  -9.978  1.00  0.00     0.151 A
HETATM    6  C7  UNL     1      22.277  -3.234 -11.280  1.00  0.00     0.032 C
HETATM    7  C11 UNL     1      22.187  -4.484 -10.460  1.00  0.00    -0.036 C
HETATM    8  C12 UNL     1      21.125  -4.169  -9.385  1.00  0.00     0.016 C
HETATM    9  C13 UNL     1      21.708  -5.725 -11.112  1.00  0.00     0.016 C
HETATM   10  C14 UNL     1      23.535  -4.773  -9.750  1.00  0.00     0.002 C
HETATM   11  C15 UNL     1      24.366  -5.776 -10.450  1.00  0.00     0.006 C
HETATM   12  C16 UNL     1      25.750  -5.343 -10.856  1.00  0.00     0.005 C
HETATM   13  C17 UNL     1      26.376  -4.459  -9.803  1.00  0.00    -0.018 C
HETATM   14  C18 UNL     1      27.814  -4.183 -10.081  1.00  0.00     0.010 C
HETATM   15  C19 UNL     1      25.516  -3.196  -9.898  1.00  0.00     0.014 C
HETATM   16  C20 UNL     1      24.210  -3.569  -9.225  1.00  0.00     0.029 C
ENDROOT
BRANCH   6  17
HETATM   17  C8  UNL     1      21.142  -2.931 -12.159  1.00  0.00     0.020 C
BRANCH  17  18
HETATM   18  C9  UNL     1      21.325  -2.515 -13.562  1.00  0.00     0.114 C
BRANCH  18  19
HETATM   19  C10 UNL     1      20.893  -3.502 -14.576  1.00  0.00     0.172 C
HETATM   20  O3  UNL     1      20.967  -3.231 -15.781  1.00  0.00    -0.648 OA
HETATM   21  O4  UNL     1      20.410  -4.721 -14.160  1.00  0.00    -0.648 OA
ENDBRANCH  18  19
ENDBRANCH  17  18
ENDBRANCH   6  17
BRANCH   5  22
HETATM   22  O2  UNL     1      20.860  -0.357 -10.706  1.00  0.00    -0.345 OA
ATOM     23  H2  UNL     1      19.942  -0.582 -10.625  1.00  0.00     0.219 HD
ENDBRANCH   5  22
BRANCH   2  24
HETATM   24  O1  UNL     1      24.126  -0.985  -7.304  1.00  0.00    -0.345 OA
ATOM     25  H1  UNL     1      25.044  -0.751  -7.375  1.00  0.00     0.219 HD
ENDBRANCH   2  24
BRANCH   1  26
HETATM   26  C2  UNL     1      22.068   0.907  -8.276  1.00  0.00     0.129 C
HETATM   27  C1  UNL     1      21.014   0.786  -7.221  1.00  0.00     0.027 C
ENDBRANCH   1  26
TORSDOF 6
ENDMDL