MODEL 3
REMARK VINA RESULT: -7.457173986      1.009      2.011
REMARK  7 active torsions:
REMARK  status: ('A' for Active; 'I' for Inactive)
REMARK    1  A    between atoms: O1_2  and  C2_3
REMARK    2  A    between atoms: C3_4  and  C4_5
REMARK    3  A    between atoms: C5_6  and  C6_7
REMARK    4  A    between atoms: C10_11  and  C11_12
REMARK    5  A    between atoms: C14_15  and  O2_16
REMARK    6  A    between atoms: C20_25  and  C21_26
REMARK    7  A    between atoms: C21_26  and  O4_27
ROOT
HETATM    1  C4  UNL     1      22.283   2.509 -21.216  1.00  0.00     0.078 A
HETATM    2  C5  UNL     1      22.271   2.486 -19.864  1.00  0.00    -0.023 A
HETATM    3  C9  UNL     1      22.873   1.276 -19.498  1.00  0.00     0.035 A
HETATM    4  C10 UNL     1      23.238   0.602 -20.667  1.00  0.00     0.016 A
HETATM    5  N1  UNL     1      22.873   1.388 -21.650  1.00  0.00    -0.352 N
HETATM    6  C17 UNL     1      23.130   1.139 -23.071  1.00  0.00     0.156 C
ENDROOT
BRANCH   1   7
HETATM    7  C3  UNL     1      21.646   3.425 -22.211  1.00  0.00     0.137 A
HETATM    8  C2  UNL     1      20.435   3.697 -22.656  1.00  0.00     0.115 A
HETATM    9  C20 UNL     1      20.481   4.678 -23.632  1.00  0.00     0.031 A
HETATM   10  C18 UNL     1      21.823   4.989 -23.727  1.00  0.00     0.061 A
HETATM   11  O3  UNL     1      22.474   4.250 -22.896  1.00  0.00    -0.309 OA
HETATM   12  C19 UNL     1      22.446   6.023 -24.631  1.00  0.00     0.077 C
BRANCH   8  13
HETATM   13  O1  UNL     1      19.261   3.063 -22.184  1.00  0.00    -0.352 OA
HETATM   14  C1  UNL     1      18.689   2.203 -23.202  1.00  0.00     0.210 C
ENDBRANCH   8  13
BRANCH   9  15
HETATM   15  C21 UNL     1      19.346   5.325 -24.318  1.00  0.00     0.208 C
BRANCH  15  16
HETATM   16  O4  UNL     1      18.425   5.739 -23.271  1.00  0.00    -0.396 OA
ATOM     17  H4  UNL     1      18.090   6.587 -23.536  1.00  0.00     0.209 HD
ENDBRANCH  15  16
ENDBRANCH   9  15
ENDBRANCH   1   7
BRANCH   2  18
HETATM   18  C6  UNL     1      21.857   3.602 -18.989  1.00  0.00     0.013 C
HETATM   19  C7  UNL     1      21.757   3.055 -17.561  1.00  0.00     0.015 C
HETATM   20  C8  UNL     1      23.156   4.496 -18.844  1.00  0.00     0.015 C
ENDBRANCH   2  18
BRANCH   4  21
HETATM   21  C11 UNL     1      23.789  -0.775 -20.823  1.00  0.00     0.036 C
HETATM   22  C12 UNL     1      23.318  -1.661 -19.684  1.00  0.00     0.013 C
HETATM   23  C13 UNL     1      23.439  -3.088 -20.178  1.00  0.00     0.032 C
HETATM   24  C14 UNL     1      24.837  -3.387 -20.632  1.00  0.00     0.118 C
HETATM   25  C15 UNL     1      25.408  -2.390 -21.600  1.00  0.00     0.032 C
HETATM   26  C16 UNL     1      25.213  -0.944 -21.130  1.00  0.00     0.013 C
BRANCH  24  27
HETATM   27  O2  UNL     1      24.787  -4.625 -21.277  1.00  0.00    -0.396 OA
ATOM     28  H2  UNL     1      25.211  -5.248 -20.698  1.00  0.00     0.210 HD
ENDBRANCH  24  27
ENDBRANCH   4  21
TORSDOF 7
ENDMDL