MODEL 5
REMARK VINA RESULT: -7.514889482      1.409      1.771
REMARK  6 active torsions:
REMARK  status: ('A' for Active; 'I' for Inactive)
REMARK    1  A    between atoms: C2_2  and  C5_6
REMARK    2  A    between atoms: C5_6  and  C6_7
REMARK    3  A    between atoms: C8_9  and  C9_10
REMARK    4  A    between atoms: C11_13  and  N2_14
REMARK    5  A    between atoms: C12_20  and  C13_21
REMARK    6  A    between atoms: C13_21  and  C14_22
ROOT
HETATM    1  C1  UNL     1      23.197  -2.538 -19.686  1.00  0.00     0.035 C
HETATM    2  C2  UNL     1      23.951  -1.603 -20.738  1.00  0.00     0.060 C
HETATM    3  C3  UNL     1      22.824  -1.360 -21.737  1.00  0.00     0.035 C
HETATM    4  C4  UNL     1      24.855  -2.520 -21.350  1.00  0.00     0.072 C
HETATM    5  N1  UNL     1      25.564  -3.288 -21.849  1.00  0.00    -0.196 NA
ENDROOT
BRANCH   2   6
HETATM    6  C5  UNL     1      24.346  -0.487 -19.947  1.00  0.00     0.009 C
BRANCH   6   7
HETATM    7  C6  UNL     1      23.424   0.437 -19.216  1.00  0.00    -0.024 A
HETATM    8  C7  UNL     1      22.983   0.086 -17.964  1.00  0.00     0.033 A
HETATM    9  C8  UNL     1      22.198   0.949 -17.286  1.00  0.00     0.033 A
HETATM   10  S2  UNL     1      22.051   2.261 -18.352  1.00  0.00    -0.092 SA
HETATM   11  C12 UNL     1      23.020   1.647 -19.666  1.00  0.00    -0.006 A
BRANCH   9  12
HETATM   12  C9  UNL     1      21.592   0.799 -15.930  1.00  0.00     0.058 A
HETATM   13  C10 UNL     1      21.699  -0.385 -15.249  1.00  0.00     0.084 A
HETATM   14  S1  UNL     1      20.871  -0.054 -13.803  1.00  0.00    -0.064 SA
HETATM   15  C11 UNL     1      20.434   1.556 -14.132  1.00  0.00     0.142 A
HETATM   16  N3  UNL     1      20.941   1.779 -15.340  1.00  0.00    -0.335 N
ATOM     17  H3  UNL     1      20.829   2.684 -15.797  1.00  0.00     0.168 HD
BRANCH  15  18
HETATM   18  N2  UNL     1      19.758   2.412 -13.396  1.00  0.00    -0.380 N
ATOM     19  H22 UNL     1      20.149   3.138 -12.796  1.00  0.00     0.158 HD
ATOM     20  H21 UNL     1      18.750   2.520 -13.282  1.00  0.00     0.158 HD
ENDBRANCH  15  18
ENDBRANCH   9  12
BRANCH  11  21
HETATM   21  C13 UNL     1      23.135   2.440 -20.906  1.00  0.00     0.051 C
BRANCH  21  22
HETATM   22  C14 UNL     1      22.057   2.150 -21.917  1.00  0.00    -0.007 C
HETATM   23  C15 UNL     1      20.991   3.250 -21.894  1.00  0.00     0.032 C
HETATM   24  C16 UNL     1      20.170   3.009 -23.162  1.00  0.00     0.232 C
HETATM   25  N4  UNL     1      20.974   3.394 -24.303  1.00  0.00    -0.075 N
HETATM   26  C17 UNL     1      22.383   3.192 -24.103  1.00  0.00     0.232 C
ATOM     27  H42 UNL     1      20.656   2.916 -25.146  1.00  0.00     0.277 HD
ATOM     28  H41 UNL     1      20.782   4.359 -24.571  1.00  0.00     0.277 HD
HETATM   29  C18 UNL     1      22.685   1.986 -23.266  1.00  0.00     0.032 C
ENDBRANCH  21  22
ENDBRANCH  11  21
ENDBRANCH   6   7
ENDBRANCH   2   6
TORSDOF 6
ENDMDL