MODEL 1
REMARK VINA RESULT: -7.368356794      0.000      0.000
REMARK  12 active torsions:
REMARK  status: ('A' for Active; 'I' for Inactive)
REMARK    1  A    between atoms: C2_2  and  O1_3
REMARK    2  A    between atoms: O1_3  and  C3_4
REMARK    3  A    between atoms: C3_4  and  C4_6
REMARK    4  A    between atoms: C7_11  and  C8_12
REMARK    5  A    between atoms: C8_12  and  N2_13
REMARK    6  A    between atoms: C8_12  and  S3_39
REMARK    7  A    between atoms: N3_15  and  C9_17
REMARK    8  A    between atoms: C12_24  and  N6_25
REMARK    9  A    between atoms: N6_25  and  C13_27
REMARK   10  A    between atoms: C15_29  and  S1_30
REMARK   11  A    between atoms: S1_30  and  N7_31
REMARK   12  A    between atoms: S3_39  and  O5_40
ROOT
HETATM    1  C9  UNL     1      -2.210  17.496  13.834  1.00  0.00     0.164 A
HETATM    2  N4  UNL     1      -0.865  17.704  13.878  1.00  0.00    -0.282 N
ATOM      3  H4  UNL     1      -0.142  17.013  13.675  1.00  0.00     0.188 HD
HETATM    4  N5  UNL     1      -0.664  18.971  14.234  1.00  0.00    -0.301 N
ATOM      5  H5  UNL     1       0.247  19.415  14.349  1.00  0.00     0.186 HD
HETATM    6  C10 UNL     1      -1.865  19.578  14.417  1.00  0.00     0.052 A
HETATM    7  C11 UNL     1      -1.996  20.997  14.819  1.00  0.00     0.072 C
HETATM    8  C12 UNL     1      -2.861  18.659  14.168  1.00  0.00     0.103 A
ENDROOT
BRANCH   1   9
HETATM    9  N3  UNL     1      -2.766  16.234  13.483  1.00  0.00    -0.281 N
HETATM   10  N2  UNL     1      -2.659  15.297  14.312  1.00  0.00    -0.289 N
ATOM     11  H2  UNL     1      -2.181  15.475  15.196  1.00  0.00     0.188 HD
ATOM     12  H3  UNL     1      -3.236  16.095  12.589  1.00  0.00     0.188 HD
BRANCH  10  13
HETATM   13  C8  UNL     1      -3.182  13.989  14.063  1.00  0.00     0.140 C
BRANCH  13  14
HETATM   14  C7  UNL     1      -2.708  12.891  14.896  1.00  0.00     0.095 A
HETATM   15  N1  UNL     1      -3.426  11.864  15.369  1.00  0.00    -0.355 N
HETATM   16  C5  UNL     1      -2.656  11.029  16.109  1.00  0.00     0.024 A
ATOM     17  H1  UNL     1      -4.422  11.728  15.196  1.00  0.00     0.166 HD
HETATM   18  C4  UNL     1      -1.382  11.549  16.109  1.00  0.00     0.088 A
HETATM   19  C6  UNL     1      -3.091   9.791  16.793  1.00  0.00     0.069 C
HETATM   20  C17 UNL     1      -1.404  12.704  15.359  1.00  0.00     0.094 A
HETATM   21  N8  UNL     1      -0.320  13.572  15.084  1.00  0.00    -0.099 NA
BRANCH  18  22
HETATM   22  C3  UNL     1      -0.209  10.981  16.783  1.00  0.00     0.297 C
HETATM   23  O2  UNL     1      -0.141  10.909  18.037  1.00  0.00    -0.259 OA
BRANCH  22  24
HETATM   24  O1  UNL     1       0.877  10.497  16.075  1.00  0.00    -0.318 OA
BRANCH  24  25
HETATM   25  C2  UNL     1       1.460   9.233  16.417  1.00  0.00     0.174 C
HETATM   26  C1  UNL     1       0.434   8.177  16.108  1.00  0.00     0.034 C
ENDBRANCH  24  25
ENDBRANCH  22  24
ENDBRANCH  18  22
ENDBRANCH  13  14
BRANCH  13  27
HETATM   27  S3  UNL     1      -4.266  13.727  12.894  1.00  0.00     0.048 SA
BRANCH  27  28
HETATM   28  O5  UNL     1      -5.013  12.182  12.756  1.00  0.00    -0.324 OA
ATOM     29  H5  UNL     1      -4.579  11.493  12.266  1.00  0.00     0.228 HD
ENDBRANCH  27  28
ENDBRANCH  13  27
ENDBRANCH  10  13
ENDBRANCH   1   9
BRANCH   8  30
HETATM   30  N6  UNL     1      -4.266  18.856  14.239  1.00  0.00    -0.350 N
ATOM     31  H6  UNL     1      -4.871  18.056  14.427  1.00  0.00     0.166 HD
BRANCH  30  32
HETATM   32  C13 UNL     1      -4.868  20.174  14.048  1.00  0.00     0.063 A
HETATM   33  C14 UNL     1      -5.106  20.711  12.828  1.00  0.00     0.064 A
HETATM   34  C15 UNL     1      -5.676  21.955  12.797  1.00  0.00     0.123 A
HETATM   35  S2  UNL     1      -5.866  22.345  14.439  1.00  0.00    -0.062 SA
HETATM   36  C16 UNL     1      -5.223  20.932  15.131  1.00  0.00     0.102 A
HETATM   37 CL1  UNL     1      -5.057  20.539  16.856  1.00  0.00    -0.074 Cl
BRANCH  34  38
HETATM   38  S1  UNL     1      -6.099  22.905  11.357  1.00  0.00     0.263 S
HETATM   39  O3  UNL     1      -4.854  22.936  10.510  1.00  0.00    -0.200 OA
HETATM   40  O4  UNL     1      -6.516  24.251  11.819  1.00  0.00    -0.200 OA
BRANCH  38  41
HETATM   41  N7  UNL     1      -7.349  22.097  10.483  1.00  0.00    -0.324 N
ATOM     42  H72 UNL     1      -7.592  21.113  10.600  1.00  0.00     0.169 HD
ATOM     43  H71 UNL     1      -7.795  22.754   9.844  1.00  0.00     0.169 HD
ENDBRANCH  38  41
ENDBRANCH  34  38
ENDBRANCH  30  32
ENDBRANCH   8  30
TORSDOF 12
ENDMDL