MODEL 2
REMARK VINA RESULT: -4.963700927      1.016      2.208
REMARK  13 active torsions:
REMARK  status: ('A' for Active; 'I' for Inactive)
REMARK    1  A    between atoms: O1_2  and  C2_3
REMARK    2  A    between atoms: C2_3  and  C3_5
REMARK    3  A    between atoms: C3_5  and  O3_6
REMARK    4  A    between atoms: O3_6  and  C4_7
REMARK    5  A    between atoms: C4_7  and  C5_9
REMARK    6  A    between atoms: C10_14  and  O5_15
REMARK    7  A    between atoms: C13_19  and  N1_20
REMARK    8  A    between atoms: C15_22  and  O6_23
REMARK    9  A    between atoms: C19_27  and  C20_28
REMARK   10  A    between atoms: C20_28  and  O7_30
REMARK   11  A    between atoms: C24_37  and  O8_38
REMARK   12  A    between atoms: C24_37  and  C25_40
REMARK   13  A    between atoms: C25_40  and  N3_41
ROOT
HETATM    1  C3  UNL     1      -7.731  11.043  12.266  1.00  0.00     0.240 C
HETATM    2  C9  UNL     1      -7.521  10.222  11.082  1.00  0.00     0.054 A
HETATM    3  C10 UNL     1      -6.449   9.636  10.397  1.00  0.00     0.086 A
HETATM    4  C11 UNL     1      -6.626   8.947   9.170  1.00  0.00     0.000 A
HETATM    5  C12 UNL     1      -5.398   8.323   8.543  1.00  0.00     0.054 C
HETATM    6  C13 UNL     1      -7.864   8.856   8.650  1.00  0.00     0.063 A
HETATM    7  C22 UNL     1      -8.930   9.430   9.325  1.00  0.00     0.088 A
HETATM    8 CL1  UNL     1     -10.530   9.289   8.598  1.00  0.00    -0.079 Cl
HETATM    9  C23 UNL     1      -8.800  10.097  10.505  1.00  0.00     0.067 A
HETATM   10  N2  UNL     1      -9.773  10.691  11.412  1.00  0.00    -0.352 N
ATOM     11  H2  UNL     1     -10.656  11.156  11.199  1.00  0.00     0.163 HD
HETATM   12  C24 UNL     1      -9.152  10.447  12.699  1.00  0.00     0.203 C
ENDROOT
BRANCH   6  13
HETATM   13  N1  UNL     1      -8.087   8.204   7.389  1.00  0.00    -0.369 N
HETATM   14  C14 UNL     1      -8.308   8.968   6.150  1.00  0.00     0.156 C
HETATM   15  C15 UNL     1      -9.107   7.989   5.279  1.00  0.00     0.144 C
HETATM   16  C17 UNL     1      -8.376   6.720   5.633  1.00  0.00     0.037 C
HETATM   17  C18 UNL     1      -9.003   5.494   5.057  1.00  0.00     0.015 C
HETATM   18  C19 UNL     1      -8.072   6.812   7.037  1.00  0.00     0.119 C
BRANCH  15  19
HETATM   19  O6  UNL     1      -8.964   8.296   3.931  1.00  0.00    -0.389 OA
HETATM   20  C16 UNL     1     -10.219   8.567   3.373  1.00  0.00     0.202 C
ENDBRANCH  15  19
BRANCH  18  21
HETATM   21  C20 UNL     1      -8.851   6.021   8.020  1.00  0.00     0.137 C
HETATM   22  C21 UNL     1     -10.317   5.857   7.713  1.00  0.00     0.041 C
BRANCH  21  23
HETATM   23  O7  UNL     1      -8.345   4.719   7.970  1.00  0.00    -0.394 OA
ATOM     24  H7  UNL     1      -8.917   4.186   8.511  1.00  0.00     0.210 HD
ENDBRANCH  21  23
ENDBRANCH  18  21
ENDBRANCH   6  13
BRANCH   3  25
HETATM   25  O5  UNL     1      -5.163   9.660  10.826  1.00  0.00    -0.359 OA
ATOM     26  H5  UNL     1      -4.902   9.791  11.730  1.00  0.00     0.217 HD
ENDBRANCH   3  25
BRANCH   1  27
HETATM   27  C2  UNL     1      -8.094  12.452  11.806  1.00  0.00     0.304 C
HETATM   28  O2  UNL     1      -7.626  12.966  10.765  1.00  0.00    -0.261 OA
BRANCH  27  29
HETATM   29  O1  UNL     1      -8.973  13.252  12.514  1.00  0.00    -0.324 OA
HETATM   30  C1  UNL     1      -9.771  14.245  11.946  1.00  0.00     0.213 C
ENDBRANCH  27  29
ENDBRANCH   1  27
BRANCH   1  31
HETATM   31  O3  UNL     1      -6.970  11.033  13.372  1.00  0.00    -0.289 OA
BRANCH  31  32
HETATM   32  C4  UNL     1      -6.121  11.968  13.850  1.00  0.00     0.264 C
HETATM   33  O4  UNL     1      -6.478  12.749  14.757  1.00  0.00    -0.265 OA
BRANCH  32  34
HETATM   34  C5  UNL     1      -4.728  12.091  13.304  1.00  0.00     0.085 C
HETATM   35  C6  UNL     1      -4.329  13.509  13.004  1.00  0.00     0.014 C
HETATM   36  C7  UNL     1      -3.090  13.307  13.839  1.00  0.00     0.002 C
HETATM   37  C8  UNL     1      -3.729  12.096  14.456  1.00  0.00     0.014 C
ENDBRANCH  32  34
ENDBRANCH  31  32
ENDBRANCH   1  31
BRANCH  12  38
HETATM   38  O8  UNL     1      -8.926   9.101  12.846  1.00  0.00    -0.366 OA
ATOM     39  H8  UNL     1      -9.790   8.730  12.979  1.00  0.00     0.212 HD
ENDBRANCH  12  38
BRANCH  12  40
HETATM   40  C25 UNL     1      -9.688  11.177  13.846  1.00  0.00     0.294 C
BRANCH  40  41
HETATM   41  N3  UNL     1      -9.320  10.482  15.064  1.00  0.00    -0.075 N
ATOM     42  H33 UNL     1      -9.905   9.664  15.235  1.00  0.00     0.274 HD
ATOM     43  H32 UNL     1      -8.424  10.003  14.981  1.00  0.00     0.274 HD
ATOM     44  H31 UNL     1      -9.338  11.141  15.842  1.00  0.00     0.274 HD
ENDBRANCH  40  41
ENDBRANCH  12  40
TORSDOF 13
ENDMDL