MODEL 3
REMARK VINA RESULT: -6.763483271      3.148      7.638
REMARK  11 active torsions:
REMARK  status: ('A' for Active; 'I' for Inactive)
REMARK    1  A    between atoms: O1_2  and  C2_3
REMARK    2  A    between atoms: C2_3  and  C3_4
REMARK    3  A    between atoms: C3_4  and  N1_5
REMARK    4  A    between atoms: N1_5  and  C4_7
REMARK    5  A    between atoms: C5_10  and  N3_11
REMARK    6  A    between atoms: N3_11  and  C6_13
REMARK    7  A    between atoms: C7_16  and  C8_17
REMARK    8  A    between atoms: C11_21  and  O2_22
REMARK    9  A    between atoms: O2_22  and  C12_23
REMARK   10  A    between atoms: C18_36  and  N8_37
REMARK   11  A    between atoms: C19_42  and  S2_43
ROOT
HETATM    1  C6  UNL     1      -4.883  16.854  19.769  1.00  0.00     0.140 A
HETATM    2  N4  UNL     1      -4.997  16.020  18.727  1.00  0.00    -0.325 N
ATOM      3  H4  UNL     1      -5.727  16.195  18.038  1.00  0.00     0.169 HD
HETATM    4  C7  UNL     1      -4.202  14.979  18.557  1.00  0.00     0.125 A
HETATM    5  N6  UNL     1      -3.236  14.718  19.440  1.00  0.00    -0.328 N
ATOM      6  H6  UNL     1      -2.628  13.911  19.298  1.00  0.00     0.168 HD
HETATM    7  C17 UNL     1      -3.053  15.501  20.508  1.00  0.00     0.150 A
HETATM    8  N7  UNL     1      -2.012  15.171  21.409  1.00  0.00    -0.080 NA
HETATM    9  C18 UNL     1      -3.884  16.582  20.679  1.00  0.00     0.133 A
ENDROOT
BRANCH   1  10
HETATM   10  N3  UNL     1      -5.628  17.858  19.966  1.00  0.00    -0.325 N
ATOM     11  H3  UNL     1      -6.086  17.910  20.875  1.00  0.00     0.169 HD
BRANCH  10  12
HETATM   12  C5  UNL     1      -5.892  18.906  19.073  1.00  0.00     0.142 A
HETATM   13  N2  UNL     1      -4.985  19.252  18.139  1.00  0.00    -0.175 N
HETATM   14  C4  UNL     1      -5.201  20.253  17.262  1.00  0.00     0.681 A
ATOM     15  H2  UNL     1      -4.105  18.738  18.092  1.00  0.00     0.186 HD
HETATM   16  N11 UNL     1      -6.368  20.910  17.349  1.00  0.00    -0.177 N
HETATM   17  C21 UNL     1      -7.311  20.610  18.261  1.00  0.00     0.152 A
ATOM     18  H11 UNL     1      -6.548  21.671  16.694  1.00  0.00     0.185 HD
HETATM   19  C19 UNL     1      -7.108  19.592  19.162  1.00  0.00     0.086 A
HETATM   20  N10 UNL     1      -8.534  21.352  18.295  1.00  0.00    -0.081 NA
BRANCH  14  21
HETATM   21  N1  UNL     1      -4.284  20.534  16.387  1.00  0.00    -0.224 N
ATOM     22  H1  UNL     1      -3.313  20.516  16.696  1.00  0.00     0.177 HD
BRANCH  21  23
HETATM   23  C3  UNL     1      -4.540  20.867  15.025  1.00  0.00     0.164 C
BRANCH  23  24
HETATM   24  C2  UNL     1      -4.535  19.650  14.124  1.00  0.00     0.187 C
BRANCH  24  25
HETATM   25  O1  UNL     1      -5.320  19.817  12.994  1.00  0.00    -0.394 OA
HETATM   26  C1  UNL     1      -6.061  20.969  13.138  1.00  0.00     0.201 C
ENDBRANCH  24  25
ENDBRANCH  23  24
ENDBRANCH  21  23
ENDBRANCH  14  21
BRANCH  19  27
HETATM   27  S2  UNL     1      -8.304  19.139  20.398  1.00  0.00    -0.127 SA
HETATM   28  C20 UNL     1      -9.562  18.025  19.781  1.00  0.00     0.096 C
ENDBRANCH  19  27
ENDBRANCH  10  12
ENDBRANCH   1  10
BRANCH   9  29
HETATM   29  N8  UNL     1      -3.670  17.400  21.825  1.00  0.00    -0.301 N
HETATM   30  N9  UNL     1      -2.596  18.073  21.900  1.00  0.00    -0.344 N
ATOM     31  H92 UNL     1      -1.910  18.017  21.146  1.00  0.00     0.176 HD
ATOM     32  H91 UNL     1      -2.443  18.659  22.720  1.00  0.00     0.176 HD
ATOM     33  H8  UNL     1      -4.366  17.445  22.570  1.00  0.00     0.186 HD
ENDBRANCH   9  29
BRANCH   4  34
HETATM   34  C8  UNL     1      -4.346  14.067  17.395  1.00  0.00     0.053 A
HETATM   35  C9  UNL     1      -3.516  13.933  16.320  1.00  0.00     0.050 A
HETATM   36  C10 UNL     1      -3.853  13.034  15.377  1.00  0.00     0.075 A
HETATM   37 CL1  UNL     1      -2.855  12.754  13.905  1.00  0.00    -0.081 Cl
HETATM   38  C11 UNL     1      -4.990  12.317  15.545  1.00  0.00     0.132 A
HETATM   39  S1  UNL     1      -5.575  12.934  17.059  1.00  0.00    -0.060 SA
BRANCH  38  40
HETATM   40  O2  UNL     1      -5.676  11.354  14.879  1.00  0.00    -0.335 OA
BRANCH  40  41
HETATM   41  C12 UNL     1      -6.471  11.319  13.757  1.00  0.00     0.155 C
HETATM   42  C13 UNL     1      -6.987  12.718  13.528  1.00  0.00     0.036 C
HETATM   43  C14 UNL     1      -7.229  13.056  12.102  1.00  0.00     0.030 C
HETATM   44  C15 UNL     1      -7.413  11.766  11.327  1.00  0.00     0.232 C
HETATM   45  N5  UNL     1      -6.124  11.107  11.324  1.00  0.00    -0.073 N
HETATM   46  C16 UNL     1      -5.627  10.809  12.619  1.00  0.00     0.264 C
ATOM     47  H52 UNL     1      -6.153  10.265  10.749  1.00  0.00     0.277 HD
ATOM     48  H51 UNL     1      -5.443  11.652  10.796  1.00  0.00     0.277 HD
ENDBRANCH  40  41
ENDBRANCH  38  40
ENDBRANCH   4  34
TORSDOF 11
ENDMDL