MODEL 1
REMARK VINA RESULT: -6.874856237      0.000      0.000
REMARK  12 active torsions:
REMARK  status: ('A' for Active; 'I' for Inactive)
REMARK    1  A    between atoms: C2_3  and  O2_5
REMARK    2  A    between atoms: O2_5  and  C3_6
REMARK    3  A    between atoms: C4_7  and  N2_8
REMARK    4  A    between atoms: N2_8  and  C5_10
REMARK    5  A    between atoms: C12_22  and  O4_23
REMARK    6  A    between atoms: C14_27  and  C15_28
REMARK    7  A    between atoms: C16_29  and  C17_30
REMARK    8  A    between atoms: C17_30  and  C18_32
REMARK    9  A    between atoms: C18_32  and  C19_33
REMARK   10  A    between atoms: N5_34  and  N6_36
REMARK   11  A    between atoms: N6_36  and  C20_38
REMARK   12  A    between atoms: C21_41  and  O6_42
ROOT
HETATM    1  C1  UNL     1      -5.896  11.448  14.624  1.00  0.00     0.235 C
HETATM    2  N1  UNL     1      -5.141  12.473  14.169  1.00  0.00    -0.370 NA
HETATM    3  C2  UNL     1      -4.388  13.496  13.713  1.00  0.00     0.444 C
HETATM    4  O1  UNL     1      -4.271  13.980  12.557  1.00  0.00    -0.221 OA
ENDROOT
BRANCH   3   5
HETATM    5  O2  UNL     1      -3.550  14.212  14.648  1.00  0.00    -0.245 OA
BRANCH   5   6
HETATM    6  C3  UNL     1      -2.204  13.945  14.761  1.00  0.00     0.145 A
HETATM    7  C4  UNL     1      -1.303  14.770  14.084  1.00  0.00     0.106 A
HETATM    8  C12 UNL     1       0.036  14.527  14.186  1.00  0.00     0.118 A
HETATM    9  C13 UNL     1       0.482  13.443  14.975  1.00  0.00     0.082 A
HETATM   10 CL1  UNL     1       2.225  13.230  14.975  1.00  0.00    -0.080 Cl
HETATM   11  C14 UNL     1      -0.355  12.616  15.648  1.00  0.00     0.025 A
HETATM   12  C21 UNL     1      -1.722  12.910  15.511  1.00  0.00     0.116 A
BRANCH   7  13
HETATM   13  N2  UNL     1      -1.837  15.811  13.328  1.00  0.00    -0.333 N
ATOM     14  H2  UNL     1      -2.098  15.604  12.364  1.00  0.00     0.168 HD
BRANCH  13  15
HETATM   15  C5  UNL     1      -2.051  17.159  13.797  1.00  0.00     0.173 A
HETATM   16  N3  UNL     1      -3.192  17.718  14.017  1.00  0.00    -0.345 N
HETATM   17  C6  UNL     1      -3.067  19.062  14.472  1.00  0.00     0.107 A
ATOM     18  H3  UNL     1      -4.087  17.249  13.881  1.00  0.00     0.163 HD
HETATM   19  C7  UNL     1      -3.730  20.063  13.536  1.00  0.00     0.054 C
HETATM   20  C10 UNL     1      -3.828  19.325  15.753  1.00  0.00     0.054 C
HETATM   21  N4  UNL     1      -1.654  19.299  14.570  1.00  0.00    -0.328 N
HETATM   22  C8  UNL     1      -3.760  21.316  14.383  1.00  0.00     0.004 C
HETATM   23  C9  UNL     1      -3.794  20.831  15.823  1.00  0.00     0.004 C
HETATM   24  C11 UNL     1      -1.006  18.097  14.126  1.00  0.00     0.287 A
ATOM     25  H4  UNL     1      -1.201  20.154  14.891  1.00  0.00     0.165 HD
HETATM   26  O3  UNL     1       0.246  17.949  14.060  1.00  0.00    -0.264 OA
ENDBRANCH  13  15
ENDBRANCH   7  13
BRANCH   8  27
HETATM   27  O4  UNL     1       0.919  15.351  13.520  1.00  0.00    -0.357 OA
ATOM     28  H4  UNL     1       0.749  16.285  13.495  1.00  0.00     0.218 HD
ENDBRANCH   8  27
BRANCH  11  29
HETATM   29  C15 UNL     1       0.079  11.528  16.475  1.00  0.00     0.020 C
HETATM   30  C16 UNL     1       0.653  10.410  16.231  1.00  0.00     0.051 C
BRANCH  30  31
HETATM   31  C17 UNL     1       0.964   9.479  17.331  1.00  0.00     0.154 C
HETATM   32  O5  UNL     1       2.135   9.002  17.393  1.00  0.00    -0.293 OA
BRANCH  31  33
HETATM   33  C18 UNL     1      -0.027   9.067  18.359  1.00  0.00     0.129 C
BRANCH  33  34
HETATM   34  C19 UNL     1       0.765   8.539  19.496  1.00  0.00     0.088 C
HETATM   35  N5  UNL     1       1.524   9.351  20.171  1.00  0.00    -0.313 N
ATOM     36  H5  UNL     1       1.607  10.344  19.955  1.00  0.00     0.185 HD
BRANCH  35  37
HETATM   37  N6  UNL     1       2.227   8.734  21.233  1.00  0.00    -0.279 N
ATOM     38  H6  UNL     1       1.722   8.445  22.072  1.00  0.00     0.189 HD
BRANCH  37  39
HETATM   39  C20 UNL     1       3.605   8.517  21.144  1.00  0.00     0.199 C
HETATM   40  N7  UNL     1       4.331   8.537  19.943  1.00  0.00    -0.068 NA
HETATM   41  S1  UNL     1       4.417   8.194  22.542  1.00  0.00    -0.043 SA
ENDBRANCH  37  39
ENDBRANCH  35  37
ENDBRANCH  33  34
ENDBRANCH  31  33
ENDBRANCH  30  31
ENDBRANCH  11  29
BRANCH  12  42
HETATM   42  O6  UNL     1      -2.626  12.093  16.182  1.00  0.00    -0.352 OA
HETATM   43  C22 UNL     1      -3.171  12.518  17.414  1.00  0.00     0.210 C
ENDBRANCH  12  42
ENDBRANCH   5   6
ENDBRANCH   3   5
TORSDOF 11
ENDMDL