MODEL 3
REMARK VINA RESULT: -7.311469036     12.583     15.641
REMARK  10 active torsions:
REMARK  status: ('A' for Active; 'I' for Inactive)
REMARK    1  A    between atoms: O1_2  and  N1_3
REMARK    2  A    between atoms: C4_8  and  C5_9
REMARK    3  A    between atoms: C5_9  and  O2_10
REMARK    4  A    between atoms: O2_10  and  C6_11
REMARK    5  A    between atoms: C6_11  and  C7_13
REMARK    6  A    between atoms: C8_14  and  C9_15
REMARK    7  A    between atoms: C11_17  and  O4_18
REMARK    8  A    between atoms: N2_25  and  N3_27
REMARK       I    between atoms: N3_27  and  C16_29
REMARK    9  A    between atoms: C16_29  and  C17_31
REMARK   10  A    between atoms: C19_36  and  N5_37
ROOT
HETATM    1  N1  UNL     1      -2.345   9.345  22.511  1.00  0.00    -0.274 N
ATOM      2  H1  UNL     1      -3.014   9.781  21.875  1.00  0.00     0.193 HD
HETATM    3  C2  UNL     1      -1.092   9.429  22.265  1.00  0.00     0.029 C
HETATM    4  C3  UNL     1      -0.113   8.781  23.213  1.00  0.00     0.130 C
HETATM    5  S1  UNL     1       0.651   7.444  22.202  1.00  0.00    -0.151 SA
HETATM    6  C4  UNL     1       0.665   8.070  20.519  1.00  0.00     0.032 C
HETATM    7  C13 UNL     1      -0.586   7.634  19.824  1.00  0.00     0.028 C
HETATM    8  C14 UNL     1      -1.317   8.721  19.110  1.00  0.00     0.056 C
HETATM    9  C15 UNL     1      -1.466   9.969  19.900  1.00  0.00     0.013 C
HETATM   10  N2  UNL     1      -2.332  10.850  19.584  1.00  0.00    -0.305 N
ATOM     11  H2  UNL     1      -2.922  10.670  18.772  1.00  0.00     0.186 HD
HETATM   12  C21 UNL     1      -0.567  10.145  21.066  1.00  0.00     0.083 C
HETATM   13  C22 UNL     1       0.774   9.583  20.609  1.00  0.00     0.039 C
ENDROOT
BRANCH  10  14
HETATM   14  N3  UNL     1      -2.525  12.051  20.284  1.00  0.00    -0.266 N
HETATM   15  C16 UNL     1      -2.047  13.232  19.709  1.00  0.00     0.278 C
HETATM   16  O6  UNL     1      -1.459  13.102  18.559  1.00  0.00    -0.266 OA
ATOM     17  H3  UNL     1      -3.001  12.062  21.186  1.00  0.00     0.190 HD
BRANCH  15  18
HETATM   18  C17 UNL     1      -2.152  14.556  20.280  1.00  0.00     0.141 A
HETATM   19  C18 UNL     1      -3.305  15.320  20.021  1.00  0.00     0.140 A
HETATM   20 CL1  UNL     1      -4.544  14.609  19.022  1.00  0.00    -0.063 Cl
HETATM   21  N4  UNL     1      -3.470  16.556  20.514  1.00  0.00    -0.180 N
HETATM   22  C19 UNL     1      -2.542  17.141  21.287  1.00  0.00     0.679 A
ATOM     23  H4  UNL     1      -4.325  17.066  20.294  1.00  0.00     0.185 HD
HETATM   24  N6  UNL     1      -1.442  16.431  21.544  1.00  0.00    -0.155 N
HETATM   25  C20 UNL     1      -1.221  15.169  21.068  1.00  0.00     0.278 A
ATOM     26  H6  UNL     1      -0.724  16.854  22.131  1.00  0.00     0.187 HD
HETATM   27  O7  UNL     1      -0.150  14.580  21.365  1.00  0.00    -0.266 OA
BRANCH  22  28
HETATM   28  N5  UNL     1      -2.701  18.327  21.761  1.00  0.00    -0.234 N
ATOM     29  H52 UNL     1      -3.552  18.860  21.586  1.00  0.00     0.174 HD
ATOM     30  H51 UNL     1      -1.986  18.782  22.328  1.00  0.00     0.174 HD
ENDBRANCH  22  28
ENDBRANCH  15  18
ENDBRANCH  10  14
BRANCH   6  31
HETATM   31  C5  UNL     1       1.884   7.600  19.782  1.00  0.00     0.199 C
BRANCH  31  32
HETATM   32  O2  UNL     1       2.266   8.180  18.628  1.00  0.00    -0.317 OA
BRANCH  32  33
HETATM   33  C6  UNL     1       1.861   8.268  17.351  1.00  0.00     0.282 C
HETATM   34  O3  UNL     1       1.436   7.232  16.788  1.00  0.00    -0.260 OA
BRANCH  33  35
HETATM   35  C7  UNL     1       1.887   9.523  16.570  1.00  0.00     0.085 C
HETATM   36  C8  UNL     1       0.823  10.292  16.544  1.00  0.00     0.043 C
BRANCH  36  37
HETATM   37  C9  UNL     1       0.804  11.547  15.782  1.00  0.00     0.077 A
HETATM   38  C10 UNL     1       1.899  12.248  15.351  1.00  0.00     0.075 A
HETATM   39  C11 UNL     1       1.413  13.360  14.677  1.00  0.00     0.090 A
HETATM   40  C12 UNL     1       0.047  13.270  14.736  1.00  0.00     0.179 A
HETATM   41  O5  UNL     1      -0.269  12.193  15.392  1.00  0.00    -0.320 OA
BRANCH  39  42
HETATM   42  O4  UNL     1       2.207  14.347  14.074  1.00  0.00    -0.359 OA
ATOM     43  H4  UNL     1       2.437  14.375  13.152  1.00  0.00     0.217 HD
ENDBRANCH  39  42
ENDBRANCH  36  37
ENDBRANCH  33  35
ENDBRANCH  32  33
ENDBRANCH  31  32
ENDBRANCH   6  31
BRANCH   1  44
HETATM   44  O1  UNL     1      -2.791   8.686  23.604  1.00  0.00    -0.285 OA
HETATM   45  C1  UNL     1      -3.684   7.576  23.509  1.00  0.00     0.237 C
ENDBRANCH   1  44
TORSDOF 10
ENDMDL