MODEL 5
REMARK VINA RESULT: -4.917030573      4.162      5.527
REMARK  10 active torsions:
REMARK  status: ('A' for Active; 'I' for Inactive)
REMARK    1  A    between atoms: O1_2  and  C2_3
REMARK    2  A    between atoms: C3_4  and  N1_5
REMARK       I    between atoms: N1_5  and  C4_7
REMARK    3  A    between atoms: C4_7  and  C5_9
REMARK    4  A    between atoms: C7_13  and  C8_14
REMARK    5  A    between atoms: C15_23  and  C16_24
REMARK    6  A    between atoms: C15_23  and  C17_27
REMARK    7  A    between atoms: C17_27  and  O6_28
REMARK    8  A    between atoms: C17_27  and  N4_30
REMARK    9  A    between atoms: N4_30  and  C19_32
REMARK   10  A    between atoms: C19_32  and  C20_33
ROOT
HETATM    1  C2  UNL     1      -7.504   8.152   7.865  1.00  0.00     0.106 A
HETATM    2  C3  UNL     1      -6.538   9.159   8.078  1.00  0.00     0.069 A
HETATM    3  C11 UNL     1      -6.111   9.900   7.029  1.00  0.00     0.035 A
HETATM    4  C12 UNL     1      -6.640   9.634   5.794  1.00  0.00     0.032 A
HETATM    5  C13 UNL     1      -7.601   8.643   5.538  1.00  0.00     0.045 A
HETATM    6  C14 UNL     1      -8.029   7.901   6.632  1.00  0.00     0.042 A
HETATM    7  C15 UNL     1      -9.211   7.011   6.453  1.00  0.00     0.199 C
HETATM    8  S2  UNL     1      -8.904   6.029   4.957  1.00  0.00    -0.059 SA
HETATM    9  C21 UNL     1      -8.723   7.346   3.703  1.00  0.00     0.140 C
HETATM   10  N5  UNL     1      -9.264   7.277   2.564  1.00  0.00    -0.380 N
ATOM     11  H51 UNL     1      -9.163   8.012   1.864  1.00  0.00     0.158 HD
ATOM     12  H52 UNL     1      -9.848   6.511   2.228  1.00  0.00     0.158 HD
HETATM   13  N6  UNL     1      -7.915   8.406   4.167  1.00  0.00    -0.337 N
ATOM     14  H6  UNL     1      -7.528   9.046   3.473  1.00  0.00     0.168 HD
ENDROOT
BRANCH   2  15
HETATM   15  N1  UNL     1      -6.075   9.385   9.388  1.00  0.00    -0.320 N
HETATM   16  C4  UNL     1      -6.440  10.353  10.319  1.00  0.00     0.260 C
HETATM   17  O2  UNL     1      -7.320  11.169   9.949  1.00  0.00    -0.267 OA
ATOM     18  H1  UNL     1      -5.356   8.736   9.706  1.00  0.00     0.169 HD
BRANCH  16  19
HETATM   19  C5  UNL     1      -5.902  10.520  11.689  1.00  0.00     0.089 A
HETATM   20  C6  UNL     1      -5.534   9.361  12.382  1.00  0.00     0.105 A
HETATM   21  N2  UNL     1      -5.584   7.995  11.992  1.00  0.00    -0.093 NA
HETATM   22  S1  UNL     1      -4.980   9.937  13.875  1.00  0.00    -0.069 SA
HETATM   23  C7  UNL     1      -5.206  11.606  13.634  1.00  0.00     0.077 A
HETATM   24  C10 UNL     1      -5.724  11.665  12.358  1.00  0.00     0.085 A
HETATM   25  N3  UNL     1      -6.028  13.004  11.860  1.00  0.00    -0.100 NA
BRANCH  23  26
HETATM   26  C8  UNL     1      -4.910  12.699  14.584  1.00  0.00     0.164 C
HETATM   27  C9  UNL     1      -3.690  13.484  14.424  1.00  0.00     0.097 C
HETATM   28  O3  UNL     1      -5.717  12.919  15.499  1.00  0.00    -0.292 OA
ENDBRANCH  23  26
ENDBRANCH  16  19
ENDBRANCH   2  15
BRANCH   1  29
HETATM   29  O1  UNL     1      -7.881   7.415   9.021  1.00  0.00    -0.353 OA
HETATM   30  C1  UNL     1      -6.933   6.369   9.392  1.00  0.00     0.210 C
ENDBRANCH   1  29
BRANCH   7  31
HETATM   31  C16 UNL     1     -10.285   8.046   5.988  1.00  0.00     0.206 C
HETATM   32  O4  UNL     1     -10.209   9.232   6.294  1.00  0.00    -0.646 OA
HETATM   33  O5  UNL     1     -11.293   7.490   5.220  1.00  0.00    -0.646 OA
ENDBRANCH   7  31
BRANCH   7  34
HETATM   34  C17 UNL     1      -9.840   6.355   7.541  1.00  0.00     0.149 C
BRANCH  34  35
HETATM   35  O6  UNL     1     -10.629   7.149   8.251  1.00  0.00    -0.348 OA
ATOM     36  H6  UNL     1     -11.012   6.723   9.009  1.00  0.00     0.219 HD
ENDBRANCH  34  35
BRANCH  34  37
HETATM   37  N4  UNL     1      -9.817   5.059   8.025  1.00  0.00    -0.367 N
HETATM   38  C18 UNL     1     -10.303   4.805   9.402  1.00  0.00     0.151 C
BRANCH  37  39
HETATM   39  C19 UNL     1      -9.400   3.891   7.323  1.00  0.00     0.139 C
BRANCH  39  40
HETATM   40  C20 UNL     1      -8.155   3.234   7.906  1.00  0.00     0.134 C
HETATM   41 CL1  UNL     1      -6.773   3.714   6.903  1.00  0.00    -0.129 Cl
ENDBRANCH  39  40
ENDBRANCH  37  39
ENDBRANCH  34  37
ENDBRANCH   7  34
TORSDOF 10
ENDMDL