MODEL 1
REMARK VINA RESULT: -5.828505001      0.000      0.000
REMARK  12 active torsions:
REMARK  status: ('A' for Active; 'I' for Inactive)
REMARK    1  A    between atoms: N1_1  and  C1_4
REMARK    2  A    between atoms: C2_7  and  N3_8
REMARK    3  A    between atoms: C9_19  and  N5_20
REMARK    4  A    between atoms: C11_22  and  C12_23
REMARK    5  A    between atoms: C12_23  and  N6_24
REMARK    6  A    between atoms: N6_24  and  C13_26
REMARK    7  A    between atoms: C13_26  and  C14_27
REMARK    8  A    between atoms: C16_29  and  C17_30
REMARK    9  A    between atoms: C16_29  and  C18_33
REMARK   10  A    between atoms: C17_30  and  O1_31
REMARK   11  A    between atoms: C18_33  and  O2_34
REMARK   12  A    between atoms: C19_37  and  C20_38
ROOT
HETATM    1  N5  UNL     1      -7.376  12.209  13.793  1.00  0.00    -0.257 N
HETATM    2  C10 UNL     1      -6.092  12.267  13.420  1.00  0.00     0.149 A
HETATM    3  C11 UNL     1      -6.079  10.914  13.181  1.00  0.00     0.081 A
HETATM    4  N8  UNL     1      -7.348  10.909  13.559  1.00  0.00    -0.291 N
ATOM      5  H8  UNL     1      -8.048  10.172  13.639  1.00  0.00     0.187 HD
ENDROOT
BRANCH   3   6
HETATM    6  C12 UNL     1      -5.096   9.850  12.707  1.00  0.00     0.119 C
BRANCH   6   7
HETATM    7  N6  UNL     1      -5.314   9.542  11.375  1.00  0.00    -0.376 N
ATOM      8  H6  UNL     1      -4.982  10.228  10.697  1.00  0.00     0.164 HD
BRANCH   7   9
HETATM    9  C13 UNL     1      -5.921   8.428  10.854  1.00  0.00     0.068 C
BRANCH   9  10
HETATM   10  C14 UNL     1      -6.661   8.511   9.571  1.00  0.00     0.064 C
HETATM   11  C15 UNL     1      -5.895   8.405   8.317  1.00  0.00     0.055 C
HETATM   12  C16 UNL     1      -6.621   9.329   7.371  1.00  0.00     0.105 C
HETATM   13  O3  UNL     1      -7.429  10.150   8.108  1.00  0.00    -0.362 OA
HETATM   14  C19 UNL     1      -7.315   9.885   9.441  1.00  0.00     0.206 C
BRANCH  12  15
HETATM   15  C17 UNL     1      -7.576   8.443   6.544  1.00  0.00     0.204 C
BRANCH  15  16
HETATM   16  O1  UNL     1      -8.811   9.056   6.500  1.00  0.00    -0.398 OA
ATOM     17  H1  UNL     1      -9.328   8.642   5.819  1.00  0.00     0.209 HD
ENDBRANCH  15  16
ENDBRANCH  12  15
BRANCH  12  18
HETATM   18  C18 UNL     1      -5.745  10.007   6.367  1.00  0.00     0.204 C
BRANCH  18  19
HETATM   19  O2  UNL     1      -6.500  10.482   5.310  1.00  0.00    -0.398 OA
ATOM     20  H2  UNL     1      -6.350   9.957   4.533  1.00  0.00     0.209 HD
ENDBRANCH  18  19
ENDBRANCH  12  18
BRANCH  14  21
HETATM   21  C20 UNL     1      -8.665   9.797  10.046  1.00  0.00     0.153 A
HETATM   22  N7  UNL     1      -9.785   9.443   9.401  1.00  0.00    -0.346 N
HETATM   23  C21 UNL     1     -10.825   9.464  10.232  1.00  0.00     0.114 A
ATOM     24  H7  UNL     1      -9.835   9.192   8.414  1.00  0.00     0.167 HD
HETATM   25  C22 UNL     1     -10.311   9.856  11.456  1.00  0.00     0.161 A
HETATM   26  O4  UNL     1      -9.024  10.039  11.288  1.00  0.00    -0.306 OA
ENDBRANCH  14  21
ENDBRANCH   9  10
ENDBRANCH   7   9
ENDBRANCH   6   7
ENDBRANCH   3   6
BRANCH   1  27
HETATM   27  C9  UNL     1      -8.307  13.186  14.243  1.00  0.00     0.114 A
HETATM   28  S1  UNL     1      -8.612  13.745  15.842  1.00  0.00    -0.055 SA
HETATM   29  C8  UNL     1      -9.833  14.869  15.512  1.00  0.00     0.105 A
HETATM   30  C7  UNL     1      -9.985  14.791  14.147  1.00  0.00     0.094 A
HETATM   31 CL1  UNL     1     -10.694  15.894  16.676  1.00  0.00    -0.074 Cl
HETATM   32  N4  UNL     1     -10.899  15.556  13.452  1.00  0.00    -0.188 N
HETATM   33  C23 UNL     1      -9.203  13.927  13.496  1.00  0.00     0.073 A
HETATM   34  C2  UNL     1     -11.058  15.488  12.126  1.00  0.00     0.682 A
ATOM     35  H4  UNL     1     -11.483  16.206  13.976  1.00  0.00     0.184 HD
HETATM   36  N2  UNL     1     -10.266  14.612  11.452  1.00  0.00    -0.176 N
HETATM   37  C1  UNL     1      -9.367  13.853  12.095  1.00  0.00     0.130 A
ATOM     38  H2  UNL     1     -10.358  14.530  10.440  1.00  0.00     0.186 HD
BRANCH  34  39
HETATM   39  N3  UNL     1     -12.003  16.279  11.429  1.00  0.00    -0.218 N
HETATM   40  C3  UNL     1     -12.453  17.594  11.819  1.00  0.00     0.141 C
HETATM   41  C4  UNL     1     -12.361  18.334  10.483  1.00  0.00     0.022 C
HETATM   42  C5  UNL     1     -12.997  17.294   9.556  1.00  0.00     0.022 C
HETATM   43  C6  UNL     1     -12.707  15.960  10.214  1.00  0.00     0.141 C
ENDBRANCH  34  39
BRANCH  37  44
HETATM   44  N1  UNL     1      -8.644  13.042  11.397  1.00  0.00    -0.384 N
ATOM     45  H12 UNL     1      -7.990  13.403  10.701  1.00  0.00     0.157 HD
ATOM     46  H11 UNL     1      -8.748  12.041  11.562  1.00  0.00     0.157 HD
ENDBRANCH  37  44
ENDBRANCH   1  27
TORSDOF 12
ENDMDL