MODEL 5
REMARK VINA RESULT: -5.227950604      5.188      8.108
REMARK  10 active torsions:
REMARK  status: ('A' for Active; 'I' for Inactive)
REMARK    1  A    between atoms: O1_2  and  C2_3
REMARK    2  A    between atoms: C3_4  and  C4_5
REMARK    3  A    between atoms: C4_5  and  C5_6
REMARK    4  A    between atoms: C6_7  and  O2_8
REMARK    5  A    between atoms: C14_30  and  C15_31
REMARK    6  A    between atoms: N5_33  and  O5_35
REMARK    7  A    between atoms: O5_35  and  C17_36
REMARK    8  A    between atoms: C17_36  and  C18_37
REMARK    9  A    between atoms: C18_37  and  N6_38
REMARK   10  A    between atoms: C19_42  and  O6_43
ROOT
HETATM    1  C2  UNL     1      -1.018   7.537  16.151  1.00  0.00     0.099 A
HETATM    2  C3  UNL     1      -1.287   8.759  16.661  1.00  0.00    -0.017 A
HETATM    3  C9  UNL     1      -2.515   9.331  16.388  1.00  0.00     0.026 A
HETATM    4  C10 UNL     1      -3.540   8.738  15.634  1.00  0.00     0.024 A
HETATM    5  C11 UNL     1      -4.852   9.298  15.554  1.00  0.00     0.044 C
HETATM    6  N3  UNL     1      -5.644   8.777  16.693  1.00  0.00    -0.325 N
ATOM      7  H3  UNL     1      -5.836   7.800  16.914  1.00  0.00     0.174 HD
HETATM    8  S2  UNL     1      -6.199  10.231  17.613  1.00  0.00     0.031 SA
HETATM    9  C12 UNL     1      -6.794  11.306  16.239  1.00  0.00     0.252 C
HETATM   10  O4  UNL     1      -7.188  12.460  16.396  1.00  0.00    -0.277 OA
HETATM   11  C13 UNL     1      -6.767  10.657  14.947  1.00  0.00     0.078 C
HETATM   12  N4  UNL     1      -7.798  10.824  14.187  1.00  0.00    -0.398 N
ATOM     13  H41 UNL     1      -7.779  10.367  13.276  1.00  0.00     0.156 HD
ATOM     14  H42 UNL     1      -8.601  11.368  14.502  1.00  0.00     0.156 HD
HETATM   15  C14 UNL     1      -5.556   9.837  14.473  1.00  0.00     0.138 C
HETATM   16  C19 UNL     1      -3.229   7.449  15.143  1.00  0.00     0.104 A
HETATM   17  C21 UNL     1      -1.992   6.852  15.382  1.00  0.00     0.102 A
HETATM   18 CL1  UNL     1      -1.559   5.269  14.778  1.00  0.00    -0.078 Cl
ENDROOT
BRANCH  16  19
HETATM   19  O6  UNL     1      -4.059   6.665  14.433  1.00  0.00    -0.353 OA
HETATM   20  C20 UNL     1      -4.401   6.587  13.114  1.00  0.00     0.210 C
ENDBRANCH  16  19
BRANCH   2  21
HETATM   21  C4  UNL     1      -0.425   9.307  17.826  1.00  0.00     0.090 C
BRANCH  21  22
HETATM   22  C5  UNL     1       0.088  10.596  17.134  1.00  0.00     0.065 A
HETATM   23  C6  UNL     1      -0.582  11.783  17.186  1.00  0.00     0.154 A
HETATM   24  N1  UNL     1      -0.330  12.815  16.351  1.00  0.00    -0.313 N
HETATM   25  C7  UNL     1       0.633  12.706  15.422  1.00  0.00     0.180 A
ATOM     26  H1  UNL     1      -0.871  13.676  16.426  1.00  0.00     0.170 HD
HETATM   27  S1  UNL     1       0.924  13.909  14.347  1.00  0.00    -0.040 SA
HETATM   28  N2  UNL     1       1.318  11.564  15.346  1.00  0.00    -0.299 N
HETATM   29  C8  UNL     1       1.082  10.492  16.176  1.00  0.00     0.258 A
ATOM     30  H2  UNL     1       2.051  11.482  14.640  1.00  0.00     0.171 HD
HETATM   31  O3  UNL     1       1.801   9.498  16.010  1.00  0.00    -0.267 OA
BRANCH  23  32
HETATM   32  O2  UNL     1      -1.577  12.019  18.146  1.00  0.00    -0.345 OA
ATOM     33  H2  UNL     1      -2.181  12.748  18.064  1.00  0.00     0.219 HD
ENDBRANCH  23  32
ENDBRANCH  21  22
ENDBRANCH   2  21
BRANCH  15  34
HETATM   34  C15 UNL     1      -5.033  10.668  13.391  1.00  0.00     0.022 C
HETATM   35  C16 UNL     1      -5.192  10.309  11.963  1.00  0.00     0.066 C
HETATM   36  N5  UNL     1      -4.462  11.751  13.654  1.00  0.00    -0.274 N
ATOM     37  H5  UNL     1      -4.488  11.821  14.671  1.00  0.00     0.193 HD
BRANCH  36  38
HETATM   38  O5  UNL     1      -3.857  12.820  13.265  1.00  0.00    -0.279 OA
BRANCH  38  39
HETATM   39  C17 UNL     1      -3.252  13.699  14.290  1.00  0.00     0.228 C
BRANCH  39  40
HETATM   40  C18 UNL     1      -3.773  13.125  15.612  1.00  0.00     0.258 C
BRANCH  40  41
HETATM   41  N6  UNL     1      -3.618  13.973  16.702  1.00  0.00    -0.077 N
ATOM     42  H63 UNL     1      -4.050  13.568  17.533  1.00  0.00     0.274 HD
ATOM     43  H62 UNL     1      -2.644  13.992  17.004  1.00  0.00     0.274 HD
ATOM     44  H61 UNL     1      -3.962  14.921  16.547  1.00  0.00     0.274 HD
ENDBRANCH  40  41
ENDBRANCH  39  40
ENDBRANCH  38  39
ENDBRANCH  36  38
ENDBRANCH  15  34
BRANCH   1  45
HETATM   45  O1  UNL     1       0.197   6.876  16.303  1.00  0.00    -0.354 OA
HETATM   46  C1  UNL     1       0.254   6.057  17.472  1.00  0.00     0.210 C
ENDBRANCH   1  45
TORSDOF 10
ENDMDL