MODEL 5
REMARK VINA RESULT: -6.617371266      2.905      4.755
REMARK  15 active torsions:
REMARK  status: ('A' for Active; 'I' for Inactive)
REMARK    1  A    between atoms: C3_5  and  C4_6
REMARK    2  A    between atoms: C6_9  and  O2_10
REMARK    3  A    between atoms: C7_12  and  C8_13
REMARK    4  A    between atoms: C8_13  and  O3_14
REMARK    5  A    between atoms: O3_14  and  C9_15
REMARK    6  A    between atoms: C9_15  and  O5_17
REMARK    7  A    between atoms: O5_17  and  C10_18
REMARK    8  A    between atoms: C11_19  and  C12_20
REMARK    9  A    between atoms: C12_20  and  C17_28
REMARK   10  A    between atoms: C13_21  and  C14_22
REMARK       I    between atoms: N2_23  and  C15_25
REMARK   11  A    between atoms: C19_31  and  O7_32
REMARK   12  A    between atoms: C20_34  and  O8_35
REMARK   13  A    between atoms: C21_37  and  O9_38
REMARK   14  A    between atoms: C22_40  and  O10_41
REMARK   15  A    between atoms: C24_43  and  O11_44
ROOT
HETATM    1  C12 UNL     1      -2.835  12.792  15.296  1.00  0.00    -0.018 C
HETATM    2  C13 UNL     1      -3.543  13.442  16.240  1.00  0.00     0.029 C
ENDROOT
BRANCH   1   3
HETATM    3  C11 UNL     1      -3.422  11.681  14.629  1.00  0.00     0.037 C
HETATM    4  C10 UNL     1      -4.241  11.683  13.622  1.00  0.00     0.149 C
BRANCH   4   5
HETATM    5  O5  UNL     1      -4.781  12.688  12.890  1.00  0.00    -0.268 OA
BRANCH   5   6
HETATM    6  C9  UNL     1      -6.097  12.774  12.540  1.00  0.00     0.411 C
HETATM    7  O4  UNL     1      -6.934  13.005  13.466  1.00  0.00    -0.229 OA
BRANCH   6   8
HETATM    8  O3  UNL     1      -6.577  12.627  11.245  1.00  0.00    -0.293 OA
BRANCH   8   9
HETATM    9  C8  UNL     1      -7.803  11.943  11.089  1.00  0.00     0.225 C
BRANCH   9  10
HETATM   10  C7  UNL     1      -7.658  10.480  11.172  1.00  0.00     0.037 A
HETATM   11  C6  UNL     1      -7.103   9.819   9.982  1.00  0.00     0.107 A
HETATM   12  C3  UNL     1      -6.901   8.516   9.905  1.00  0.00     0.113 A
HETATM   13  N1  UNL     1      -7.237   7.708  11.029  1.00  0.00    -0.349 N
HETATM   14  C2  UNL     1      -7.780   8.306  12.208  1.00  0.00     0.057 A
ATOM     15  H1  UNL     1      -7.089   6.699  10.993  1.00  0.00     0.166 HD
HETATM   16  C1  UNL     1      -8.113   7.616  13.269  1.00  0.00     0.046 C
HETATM   17  C24 UNL     1      -7.978   9.764  12.224  1.00  0.00     0.102 A
BRANCH  11  18
HETATM   18  O2  UNL     1      -6.756  10.575   8.845  1.00  0.00    -0.358 OA
ATOM     19  H2  UNL     1      -6.130  10.181   8.250  1.00  0.00     0.217 HD
ENDBRANCH  11  18
BRANCH  12  20
HETATM   20  C4  UNL     1      -6.334   7.907   8.682  1.00  0.00     0.174 C
HETATM   21  C5  UNL     1      -5.046   7.225   8.637  1.00  0.00     0.098 C
HETATM   22  O1  UNL     1      -7.007   7.983   7.618  1.00  0.00    -0.291 OA
ENDBRANCH  12  20
BRANCH  17  23
HETATM   23  O11 UNL     1      -8.504  10.399  13.344  1.00  0.00    -0.358 OA
ATOM     24  H11 UNL     1      -9.428  10.330  13.554  1.00  0.00     0.217 HD
ENDBRANCH  17  23
ENDBRANCH   9  10
ENDBRANCH   8   9
ENDBRANCH   6   8
ENDBRANCH   5   6
ENDBRANCH   4   5
ENDBRANCH   1   3
BRANCH   1  25
HETATM   25  C17 UNL     1      -1.477  13.260  15.060  1.00  0.00     0.035 A
HETATM   26  C18 UNL     1      -1.126  14.372  14.357  1.00  0.00     0.084 A
HETATM   27 CL1  UNL     1      -2.342  15.610  13.937  1.00  0.00    -0.080 Cl
HETATM   28  C19 UNL     1       0.190  14.677  14.059  1.00  0.00     0.124 A
HETATM   29  C20 UNL     1       1.188  13.806  14.505  1.00  0.00     0.137 A
HETATM   30  C21 UNL     1       0.827  12.700  15.211  1.00  0.00     0.136 A
HETATM   31  C22 UNL     1      -0.488  12.378  15.518  1.00  0.00     0.117 A
BRANCH  28  32
HETATM   32  O7  UNL     1       0.542  15.808  13.339  1.00  0.00    -0.356 OA
ATOM     33  H7  UNL     1       1.441  15.993  13.091  1.00  0.00     0.218 HD
ENDBRANCH  28  32
BRANCH  29  34
HETATM   34  O8  UNL     1       2.500  14.114  14.204  1.00  0.00    -0.356 OA
ATOM     35  H8  UNL     1       3.072  13.408  13.926  1.00  0.00     0.218 HD
ENDBRANCH  29  34
BRANCH  30  36
HETATM   36  O9  UNL     1       1.795  11.795  15.684  1.00  0.00    -0.356 OA
ATOM     37  H9  UNL     1       1.763  10.876  15.445  1.00  0.00     0.218 HD
ENDBRANCH  30  36
BRANCH  31  38
HETATM   38  O10 UNL     1      -0.795  11.255  16.234  1.00  0.00    -0.352 OA
HETATM   39  C23 UNL     1      -0.795  11.109  17.635  1.00  0.00     0.210 C
ENDBRANCH  31  38
ENDBRANCH   1  25
BRANCH   2  40
HETATM   40  C14 UNL     1      -4.862  13.107  16.645  1.00  0.00     0.092 C
HETATM   41  N2  UNL     1      -5.291  13.570  17.805  1.00  0.00    -0.337 N
HETATM   42  C15 UNL     1      -4.505  14.371  18.645  1.00  0.00     0.217 C
ATOM     43  H2  UNL     1      -6.238  13.335  18.103  1.00  0.00     0.168 HD
HETATM   44  C16 UNL     1      -3.820  13.858  19.857  1.00  0.00     0.117 C
HETATM   45  O6  UNL     1      -4.353  15.612  18.375  1.00  0.00    -0.274 OA
ENDBRANCH   2  40
TORSDOF 15
ENDMDL