MODEL 2
REMARK VINA RESULT: -7.373080805      1.607      2.710
REMARK  12 active torsions:
REMARK  status: ('A' for Active; 'I' for Inactive)
REMARK    1  A    between atoms: C2_2  and  C3_7
REMARK    2  A    between atoms: N1_3  and  O1_5
REMARK    3  A    between atoms: C3_7  and  O2_8
REMARK    4  A    between atoms: C3_7  and  C21_39
REMARK    5  A    between atoms: O2_8  and  C4_9
REMARK    6  A    between atoms: C4_9  and  C6_11
REMARK    7  A    between atoms: C6_11  and  C7_12
REMARK    8  A    between atoms: C8_13  and  O3_14
REMARK    9  A    between atoms: C8_13  and  C9_16
REMARK   10  A    between atoms: C13_22  and  C14_23
REMARK   11  A    between atoms: N3_26  and  N4_28
REMARK   12  A    between atoms: C23_42  and  N8_43
ROOT
HETATM    1  C14 UNL     1      -4.931  21.496  13.988  1.00  0.00     0.141 C
HETATM    2  C15 UNL     1      -5.964  21.481  15.067  1.00  0.00     0.120 C
HETATM    3  N2  UNL     1      -6.751  21.452  15.905  1.00  0.00    -0.190 NA
HETATM    4  N3  UNL     1      -5.052  22.337  13.164  1.00  0.00    -0.288 N
ATOM      5  H3  UNL     1      -5.894  22.808  13.496  1.00  0.00     0.188 HD
ENDROOT
BRANCH   1   6
HETATM    6  C13 UNL     1      -3.927  20.465  14.115  1.00  0.00     0.045 A
HETATM    7  C12 UNL     1      -2.617  20.731  14.477  1.00  0.00     0.147 A
HETATM    8  C11 UNL     1      -1.707  19.700  14.585  1.00  0.00     0.050 A
HETATM    9  F1  UNL     1      -2.191  21.960  14.729  1.00  0.00    -0.204 F
HETATM   10  S1  UNL     1       0.045  19.809  14.924  1.00  0.00    -0.125 SA
HETATM   11  C19 UNL     1      -2.146  18.493  14.334  1.00  0.00     0.011 A
HETATM   12  C10 UNL     1       0.742  18.221  14.400  1.00  0.00     0.093 C
HETATM   13  C9  UNL     1      -0.215  17.218  13.790  1.00  0.00     0.079 C
HETATM   14  C20 UNL     1      -1.536  17.190  14.449  1.00  0.00     0.130 C
HETATM   15  N7  UNL     1      -2.782  16.760  13.906  1.00  0.00    -0.380 N
HETATM   16  C18 UNL     1      -3.359  18.088  13.972  1.00  0.00     0.039 A
ATOM     17  H7  UNL     1      -3.134  15.857  13.589  1.00  0.00     0.160 HD
HETATM   18  C17 UNL     1      -4.274  19.106  13.863  1.00  0.00     0.047 A
BRANCH  13  19
HETATM   19  C8  UNL     1       0.453  15.895  13.884  1.00  0.00     0.046 C
HETATM   20  C7  UNL     1      -0.218  14.778  13.974  1.00  0.00     0.008 C
BRANCH  20  21
HETATM   21  C6  UNL     1       0.424  13.468  14.066  1.00  0.00     0.061 C
BRANCH  21  22
HETATM   22  C4  UNL     1       0.700  13.021  15.487  1.00  0.00     0.122 C
HETATM   23  C5  UNL     1       1.094  11.560  15.526  1.00  0.00     0.040 C
BRANCH  22  24
HETATM   24  O2  UNL     1      -0.362  13.201  16.325  1.00  0.00    -0.369 OA
BRANCH  24  25
HETATM   25  C3  UNL     1      -1.109  12.053  16.565  1.00  0.00     0.219 C
BRANCH  25  26
HETATM   26  C2  UNL     1      -2.454  12.103  15.937  1.00  0.00     0.040 C
HETATM   27  C1  UNL     1      -3.063  13.419  15.629  1.00  0.00     0.068 C
HETATM   28  N1  UNL     1      -3.118  11.043  15.646  1.00  0.00    -0.275 N
ATOM     29  H1  UNL     1      -2.720  10.125  15.847  1.00  0.00     0.193 HD
BRANCH  28  30
HETATM   30  O1  UNL     1      -4.355  11.137  15.069  1.00  0.00    -0.290 OA
ATOM     31  H1  UNL     1      -4.620  11.936  14.629  1.00  0.00     0.244 HD
ENDBRANCH  28  30
ENDBRANCH  25  26
BRANCH  25  32
HETATM   32  C21 UNL     1      -1.244  11.989  18.074  1.00  0.00     0.052 A
HETATM   33  C22 UNL     1      -1.169  10.799  18.733  1.00  0.00     0.081 A
HETATM   34  S2  UNL     1      -1.377  11.271  20.358  1.00  0.00    -0.064 SA
HETATM   35  C23 UNL     1      -1.546  12.945  20.108  1.00  0.00     0.142 A
HETATM   36  N9  UNL     1      -1.437  13.077  18.788  1.00  0.00    -0.337 N
ATOM     37  H9  UNL     1      -1.501  13.993  18.344  1.00  0.00     0.168 HD
BRANCH  35  38
HETATM   38  N8  UNL     1      -1.740  13.890  21.003  1.00  0.00    -0.380 N
ATOM     39  H82 UNL     1      -1.752  14.899  20.857  1.00  0.00     0.158 HD
ATOM     40  H81 UNL     1      -1.913  13.790  22.004  1.00  0.00     0.158 HD
ENDBRANCH  35  38
ENDBRANCH  25  32
ENDBRANCH  24  25
ENDBRANCH  22  24
ENDBRANCH  21  22
ENDBRANCH  20  21
BRANCH  19  41
HETATM   41  O3  UNL     1       1.841  15.830  13.877  1.00  0.00    -0.365 OA
ATOM     42  H3  UNL     1       2.281  15.669  13.050  1.00  0.00     0.217 HD
ENDBRANCH  19  41
ENDBRANCH  13  19
ENDBRANCH   1   6
BRANCH   4  43
HETATM   43  N4  UNL     1      -4.791  23.027  12.121  1.00  0.00    -0.275 N
HETATM   44  C16 UNL     1      -5.518  23.145  11.058  1.00  0.00     0.215 C
HETATM   45  N5  UNL     1      -5.143  23.937   9.944  1.00  0.00    -0.065 NA
HETATM   46  N6  UNL     1      -6.755  22.430  11.036  1.00  0.00    -0.065 NA
ATOM     47  H4  UNL     1      -3.909  23.541  12.127  1.00  0.00     0.189 HD
ENDBRANCH   4  43
TORSDOF 12
ENDMDL