MODEL 4
REMARK VINA RESULT: -5.911150956      4.280      6.431
REMARK  14 active torsions:
REMARK  status: ('A' for Active; 'I' for Inactive)
REMARK    1  A    between atoms: O1_2  and  C2_3
REMARK    2  A    between atoms: C2_3  and  C3_5
REMARK    3  A    between atoms: C3_5  and  N1_6
REMARK    4  A    between atoms: C3_5  and  C19_37
REMARK    5  A    between atoms: N1_6  and  C4_7
REMARK    6  A    between atoms: C4_7  and  C5_8
REMARK    7  A    between atoms: C4_7  and  C13_28
REMARK       I    between atoms: C5_8  and  N2_10
REMARK    8  A    between atoms: N2_10  and  C6_12
REMARK    9  A    between atoms: C6_12  and  C7_13
REMARK   10  A    between atoms: C6_12  and  C10_25
REMARK   11  A    between atoms: C8_16  and  N4_17
REMARK   12  A    between atoms: C9_21  and  N5_22
REMARK   13  A    between atoms: C16_31  and  O6_32
REMARK   14  A    between atoms: C21_40  and  N6_41
ROOT
HETATM    1  C4  UNL     1      -9.981  14.070 -34.938  1.00  0.00     0.288 C
ENDROOT
BRANCH   1   2
HETATM    2  N1  UNL     1      -9.671  15.211 -34.329  1.00  0.00    -0.420 NA
BRANCH   2   3
HETATM    3  C3  UNL     1      -9.608  16.190 -33.601  1.00  0.00     0.203 C
BRANCH   3   4
HETATM    4  C2  UNL     1     -10.741  16.486 -32.701  1.00  0.00     0.325 C
HETATM    5  O2  UNL     1     -11.482  15.625 -32.259  1.00  0.00    -0.256 OA
BRANCH   4   6
HETATM    6  O1  UNL     1     -10.968  17.825 -32.339  1.00  0.00    -0.321 OA
HETATM    7  C1  UNL     1     -11.724  18.615 -33.225  1.00  0.00     0.213 C
ENDBRANCH   4   6
ENDBRANCH   3   4
BRANCH   3   8
HETATM    8  C19 UNL     1      -8.434  17.128 -33.592  1.00  0.00     0.087 A
HETATM    9  C20 UNL     1      -7.608  17.280 -34.659  1.00  0.00     0.086 A
HETATM   10  S2  UNL     1      -6.453  18.439 -34.075  1.00  0.00    -0.064 SA
HETATM   11  C21 UNL     1      -7.103  18.645 -32.528  1.00  0.00     0.142 A
HETATM   12  N7  UNL     1      -8.155  17.837 -32.518  1.00  0.00    -0.334 N
ATOM     13  H7  UNL     1      -8.741  17.765 -31.686  1.00  0.00     0.168 HD
BRANCH  11  14
HETATM   14  N6  UNL     1      -6.693  19.411 -31.526  1.00  0.00    -0.380 N
ATOM     15  H62 UNL     1      -7.261  20.078 -31.003  1.00  0.00     0.158 HD
ATOM     16  H61 UNL     1      -5.774  19.482 -31.089  1.00  0.00     0.158 HD
ENDBRANCH  11  14
ENDBRANCH   3   8
ENDBRANCH   2   3
ENDBRANCH   1   2
BRANCH   1  17
HETATM   17  C5  UNL     1      -9.760  14.083 -36.466  1.00  0.00     0.258 C
HETATM   18  O3  UNL     1      -9.075  15.044 -36.816  1.00  0.00    -0.270 OA
HETATM   19  N2  UNL     1     -10.296  13.107 -37.257  1.00  0.00    -0.348 N
ATOM     20  H2  UNL     1     -10.811  12.396 -36.737  1.00  0.00     0.163 HD
BRANCH  19  21
HETATM   21  C6  UNL     1     -10.279  12.879 -38.690  1.00  0.00     0.141 C
BRANCH  21  22
HETATM   22  C7  UNL     1     -11.640  12.607 -39.242  1.00  0.00     0.075 A
HETATM   23  N3  UNL     1     -12.045  11.377 -39.499  1.00  0.00    -0.336 N
HETATM   24  C8  UNL     1     -13.288  11.184 -39.914  1.00  0.00     0.144 A
ATOM     25  H3  UNL     1     -11.410  10.587 -39.380  1.00  0.00     0.168 HD
HETATM   26  S1  UNL     1     -13.944  12.746 -39.957  1.00  0.00    -0.028 SA
HETATM   27  C9  UNL     1     -12.545  13.616 -39.423  1.00  0.00     0.171 A
BRANCH  24  28
HETATM   28  N4  UNL     1     -13.906  10.072 -40.229  1.00  0.00    -0.380 N
ATOM     29  H42 UNL     1     -13.520   9.129 -40.178  1.00  0.00     0.158 HD
ATOM     30  H41 UNL     1     -14.856   9.926 -40.572  1.00  0.00     0.158 HD
ENDBRANCH  24  28
BRANCH  27  31
HETATM   31  N5  UNL     1     -12.444  15.033 -39.307  1.00  0.00    -0.106 N
HETATM   32  O4  UNL     1     -12.354  15.542 -38.161  1.00  0.00    -0.531 OA
HETATM   33  O5  UNL     1     -12.436  15.907 -40.348  1.00  0.00    -0.531 OA
ENDBRANCH  27  31
ENDBRANCH  21  22
BRANCH  21  34
HETATM   34  C10 UNL     1      -9.266  11.804 -39.106  1.00  0.00     0.006 C
HETATM   35  C11 UNL     1      -9.005  11.919 -40.605  1.00  0.00     0.012 C
HETATM   36  C12 UNL     1      -7.894  12.173 -38.492  1.00  0.00     0.012 C
ENDBRANCH  21  34
ENDBRANCH  19  21
ENDBRANCH   1  17
BRANCH   1  37
HETATM   37  C13 UNL     1      -9.254  12.839 -34.426  1.00  0.00    -0.012 A
HETATM   38  C14 UNL     1      -9.862  12.067 -33.486  1.00  0.00     0.013 A
HETATM   39  C15 UNL     1      -9.240  10.919 -32.987  1.00  0.00     0.039 A
HETATM   40  C16 UNL     1      -8.008  10.569 -33.451  1.00  0.00     0.087 A
HETATM   41  C17 UNL     1      -7.373  11.340 -34.407  1.00  0.00     0.067 A
HETATM   42 CL1  UNL     1      -5.803  10.970 -35.056  1.00  0.00    -0.081 Cl
HETATM   43  C18 UNL     1      -8.012  12.480 -34.888  1.00  0.00     0.037 A
BRANCH  40  44
HETATM   44  O6  UNL     1      -7.334   9.429 -32.989  1.00  0.00    -0.359 OA
ATOM     45  H6  UNL     1      -7.351   8.606 -33.463  1.00  0.00     0.217 HD
ENDBRANCH  40  44
ENDBRANCH   1  37
TORSDOF 14
ENDMDL