MODEL 3
REMARK VINA RESULT: -6.613014505      0.128      2.235
REMARK  12 active torsions:
REMARK  status: ('A' for Active; 'I' for Inactive)
REMARK    1  A    between atoms: O1_2  and  C2_3
REMARK    2  A    between atoms: C4_5  and  O2_6
REMARK    3  A    between atoms: C6_9  and  O3_10
REMARK    4  A    between atoms: C8_12  and  C9_13
REMARK    5  A    between atoms: C9_13  and  C11_15
REMARK    6  A    between atoms: C11_15  and  N1_16
REMARK    7  A    between atoms: N1_16  and  C12_17
REMARK    8  A    between atoms: C14_19  and  S1_20
REMARK    9  A    between atoms: C17_27  and  N2_28
REMARK   10  A    between atoms: N2_28  and  C18_30
REMARK   11  A    between atoms: C20_37  and  N5_38
REMARK   12  A    between atoms: C21_41  and  N6_42
ROOT
HETATM    1  C12 UNL     1      -8.008  12.373 -38.527  1.00  0.00     0.136 A
HETATM    2  C13 UNL     1      -6.653  12.050 -38.384  1.00  0.00     0.073 A
HETATM    3  C14 UNL     1      -6.030  11.451 -39.447  1.00  0.00     0.085 A
HETATM    4  C15 UNL     1      -6.694  11.166 -40.628  1.00  0.00     0.052 A
HETATM    5  C16 UNL     1      -8.030  11.476 -40.790  1.00  0.00     0.065 A
HETATM    6 CL1  UNL     1      -8.857  11.096 -42.312  1.00  0.00    -0.082 Cl
HETATM    7  C17 UNL     1      -8.667  12.070 -39.753  1.00  0.00     0.097 A
ENDROOT
BRANCH   7   8
HETATM    8  N2  UNL     1     -10.017  12.452 -39.855  1.00  0.00    -0.336 N
ATOM      9  H2  UNL     1     -10.193  13.444 -40.020  1.00  0.00     0.168 HD
BRANCH   8  10
HETATM   10  C18 UNL     1     -11.145  11.635 -39.759  1.00  0.00     0.147 A
HETATM   11  N3  UNL     1     -11.061  10.328 -39.499  1.00  0.00    -0.292 N
HETATM   12  C19 UNL     1     -12.153   9.531 -39.383  1.00  0.00     0.327 A
ATOM     13  H3  UNL     1     -10.138   9.911 -39.383  1.00  0.00     0.172 HD
HETATM   14  O7  UNL     1     -12.019   8.289 -39.135  1.00  0.00    -0.247 OA
HETATM   15  N4  UNL     1     -13.371  10.065 -39.532  1.00  0.00    -0.293 N
HETATM   16  C20 UNL     1     -13.554  11.382 -39.798  1.00  0.00     0.140 A
ATOM     17  H4  UNL     1     -14.188   9.462 -39.442  1.00  0.00     0.172 HD
HETATM   18  C21 UNL     1     -12.418  12.169 -39.912  1.00  0.00     0.190 A
BRANCH  16  19
HETATM   19  N5  UNL     1     -14.736  11.876 -39.934  1.00  0.00    -0.383 N
ATOM     20  H52 UNL     1     -15.544  11.468 -39.464  1.00  0.00     0.157 HD
ATOM     21  H51 UNL     1     -14.901  12.693 -40.521  1.00  0.00     0.157 HD
ENDBRANCH  16  19
BRANCH  18  22
HETATM   22  N6  UNL     1     -12.518  13.536 -40.195  1.00  0.00    -0.108 N
HETATM   23  O8  UNL     1     -12.677  13.891 -41.379  1.00  0.00    -0.531 OA
HETATM   24  O9  UNL     1     -12.453  14.525 -39.250  1.00  0.00    -0.531 OA
ENDBRANCH  18  22
ENDBRANCH   8  10
ENDBRANCH   7   8
BRANCH   1  25
HETATM   25  N1  UNL     1      -8.656  12.943 -37.503  1.00  0.00    -0.419 NA
BRANCH  25  26
HETATM   26  C11 UNL     1      -9.166  13.451 -36.578  1.00  0.00     0.164 C
BRANCH  26  27
HETATM   27  C9  UNL     1      -8.653  13.664 -35.153  1.00  0.00     0.072 C
HETATM   28  C10 UNL     1      -9.471  14.768 -34.573  1.00  0.00     0.022 C
BRANCH  27  29
HETATM   29  C8  UNL     1      -8.732  12.411 -34.415  1.00  0.00     0.018 A
HETATM   30  C2  UNL     1      -9.925  12.162 -33.710  1.00  0.00     0.080 A
HETATM   31  C3  UNL     1     -10.125  11.055 -32.943  1.00  0.00     0.074 A
HETATM   32  C4  UNL     1      -9.134  10.124 -32.834  1.00  0.00     0.071 A
HETATM   33  C5  UNL     1      -7.951  10.334 -33.512  1.00  0.00     0.074 A
HETATM   34  C6  UNL     1      -7.739  11.476 -34.308  1.00  0.00     0.080 A
BRANCH  30  35
HETATM   35  O1  UNL     1     -10.932  13.099 -33.814  1.00  0.00    -0.355 OA
HETATM   36  C1  UNL     1     -12.146  12.891 -33.128  1.00  0.00     0.210 C
ENDBRANCH  30  35
BRANCH  32  37
HETATM   37  O2  UNL     1      -9.269   8.953 -32.058  1.00  0.00    -0.361 OA
ATOM     38  H2  UNL     1      -8.781   8.810 -31.256  1.00  0.00     0.217 HD
ENDBRANCH  32  37
BRANCH  34  39
HETATM   39  O3  UNL     1      -6.557  11.671 -34.972  1.00  0.00    -0.355 OA
HETATM   40  C7  UNL     1      -5.423  10.910 -34.809  1.00  0.00     0.210 C
ENDBRANCH  34  39
ENDBRANCH  27  29
ENDBRANCH  26  27
ENDBRANCH  25  26
ENDBRANCH   1  25
BRANCH   3  41
HETATM   41  S1  UNL     1      -4.319  11.028 -39.301  1.00  0.00     0.137 S
HETATM   42  O4  UNL     1      -3.572  11.384 -40.562  1.00  0.00    -0.591 OA
HETATM   43  O5  UNL     1      -4.181   9.556 -39.087  1.00  0.00    -0.591 OA
HETATM   44  O6  UNL     1      -3.669  11.838 -37.978  1.00  0.00    -0.591 OA
ENDBRANCH   3  41
TORSDOF 12
ENDMDL