MODEL 2
REMARK VINA RESULT: -6.597559808      4.131      7.665
REMARK  11 active torsions:
REMARK  status: ('A' for Active; 'I' for Inactive)
REMARK    1  A    between atoms: N1_1  and  C1_4
REMARK    2  A    between atoms: C3_9  and  N4_10
REMARK    3  A    between atoms: N5_13  and  N6_14
REMARK    4  A    between atoms: N7_16  and  C6_18
REMARK    5  A    between atoms: C7_19  and  O1_20
REMARK    6  A    between atoms: O1_20  and  C8_21
REMARK    7  A    between atoms: C8_21  and  C9_22
REMARK    8  A    between atoms: C9_22  and  C10_23
REMARK    9  A    between atoms: C10_23  and  S1_24
REMARK   10  A    between atoms: C14_32  and  C15_33
REMARK   11  A    between atoms: C19_40  and  N9_41
ROOT
HETATM    1  N6  UNL     1     -11.386  13.895 -33.975  1.00  0.00    -0.244 N
ATOM      2  H6  UNL     1     -11.191  13.175 -34.672  1.00  0.00     0.208 HD
HETATM    3  N7  UNL     1     -12.088  13.567 -32.972  1.00  0.00    -0.282 N
ATOM      4  H7  UNL     1     -12.293  14.274 -32.266  1.00  0.00     0.188 HD
ENDROOT
BRANCH   1   5
HETATM    5  N5  UNL     1     -10.867  15.150 -34.194  1.00  0.00    -0.310 N
HETATM    6  C5  UNL     1     -10.817  15.632 -35.558  1.00  0.00     0.163 C
HETATM    7  C4  UNL     1      -9.728  16.649 -35.677  1.00  0.00     0.144 C
HETATM    8  N4  UNL     1      -8.626  16.282 -34.817  1.00  0.00    -0.372 N
HETATM    9  C18 UNL     1      -8.871  16.242 -33.383  1.00  0.00     0.144 C
HETATM   10  C17 UNL     1     -10.369  16.016 -33.143  1.00  0.00     0.163 C
BRANCH   8  11
HETATM   11  C3  UNL     1      -7.362  15.985 -35.379  1.00  0.00     0.117 A
HETATM   12  C2  UNL     1      -6.323  16.877 -35.406  1.00  0.00     0.162 A
HETATM   13  N2  UNL     1      -5.132  16.506 -35.966  1.00  0.00    -0.177 N
HETATM   14  N3  UNL     1      -6.438  18.186 -34.873  1.00  0.00    -0.080 NA
HETATM   15  C1  UNL     1      -4.956  15.276 -36.496  1.00  0.00     0.678 A
ATOM     16  H2  UNL     1      -4.361  17.172 -35.985  1.00  0.00     0.185 HD
HETATM   17  N10 UNL     1      -5.967  14.391 -36.476  1.00  0.00    -0.175 N
HETATM   18  C19 UNL     1      -7.153  14.740 -35.926  1.00  0.00     0.145 A
ATOM     19  H10 UNL     1      -5.841  13.460 -36.875  1.00  0.00     0.186 HD
BRANCH  15  20
HETATM   20  N1  UNL     1      -3.807  14.948 -37.024  1.00  0.00    -0.234 N
ATOM     21  H12 UNL     1      -2.941  15.337 -36.650  1.00  0.00     0.174 HD
ATOM     22  H11 UNL     1      -3.771  14.301 -37.812  1.00  0.00     0.174 HD
ENDBRANCH  15  20
BRANCH  18  23
HETATM   23  N9  UNL     1      -8.094  13.874 -35.923  1.00  0.00    -0.383 N
ATOM     24  H92 UNL     1      -8.307  13.398 -35.046  1.00  0.00     0.157 HD
ATOM     25  H91 UNL     1      -8.609  13.678 -36.781  1.00  0.00     0.157 HD
ENDBRANCH  18  23
ENDBRANCH   8  11
ENDBRANCH   1   5
BRANCH   3  26
HETATM   26  C6  UNL     1     -12.598  12.260 -32.793  1.00  0.00     0.110 A
HETATM   27  C7  UNL     1     -11.699  11.225 -32.595  1.00  0.00     0.099 A
HETATM   28  C11 UNL     1     -12.076   9.917 -32.407  1.00  0.00     0.040 A
HETATM   29  C12 UNL     1     -13.439   9.659 -32.425  1.00  0.00     0.024 A
HETATM   30  C13 UNL     1     -14.352  10.693 -32.624  1.00  0.00     0.036 A
HETATM   31  S2  UNL     1     -16.069  10.818 -32.716  1.00  0.00    -0.073 SA
HETATM   32  C16 UNL     1     -13.974  11.992 -32.809  1.00  0.00     0.081 A
HETATM   33  C14 UNL     1     -16.183  12.497 -32.981  1.00  0.00     0.066 A
HETATM   34  N8  UNL     1     -14.929  12.876 -32.986  1.00  0.00    -0.350 N
ATOM     35  H8  UNL     1     -14.694  13.859 -33.128  1.00  0.00     0.166 HD
BRANCH  27  36
HETATM   36  O1  UNL     1     -10.354  11.526 -32.581  1.00  0.00    -0.349 OA
BRANCH  36  37
HETATM   37  C8  UNL     1      -9.241  10.759 -32.743  1.00  0.00     0.176 C
BRANCH  37  38
HETATM   38  C9  UNL     1      -8.301  11.106 -33.848  1.00  0.00     0.044 C
BRANCH  38  39
HETATM   39  C10 UNL     1      -6.929  10.541 -33.744  1.00  0.00     0.167 C
BRANCH  39  40
HETATM   40  S1  UNL     1      -5.773  11.035 -34.949  1.00  0.00     0.101 S
HETATM   41  O2  UNL     1      -4.980  12.232 -34.542  1.00  0.00    -0.595 OA
HETATM   42  O3  UNL     1      -4.866   9.882 -35.330  1.00  0.00    -0.595 OA
HETATM   43  O4  UNL     1      -6.681  11.458 -36.338  1.00  0.00    -0.595 OA
ENDBRANCH  39  40
ENDBRANCH  38  39
ENDBRANCH  37  38
ENDBRANCH  36  37
ENDBRANCH  27  36
BRANCH  33  44
HETATM   44  C15 UNL     1     -17.363  13.411 -33.172  1.00  0.00     0.179 C
HETATM   45 CL1  UNL     1     -17.915  13.166 -34.844  1.00  0.00    -0.123 Cl
ENDBRANCH  33  44
ENDBRANCH   3  26
TORSDOF 11
ENDMDL