MODEL 5
REMARK VINA RESULT: -6.397053632      4.221      9.070
REMARK  9 active torsions:
REMARK  status: ('A' for Active; 'I' for Inactive)
REMARK    1  A    between atoms: O1_2  and  C2_3
REMARK    2  A    between atoms: C3_4  and  N1_5
REMARK       I    between atoms: N1_5  and  C4_7
REMARK    3  A    between atoms: C4_7  and  C5_9
REMARK    4  A    between atoms: C5_9  and  N2_10
REMARK       I    between atoms: N2_10  and  C6_12
REMARK    5  A    between atoms: C6_12  and  C7_14
REMARK    6  A    between atoms: C7_14  and  S1_15
REMARK    7  A    between atoms: C7_14  and  C14_31
REMARK    8  A    between atoms: S1_15  and  C8_16
REMARK    9  A    between atoms: C19_39  and  N7_40
ROOT
HETATM    1  N2  UNL     1     -11.272  16.705 -36.040  1.00  0.00    -0.351 N
ATOM      2  H2  UNL     1     -12.193  16.651 -35.607  1.00  0.00     0.163 HD
HETATM    3  C6  UNL     1     -10.307  17.724 -35.652  1.00  0.00     0.242 C
HETATM    4  O3  UNL     1      -9.215  17.722 -36.222  1.00  0.00    -0.272 OA
ENDROOT
BRANCH   3   5
HETATM    5  C7  UNL     1     -10.726  18.650 -34.625  1.00  0.00     0.245 C
BRANCH   5   6
HETATM    6  S1  UNL     1      -9.806  20.136 -34.355  1.00  0.00    -0.095 SA
BRANCH   6   7
HETATM    7  C8  UNL     1      -9.081  20.283 -32.704  1.00  0.00     0.070 A
HETATM    8  S2  UNL     1      -9.686  21.176 -31.380  1.00  0.00    -0.062 SA
HETATM    9  C9  UNL     1      -8.519  20.767 -30.208  1.00  0.00     0.092 A
HETATM   10  N3  UNL     1      -8.332  21.099 -28.891  1.00  0.00    -0.346 N
HETATM   11  C12 UNL     1      -7.670  19.932 -30.880  1.00  0.00     0.067 A
HETATM   12  C10 UNL     1      -7.292  20.611 -28.197  1.00  0.00     0.182 A
ATOM     13  H3  UNL     1      -8.992  21.726 -28.432  1.00  0.00     0.167 HD
HETATM   14  N4  UNL     1      -6.454  19.799 -28.820  1.00  0.00    -0.338 N
HETATM   15  C11 UNL     1      -6.594  19.443 -30.111  1.00  0.00     0.114 A
ATOM     16  H4  UNL     1      -5.662  19.425 -28.297  1.00  0.00     0.168 HD
HETATM   17  N5  UNL     1      -5.703  18.661 -30.549  1.00  0.00    -0.385 N
ATOM     18  H52 UNL     1      -4.924  18.308 -29.993  1.00  0.00     0.157 HD
ATOM     19  H51 UNL     1      -5.809  18.392 -31.528  1.00  0.00     0.157 HD
HETATM   20  C13 UNL     1      -7.971  19.683 -32.182  1.00  0.00     0.086 A
HETATM   21  N6  UNL     1      -7.208  18.787 -33.026  1.00  0.00    -0.099 NA
ENDBRANCH   6   7
ENDBRANCH   5   6
BRANCH   5  22
HETATM   22  C14 UNL     1     -10.861  17.964 -33.281  1.00  0.00     0.197 C
HETATM   23  O4  UNL     1     -11.635  18.382 -32.389  1.00  0.00    -0.647 OA
HETATM   24  O5  UNL     1     -10.096  16.849 -33.071  1.00  0.00    -0.647 OA
ENDBRANCH   5  22
ENDBRANCH   3   5
BRANCH   1  25
HETATM   25  C5  UNL     1     -10.869  15.787 -37.053  1.00  0.00     0.225 C
BRANCH  25  26
HETATM   26  C4  UNL     1     -10.160  14.626 -36.536  1.00  0.00     0.239 C
HETATM   27  N1  UNL     1      -9.283  14.604 -35.445  1.00  0.00    -0.322 N
ATOM     28  H1  UNL     1      -9.099  15.469 -34.938  1.00  0.00     0.169 HD
HETATM   29  O2  UNL     1     -10.346  13.492 -37.129  1.00  0.00    -0.271 OA
BRANCH  27  30
HETATM   30  C3  UNL     1      -8.631  13.384 -35.020  1.00  0.00     0.093 A
HETATM   31  C2  UNL     1      -7.405  13.081 -35.533  1.00  0.00     0.140 A
HETATM   32  C19 UNL     1      -6.700  11.929 -35.184  1.00  0.00     0.237 A
HETATM   33  C17 UNL     1      -7.311  11.101 -34.274  1.00  0.00    -0.014 A
HETATM   34  C16 UNL     1      -8.573  11.415 -33.745  1.00  0.00     0.036 A
HETATM   35  C18 UNL     1      -6.693   9.882 -33.786  1.00  0.00     0.051 C
HETATM   36  C15 UNL     1      -9.244  12.577 -34.125  1.00  0.00     0.064 A
HETATM   37 CL1  UNL     1     -10.812  12.924 -33.443  1.00  0.00    -0.082 Cl
BRANCH  31  38
HETATM   38  O1  UNL     1      -6.830  13.951 -36.442  1.00  0.00    -0.351 OA
HETATM   39  C1  UNL     1      -6.250  15.133 -35.854  1.00  0.00     0.210 C
ENDBRANCH  31  38
BRANCH  32  40
HETATM   40  N7  UNL     1      -5.463  11.576 -35.725  1.00  0.00     0.042 N
HETATM   41  C20 UNL     1      -5.373  11.508 -37.144  1.00  0.00     0.363 C
HETATM   42  C21 UNL     1      -4.324  12.287 -35.136  1.00  0.00     0.363 C
HETATM   43  O6  UNL     1      -5.205  10.270 -35.317  1.00  0.00    -0.060 OA
ENDBRANCH  32  40
ENDBRANCH  27  30
ENDBRANCH  25  26
ENDBRANCH   1  25
TORSDOF 9
ENDMDL