MODEL 4
REMARK VINA RESULT: -6.877604536      7.097      9.656
REMARK  15 active torsions:
REMARK  status: ('A' for Active; 'I' for Inactive)
REMARK    1  A    between atoms: C2_2  and  O1_3
REMARK    2  A    between atoms: C3_5  and  C4_7
REMARK    3  A    between atoms: C5_8  and  O2_9
REMARK    4  A    between atoms: N1_15  and  C9_16
REMARK    5  A    between atoms: C9_16  and  O4_17
REMARK    6  A    between atoms: C9_16  and  O5_19
REMARK    7  A    between atoms: O5_19  and  C10_20
REMARK    8  A    between atoms: C11_21  and  O6_22
REMARK    9  A    between atoms: C14_26  and  C15_27
REMARK   10  A    between atoms: C15_27  and  S1_28
REMARK   11  A    between atoms: S1_28  and  S2_29
REMARK   12  A    between atoms: S2_29  and  C16_30
REMARK   13  A    between atoms: C16_30  and  C17_31
REMARK   14  A    between atoms: C18_32  and  C20_35
REMARK   15  A    between atoms: C22_39  and  N4_40
ROOT
HETATM    1  C17 UNL     1     -20.170  16.752 -29.775  1.00  0.00     0.008 C
HETATM    2  C18 UNL     1     -20.473  15.560 -30.165  1.00  0.00     0.060 C
HETATM    3  C19 UNL     1     -21.594  14.875 -29.492  1.00  0.00     0.100 C
HETATM    4  N2  UNL     1     -22.463  14.353 -28.952  1.00  0.00    -0.191 NA
ENDROOT
BRANCH   2   5
HETATM    5  C20 UNL     1     -19.837  14.777 -31.223  1.00  0.00     0.044 A
HETATM    6  C21 UNL     1     -20.254  13.576 -31.748  1.00  0.00     0.110 A
HETATM    7  N3  UNL     1     -19.544  13.042 -32.693  1.00  0.00    -0.345 N
HETATM    8  C22 UNL     1     -18.451  13.658 -33.122  1.00  0.00     0.142 A
ATOM      9  H3  UNL     1     -19.824  12.152 -33.104  1.00  0.00     0.167 HD
HETATM   10  S3  UNL     1     -18.419  15.056 -32.152  1.00  0.00    -0.052 SA
BRANCH   8  11
HETATM   11  N4  UNL     1     -17.619  13.263 -34.065  1.00  0.00    -0.380 N
ATOM     12  H42 UNL     1     -17.264  12.331 -34.276  1.00  0.00     0.158 HD
ATOM     13  H41 UNL     1     -17.164  13.835 -34.777  1.00  0.00     0.158 HD
ENDBRANCH   8  11
ENDBRANCH   2   5
BRANCH   1  14
HETATM   14  C16 UNL     1     -19.129  17.687 -30.230  1.00  0.00     0.114 C
BRANCH  14  15
HETATM   15  S2  UNL     1     -19.583  19.373 -29.726  1.00  0.00    -0.094 SA
BRANCH  15  16
HETATM   16  S1  UNL     1     -19.801  20.700 -31.341  1.00  0.00    -0.097 SA
BRANCH  16  17
HETATM   17  C15 UNL     1     -18.275  21.570 -31.646  1.00  0.00     0.093 C
BRANCH  17  18
HETATM   18  C14 UNL     1     -18.226  22.274 -32.979  1.00  0.00     0.027 C
HETATM   19  C10 UNL     1     -16.856  22.432 -33.542  1.00  0.00     0.160 C
HETATM   20  C11 UNL     1     -16.177  23.309 -32.521  1.00  0.00     0.147 C
HETATM   21  C12 UNL     1     -17.267  24.210 -32.044  1.00  0.00     0.035 C
HETATM   22  C13 UNL     1     -18.562  23.743 -32.671  1.00  0.00     0.010 C
BRANCH  19  23
HETATM   23  O5  UNL     1     -16.195  21.288 -33.849  1.00  0.00    -0.336 OA
BRANCH  23  24
HETATM   24  C9  UNL     1     -15.689  21.318 -35.148  1.00  0.00     0.371 C
BRANCH  24  25
HETATM   25  N1  UNL     1     -14.249  21.567 -35.148  1.00  0.00    -0.330 N
HETATM   26  C4  UNL     1     -13.370  21.091 -34.150  1.00  0.00     0.172 C
HETATM   27  C5  UNL     1     -12.283  22.116 -33.758  1.00  0.00     0.220 C
HETATM   28  C6  UNL     1     -11.675  22.749 -34.931  1.00  0.00     0.181 C
HETATM   29  O3  UNL     1     -10.475  23.103 -34.917  1.00  0.00    -0.290 OA
HETATM   30  C7  UNL     1     -12.518  22.953 -36.126  1.00  0.00     0.070 C
HETATM   31  C8  UNL     1     -13.713  22.387 -36.196  1.00  0.00     0.095 C
BRANCH  26  32
HETATM   32  C3  UNL     1     -12.709  19.810 -34.267  1.00  0.00     0.066 C
HETATM   33  C2  UNL     1     -11.962  19.094 -33.512  1.00  0.00     0.059 C
HETATM   34  C1  UNL     1     -11.512  19.427 -32.166  1.00  0.00     0.077 C
HETATM   35 CL1  UNL     1     -13.043  19.028 -35.885  1.00  0.00    -0.084 Cl
BRANCH  33  36
HETATM   36  O1  UNL     1     -11.505  17.847 -33.996  1.00  0.00    -0.364 OA
ATOM     37  H1  UNL     1     -11.309  17.830 -34.925  1.00  0.00     0.217 HD
ENDBRANCH  33  36
ENDBRANCH  26  32
BRANCH  27  38
HETATM   38  O2  UNL     1     -12.825  23.071 -32.902  1.00  0.00    -0.385 OA
ATOM     39  H2  UNL     1     -12.936  23.892 -33.367  1.00  0.00     0.210 HD
ENDBRANCH  27  38
ENDBRANCH  24  25
BRANCH  24  40
HETATM   40  O4  UNL     1     -16.062  20.164 -35.799  1.00  0.00    -0.354 OA
ATOM     41  H4  UNL     1     -16.639  19.603 -35.295  1.00  0.00     0.214 HD
ENDBRANCH  24  40
ENDBRANCH  23  24
ENDBRANCH  19  23
BRANCH  20  42
HETATM   42  O6  UNL     1     -15.511  22.624 -31.542  1.00  0.00    -0.393 OA
ATOM     43  H6  UNL     1     -15.977  22.567 -30.717  1.00  0.00     0.210 HD
ENDBRANCH  20  42
ENDBRANCH  17  18
ENDBRANCH  16  17
ENDBRANCH  15  16
ENDBRANCH  14  15
ENDBRANCH   1  14
TORSDOF 15
ENDMDL