MODEL 2
REMARK VINA RESULT: -5.960176055      3.810      6.343
REMARK  11 active torsions:
REMARK  status: ('A' for Active; 'I' for Inactive)
REMARK    1  A    between atoms: C2_2  and  N2_6
REMARK    2  A    between atoms: N2_6  and  C3_8
REMARK    3  A    between atoms: C3_8  and  C4_9
REMARK    4  A    between atoms: C4_9  and  N3_11
REMARK    5  A    between atoms: N3_11  and  C6_13
REMARK    6  A    between atoms: C8_16  and  C9_17
REMARK    7  A    between atoms: C10_18  and  N4_19
REMARK    8  A    between atoms: N4_19  and  C11_21
REMARK    9  A    between atoms: C12_22  and  N5_23
REMARK   10  A    between atoms: C22_36  and  C23_37
REMARK   11  A    between atoms: C25_40  and  O4_41
ROOT
HETATM    1  C9  UNL     1      -9.020  11.767 -33.766  1.00  0.00     0.093 A
HETATM    2  C10 UNL     1      -8.179  12.339 -34.671  1.00  0.00     0.069 A
HETATM    3  C22 UNL     1      -6.960  11.749 -35.027  1.00  0.00     0.088 A
HETATM    4  C25 UNL     1      -6.628  10.563 -34.429  1.00  0.00     0.159 A
HETATM    5  N6  UNL     1      -7.460   9.978 -33.518  1.00  0.00    -0.302 N
ATOM      6  H6  UNL     1      -7.194   9.094 -33.084  1.00  0.00     0.171 HD
HETATM    7  C26 UNL     1      -8.621  10.554 -33.192  1.00  0.00     0.262 A
HETATM    8  O5  UNL     1      -9.407  10.030 -32.350  1.00  0.00    -0.267 OA
ENDROOT
BRANCH   1   9
HETATM    9  C8  UNL     1     -10.307  12.351 -33.415  1.00  0.00     0.093 A
HETATM   10  S1  UNL     1     -10.835  13.956 -33.306  1.00  0.00    -0.079 SA
HETATM   11  C7  UNL     1     -12.459  13.665 -32.828  1.00  0.00     0.100 A
HETATM   12  C6  UNL     1     -12.479  12.290 -32.784  1.00  0.00     0.108 A
HETATM   13  N7  UNL     1     -11.385  11.665 -33.084  1.00  0.00    -0.336 N
ATOM     14  H7  UNL     1     -11.357  10.646 -33.066  1.00  0.00     0.168 HD
BRANCH  12  15
HETATM   15  N3  UNL     1     -13.704  11.609 -32.395  1.00  0.00    -0.370 N
ATOM     16  H3  UNL     1     -13.694  11.028 -31.556  1.00  0.00     0.161 HD
BRANCH  15  17
HETATM   17  C4  UNL     1     -14.911  11.716 -33.132  1.00  0.00     0.096 C
HETATM   18  C5  UNL     1     -15.801  10.516 -32.901  1.00  0.00     0.034 C
BRANCH  17  19
HETATM   19  C3  UNL     1     -15.732  12.955 -32.845  1.00  0.00     0.145 C
BRANCH  19  20
HETATM   20  N2  UNL     1     -16.782  13.006 -33.844  1.00  0.00    -0.379 N
ATOM     21  H2  UNL     1     -16.586  12.661 -34.784  1.00  0.00     0.160 HD
BRANCH  20  22
HETATM   22  C2  UNL     1     -18.088  13.527 -33.553  1.00  0.00     0.066 C
HETATM   23  C1  UNL     1     -18.183  14.671 -32.619  1.00  0.00     0.088 C
HETATM   24  N1  UNL     1     -19.132  13.003 -34.095  1.00  0.00    -0.389 N
ATOM     25  H12 UNL     1     -20.060  13.373 -33.888  1.00  0.00     0.157 HD
ATOM     26  H11 UNL     1     -19.067  12.214 -34.738  1.00  0.00     0.157 HD
ENDBRANCH  20  22
ENDBRANCH  19  20
ENDBRANCH  17  19
ENDBRANCH  15  17
ENDBRANCH  12  15
ENDBRANCH   1   9
BRANCH   2  27
HETATM   27  N4  UNL     1      -8.498  13.568 -35.261  1.00  0.00    -0.349 N
ATOM     28  H4  UNL     1      -8.175  14.440 -34.843  1.00  0.00     0.166 HD
BRANCH  27  29
HETATM   29  C11 UNL     1      -9.287  13.584 -36.461  1.00  0.00     0.118 A
HETATM   30  C12 UNL     1      -9.996  14.501 -37.176  1.00  0.00     0.116 A
HETATM   31  C20 UNL     1     -10.343  13.536 -38.116  1.00  0.00     0.252 A
HETATM   32  O1  UNL     1     -11.013  13.502 -39.165  1.00  0.00    -0.281 OA
HETATM   33  C21 UNL     1      -9.639  12.616 -37.408  1.00  0.00     0.253 A
HETATM   34  O2  UNL     1      -9.377  11.397 -37.511  1.00  0.00    -0.281 OA
BRANCH  30  35
HETATM   35  N5  UNL     1     -10.343  15.878 -37.142  1.00  0.00    -0.372 N
HETATM   36  C13 UNL     1      -9.822  16.749 -38.179  1.00  0.00     0.160 C
HETATM   37  C14 UNL     1      -9.348  18.069 -37.613  1.00  0.00     0.188 C
HETATM   38  F1  UNL     1      -7.980  18.258 -37.815  1.00  0.00    -0.248 F
HETATM   39  C15 UNL     1      -9.611  18.190 -36.145  1.00  0.00     0.049 C
HETATM   40  C16 UNL     1     -10.984  17.782 -35.726  1.00  0.00    -0.029 C
HETATM   41  C17 UNL     1     -11.061  17.919 -34.205  1.00  0.00     0.016 C
HETATM   42  C18 UNL     1     -12.065  18.639 -36.350  1.00  0.00     0.016 C
HETATM   43  C19 UNL     1     -11.184  16.325 -36.070  1.00  0.00     0.132 C
ENDBRANCH  30  35
ENDBRANCH  27  29
ENDBRANCH   2  27
BRANCH   3  44
HETATM   44  C23 UNL     1      -6.097  12.367 -36.007  1.00  0.00     0.162 C
HETATM   45  C24 UNL     1      -5.965  11.796 -37.372  1.00  0.00     0.097 C
HETATM   46  O3  UNL     1      -5.402  13.407 -35.807  1.00  0.00    -0.293 OA
ENDBRANCH   3  44
BRANCH   4  47
HETATM   47  O4  UNL     1      -5.427   9.878 -34.708  1.00  0.00    -0.345 OA
ATOM     48  H4  UNL     1      -5.247   9.004 -34.384  1.00  0.00     0.219 HD
ENDBRANCH   4  47
TORSDOF 11
ENDMDL