MODEL 3
REMARK VINA RESULT: -7.054529528      0.950      1.179
REMARK  13 active torsions:
REMARK  status: ('A' for Active; 'I' for Inactive)
REMARK    1  A    between atoms: N1_4  and  N2_6
REMARK    2  A    between atoms: C4_8  and  C5_9
REMARK    3  A    between atoms: C4_8  and  O3_46
REMARK    4  A    between atoms: C5_9  and  C6_10
REMARK       I    between atoms: N3_11  and  C7_13
REMARK    5  A    between atoms: C7_13  and  C8_15
REMARK    6  A    between atoms: N5_18  and  N6_19
REMARK    7  A    between atoms: C9_21  and  C10_22
REMARK    8  A    between atoms: C13_29  and  N9_30
REMARK    9  A    between atoms: C14_33  and  N10_34
REMARK       I    between atoms: N10_34  and  C15_35
REMARK   10  A    between atoms: C15_35  and  C16_37
REMARK   11  A    between atoms: C18_40  and  N11_41
REMARK   12  A    between atoms: O3_46  and  C19_47
REMARK   13  A    between atoms: C19_47  and  C21_49
ROOT
HETATM    1  C8  UNL     1     -11.498  12.959 -33.412  1.00  0.00     0.163 A
HETATM    2  N4  UNL     1     -12.787  13.330 -33.234  1.00  0.00    -0.270 N
ATOM      3  H4  UNL     1     -13.160  14.252 -33.457  1.00  0.00     0.189 HD
HETATM    4  N5  UNL     1     -13.506  12.325 -32.726  1.00  0.00    -0.176 N
HETATM    5  C13 UNL     1     -12.675  11.295 -32.571  1.00  0.00     0.182 A
HETATM    6  C14 UNL     1     -11.385  11.660 -32.996  1.00  0.00     0.191 A
ENDROOT
BRANCH   1   7
HETATM    7  C7  UNL     1     -10.418  13.818 -33.984  1.00  0.00     0.276 C
HETATM    8  N3  UNL     1     -10.427  14.060 -35.329  1.00  0.00    -0.335 N
HETATM    9  C6  UNL     1      -9.830  14.841 -36.087  1.00  0.00     0.072 C
ATOM     10  H3  UNL     1     -11.077  13.454 -35.830  1.00  0.00     0.168 HD
HETATM   11  O1  UNL     1      -9.575  14.258 -33.186  1.00  0.00    -0.266 OA
BRANCH   9  12
HETATM   12  C5  UNL     1      -8.838  15.840 -35.718  1.00  0.00     0.130 C
BRANCH  12  13
HETATM   13  C4  UNL     1      -9.571  17.057 -35.258  1.00  0.00     0.137 C
HETATM   14  N2  UNL     1      -9.301  17.776 -34.309  1.00  0.00    -0.283 N
ATOM     15  H2  UNL     1     -10.025  18.494 -34.316  1.00  0.00     0.188 HD
BRANCH  14  16
HETATM   16  N1  UNL     1      -8.572  18.069 -33.327  1.00  0.00    -0.308 N
HETATM   17  C2  UNL     1      -8.601  18.676 -32.248  1.00  0.00    -0.004 C
HETATM   18  C1  UNL     1      -9.811  19.368 -31.748  1.00  0.00     0.064 C
HETATM   19  C3  UNL     1      -7.321  18.694 -31.442  1.00  0.00     0.064 C
ATOM     20  H1  UNL     1      -7.643  17.672 -33.466  1.00  0.00     0.186 HD
ENDBRANCH  14  16
BRANCH  13  21
HETATM   21  O3  UNL     1     -10.719  17.384 -36.051  1.00  0.00    -0.332 OA
BRANCH  21  22
HETATM   22  C19 UNL     1     -11.157  18.746 -36.075  1.00  0.00     0.140 C
HETATM   23  C20 UNL     1     -11.037  19.258 -37.506  1.00  0.00     0.041 C
BRANCH  22  24
HETATM   24  C21 UNL     1     -12.602  18.857 -35.678  1.00  0.00     0.146 C
HETATM   25 CL1  UNL     1     -12.772  19.478 -34.012  1.00  0.00    -0.128 Cl
ENDBRANCH  22  24
ENDBRANCH  21  22
ENDBRANCH  13  21
ENDBRANCH  12  13
ENDBRANCH   9  12
ENDBRANCH   1   7
BRANCH   6  26
HETATM   26  N10 UNL     1     -10.228  10.892 -32.941  1.00  0.00    -0.359 NA
HETATM   27  C15 UNL     1      -9.133  10.164 -32.888  1.00  0.00     0.344 C
HETATM   28  O2  UNL     1      -8.918   9.086 -32.225  1.00  0.00    -0.249 OA
BRANCH  27  29
HETATM   29  C16 UNL     1      -7.890  10.563 -33.683  1.00  0.00     0.124 A
HETATM   30  C17 UNL     1      -6.733   9.873 -33.566  1.00  0.00     0.089 A
HETATM   31  S1  UNL     1      -5.683  10.781 -34.604  1.00  0.00    -0.064 SA
HETATM   32  C18 UNL     1      -6.817  11.972 -35.106  1.00  0.00     0.142 A
HETATM   33  N12 UNL     1      -7.928  11.615 -34.457  1.00  0.00    -0.331 N
ATOM     34  H12 UNL     1      -8.788  12.151 -34.564  1.00  0.00     0.168 HD
BRANCH  32  35
HETATM   35  N11 UNL     1      -6.649  13.005 -35.917  1.00  0.00    -0.380 N
ATOM     36 2H11 UNL     1      -6.385  13.958 -35.667  1.00  0.00     0.158 HD
ATOM     37 1H11 UNL     1      -6.732  13.053 -36.932  1.00  0.00     0.158 HD
ENDBRANCH  32  35
ENDBRANCH  27  29
ENDBRANCH   6  26
BRANCH   4  38
HETATM   38  N6  UNL     1     -14.885  12.366 -32.416  1.00  0.00    -0.285 N
HETATM   39  C9  UNL     1     -15.666  13.156 -33.073  1.00  0.00     0.157 C
ATOM     40  H6  UNL     1     -15.261  11.773 -31.677  1.00  0.00     0.188 HD
BRANCH  39  41
HETATM   41  C10 UNL     1     -17.082  13.224 -32.781  1.00  0.00     0.122 A
HETATM   42  N7  UNL     1     -18.008  12.252 -32.742  1.00  0.00    -0.350 N
HETATM   43  C11 UNL     1     -19.216  12.784 -32.420  1.00  0.00     0.106 A
ATOM     44  H7  UNL     1     -17.832  11.265 -32.927  1.00  0.00     0.166 HD
HETATM   45  C12 UNL     1     -19.016  14.135 -32.254  1.00  0.00     0.106 A
HETATM   46  N8  UNL     1     -17.729  14.373 -32.477  1.00  0.00    -0.350 N
ATOM     47  H8  UNL     1     -17.289  15.292 -32.427  1.00  0.00     0.166 HD
ENDBRANCH  39  41
ENDBRANCH   4  38
BRANCH   5  48
HETATM   48  N9  UNL     1     -12.948  10.144 -32.115  1.00  0.00    -0.380 N
ATOM     49  H92 UNL     1     -13.643   9.990 -31.384  1.00  0.00     0.158 HD
ATOM     50  H91 UNL     1     -12.541   9.252 -32.394  1.00  0.00     0.158 HD
ENDBRANCH   5  48
TORSDOF 13
ENDMDL