MODEL 2
REMARK VINA RESULT: -5.048419314      4.244      7.384
REMARK  14 active torsions:
REMARK  status: ('A' for Active; 'I' for Inactive)
REMARK    1  A    between atoms: N1_1  and  C1_5
REMARK    2  A    between atoms: C1_5  and  C2_6
REMARK    3  A    between atoms: C2_6  and  C3_7
REMARK    4  A    between atoms: C3_7  and  C4_8
REMARK    5  A    between atoms: C4_8  and  C5_9
REMARK    6  A    between atoms: C7_11  and  N2_12
REMARK    7  A    between atoms: C8_14  and  C9_16
REMARK    8  A    between atoms: C9_16  and  C10_17
REMARK    9  A    between atoms: C16_25  and  C17_26
REMARK   10  A    between atoms: C17_26  and  O3_27
REMARK   11  A    between atoms: N4_29  and  O4_31
REMARK   12  A    between atoms: C22_38  and  C23_39
REMARK   13  A    between atoms: C24_42  and  O7_43
REMARK   14  A    between atoms: N5_45  and  O8_46
ROOT
HETATM    1  C5  UNL     1      -9.534  13.114 -36.000  1.00  0.00     0.174 C
HETATM    2  C6  UNL     1      -9.699  12.974 -37.526  1.00  0.00     0.087 C
HETATM    3  C7  UNL     1      -8.912  12.135 -38.140  1.00  0.00     0.123 C
HETATM    4  O2  UNL     1     -10.615  13.689 -38.192  1.00  0.00    -0.352 OA
HETATM    5  C14 UNL     1     -11.944  13.991 -38.071  1.00  0.00     0.176 C
HETATM    6  C15 UNL     1     -12.374  15.366 -38.522  1.00  0.00     0.039 C
HETATM    7  C16 UNL     1     -11.308  16.235 -39.076  1.00  0.00     0.064 C
HETATM    8  C18 UNL     1     -11.257  17.646 -38.487  1.00  0.00     0.013 C
HETATM    9  C19 UNL     1      -9.874  18.136 -38.272  1.00  0.00     0.011 C
HETATM   10  C20 UNL     1      -9.503  18.793 -37.013  1.00  0.00     0.074 C
HETATM   11  S1  UNL     1     -10.169  18.325 -35.476  1.00  0.00    -0.168 SA
HETATM   12  C21 UNL     1      -9.105  17.734 -34.173  1.00  0.00     0.097 C
HETATM   13  C22 UNL     1      -9.474  16.275 -33.749  1.00  0.00     0.172 C
HETATM   14  C24 UNL     1      -9.913  15.540 -34.966  1.00  0.00     0.153 C
HETATM   15  N5  UNL     1      -9.438  14.574 -35.784  1.00  0.00    -0.230 N
ENDROOT
BRANCH   1  16
HETATM   16  C4  UNL     1      -8.227  12.475 -35.600  1.00  0.00     0.035 C
BRANCH  16  17
HETATM   17  C3  UNL     1      -8.220  11.763 -34.291  1.00  0.00     0.004 C
BRANCH  17  18
HETATM   18  C2  UNL     1      -9.380  11.879 -33.405  1.00  0.00     0.027 C
BRANCH  18  19
HETATM   19  C1  UNL     1     -10.032  10.757 -32.735  1.00  0.00     0.229 C
BRANCH  19  20
HETATM   20  N1  UNL     1      -9.288   9.549 -32.573  1.00  0.00    -0.079 N
ATOM     21  H13 UNL     1      -8.295   9.748 -32.699  1.00  0.00     0.274 HD
ATOM     22  H12 UNL     1      -9.307   9.273 -31.592  1.00  0.00     0.274 HD
ATOM     23  H11 UNL     1      -9.544   8.748 -33.150  1.00  0.00     0.274 HD
ENDBRANCH  19  20
ENDBRANCH  18  19
ENDBRANCH  17  18
ENDBRANCH  16  17
ENDBRANCH   1  16
BRANCH   3  24
HETATM   24  N2  UNL     1      -8.963  11.909 -39.559  1.00  0.00    -0.355 N
HETATM   25  C8  UNL     1      -9.773  11.183 -40.189  1.00  0.00     0.099 C
HETATM   26  N3  UNL     1      -9.626  11.117 -41.605  1.00  0.00    -0.087 NA
ATOM     27  H2  UNL     1      -8.261  12.394 -40.119  1.00  0.00     0.166 HD
BRANCH  25  28
HETATM   28  C9  UNL     1     -10.876  10.379 -39.579  1.00  0.00     0.138 C
BRANCH  28  29
HETATM   29  C10 UNL     1     -12.208  10.914 -39.987  1.00  0.00     0.059 A
HETATM   30  C11 UNL     1     -13.413  10.348 -39.643  1.00  0.00     0.035 A
HETATM   31  C12 UNL     1     -14.400  11.151 -40.220  1.00  0.00     0.027 A
HETATM   32  C13 UNL     1     -13.732  12.152 -40.876  1.00  0.00     0.142 A
HETATM   33  O1  UNL     1     -12.439  11.969 -40.709  1.00  0.00    -0.327 OA
ENDBRANCH  28  29
ENDBRANCH  25  28
ENDBRANCH   3  24
BRANCH  15  34
HETATM   34  O8  UNL     1      -8.586  15.032 -36.845  1.00  0.00    -0.285 OA
ATOM     35  H8  UNL     1      -8.007  15.657 -36.425  1.00  0.00     0.245 HD
ENDBRANCH  15  34
BRANCH  14  36
HETATM   36  O7  UNL     1     -11.087  16.018 -35.278  1.00  0.00    -0.347 OA
ATOM     37  H7  UNL     1     -11.145  15.982 -36.226  1.00  0.00     0.219 HD
ENDBRANCH  14  36
BRANCH  13  38
HETATM   38  C23 UNL     1     -10.606  16.444 -32.825  1.00  0.00     0.185 C
HETATM   39  O5  UNL     1     -10.903  17.553 -32.356  1.00  0.00    -0.647 OA
HETATM   40  O6  UNL     1     -11.363  15.309 -32.471  1.00  0.00    -0.647 OA
ENDBRANCH  13  38
BRANCH   7  41
HETATM   41  C17 UNL     1     -11.454  16.407 -40.532  1.00  0.00     0.139 C
HETATM   42  N4  UNL     1     -11.158  15.548 -41.382  1.00  0.00    -0.251 N
ATOM     43  H4  UNL     1     -11.344  15.883 -42.328  1.00  0.00     0.196 HD
BRANCH  41  44
HETATM   44  O3  UNL     1     -11.962  17.634 -41.050  1.00  0.00    -0.348 OA
ATOM     45  H3  UNL     1     -12.736  17.627 -41.600  1.00  0.00     0.219 HD
ENDBRANCH  41  44
BRANCH  42  46
HETATM   46  O4  UNL     1     -10.669  14.321 -41.393  1.00  0.00    -0.288 OA
ATOM     47  H4  UNL     1     -10.792  13.525 -41.896  1.00  0.00     0.244 HD
ENDBRANCH  42  46
ENDBRANCH   7  41
TORSDOF 14
ENDMDL