MODEL 5
REMARK VINA RESULT: -5.911493090      2.189      2.642
REMARK  12 active torsions:
REMARK  status: ('A' for Active; 'I' for Inactive)
REMARK    1  A    between atoms: C2_2  and  C3_3
REMARK    2  A    between atoms: C2_2  and  C17_40
REMARK    3  A    between atoms: C3_3  and  O1_4
REMARK    4  A    between atoms: O1_4  and  C4_5
REMARK       I    between atoms: C4_5  and  N1_7
REMARK    5  A    between atoms: N1_7  and  C5_9
REMARK    6  A    between atoms: C5_9  and  C6_10
REMARK    7  A    between atoms: C5_9  and  C7_12
REMARK       I    between atoms: C7_12  and  N2_14
REMARK    8  A    between atoms: N2_14  and  C8_16
REMARK    9  A    between atoms: N5_23  and  C10_24
REMARK   10  A    between atoms: C13_28  and  N6_29
REMARK   11  A    between atoms: C15_33  and  N7_34
REMARK   12  A    between atoms: C16_37  and  O8_38
ROOT
HETATM    1  C8  UNL     1      -9.482  17.036 -33.295  1.00  0.00     0.176 A
HETATM    2  N3  UNL     1      -8.440  17.411 -34.047  1.00  0.00    -0.172 N
ATOM      3  H3  UNL     1      -7.878  16.763 -34.600  1.00  0.00     0.186 HD
HETATM    4  C9  UNL     1      -8.212  18.749 -33.992  1.00  0.00     0.686 A
HETATM    5  N4  UNL     1      -7.336  19.490 -34.539  1.00  0.00    -0.234 N
ATOM      6  H41 UNL     1      -7.166  20.495 -34.497  1.00  0.00     0.174 HD
ATOM      7  H42 UNL     1      -6.617  19.127 -35.165  1.00  0.00     0.174 HD
HETATM    8  N5  UNL     1      -9.180  19.237 -33.149  1.00  0.00    -0.120 N
HETATM    9  C16 UNL     1      -9.941  18.232 -32.730  1.00  0.00     0.209 A
ENDROOT
BRANCH   1  10
HETATM   10  N2  UNL     1     -10.037  15.773 -33.046  1.00  0.00    -0.307 N
HETATM   11  C7  UNL     1      -9.680  14.572 -33.723  1.00  0.00     0.247 C
HETATM   12  O3  UNL     1      -8.833  14.619 -34.645  1.00  0.00    -0.271 OA
ATOM     13  H2  UNL     1     -10.753  15.710 -32.322  1.00  0.00     0.170 HD
BRANCH  11  14
HETATM   14  C5  UNL     1     -10.318  13.293 -33.324  1.00  0.00     0.189 C
BRANCH  14  15
HETATM   15  N1  UNL     1     -11.720  13.398 -33.773  1.00  0.00    -0.323 N
HETATM   16  C4  UNL     1     -12.741  12.662 -33.123  1.00  0.00     0.361 C
HETATM   17  O2  UNL     1     -12.485  11.898 -32.149  1.00  0.00    -0.238 OA
ATOM     18  H1  UNL     1     -11.956  14.005 -34.558  1.00  0.00     0.165 HD
BRANCH  16  19
HETATM   19  O1  UNL     1     -14.034  12.765 -33.543  1.00  0.00    -0.304 OA
BRANCH  19  20
HETATM   20  C3  UNL     1     -15.166  12.609 -32.736  1.00  0.00     0.185 C
BRANCH  20  21
HETATM   21  C2  UNL     1     -16.327  11.994 -33.476  1.00  0.00     0.013 C
HETATM   22  C1  UNL     1     -16.834  10.754 -32.772  1.00  0.00     0.012 C
BRANCH  21  23
HETATM   23  C17 UNL     1     -17.510  12.983 -33.434  1.00  0.00    -0.046 C
HETATM   24  C18 UNL     1     -17.123  14.242 -32.693  1.00  0.00     0.015 C
HETATM   25  C19 UNL     1     -17.993  13.329 -34.818  1.00  0.00     0.015 C
HETATM   26  C20 UNL     1     -18.642  12.304 -32.690  1.00  0.00     0.015 C
ENDBRANCH  21  23
ENDBRANCH  20  21
ENDBRANCH  19  20
ENDBRANCH  16  19
ENDBRANCH  14  15
BRANCH  14  27
HETATM   27  C6  UNL     1      -9.663  12.190 -34.158  1.00  0.00     0.121 C
HETATM   28  S1  UNL     1      -8.897  10.994 -33.069  1.00  0.00    -0.095 SA
ENDBRANCH  14  27
ENDBRANCH  11  14
ENDBRANCH   1  10
BRANCH   9  29
HETATM   29  O8  UNL     1     -11.036  18.358 -31.853  1.00  0.00    -0.343 OA
ATOM     30  H8  UNL     1     -11.949  18.393 -32.110  1.00  0.00     0.219 HD
ENDBRANCH   9  29
BRANCH   8  31
HETATM   31  C10 UNL     1      -9.324  20.610 -32.797  1.00  0.00     0.094 A
HETATM   32  C11 UNL     1      -8.645  21.111 -31.701  1.00  0.00     0.059 A
HETATM   33  C12 UNL     1      -8.691  22.405 -31.272  1.00  0.00     0.069 A
HETATM   34 CL1  UNL     1      -7.815  23.011 -29.893  1.00  0.00    -0.082 Cl
HETATM   35  C13 UNL     1      -9.489  23.296 -31.999  1.00  0.00     0.127 A
HETATM   36  C14 UNL     1     -10.168  22.822 -33.090  1.00  0.00     0.076 A
HETATM   37  C15 UNL     1     -10.108  21.482 -33.514  1.00  0.00     0.133 A
BRANCH  35  38
HETATM   38  N6  UNL     1      -9.584  24.657 -31.608  1.00  0.00    -0.114 N
HETATM   39  O4  UNL     1      -8.726  25.470 -31.954  1.00  0.00    -0.532 OA
HETATM   40  O5  UNL     1     -10.652  25.043 -30.835  1.00  0.00    -0.532 OA
ENDBRANCH  35  38
BRANCH  37  41
HETATM   41  N7  UNL     1     -10.841  21.072 -34.657  1.00  0.00    -0.113 N
HETATM   42  O6  UNL     1     -12.049  20.772 -34.534  1.00  0.00    -0.532 OA
HETATM   43  O7  UNL     1     -10.240  21.016 -35.873  1.00  0.00    -0.532 OA
ENDBRANCH  37  41
ENDBRANCH   8  31
TORSDOF 12
ENDMDL