MODEL 1
REMARK VINA RESULT: -10.700406904      0.000      0.000
REMARK  15 active torsions:
REMARK  status: ('A' for Active; 'I' for Inactive)
REMARK    1  A    between atoms: S1_2  and  C2_3
REMARK    2  A    between atoms: C2_3  and  C3_4
REMARK    3  A    between atoms: C3_4  and  C4_5
REMARK    4  A    between atoms: C4_5  and  N1_6
REMARK    5  A    between atoms: C4_5  and  N7_28
REMARK    6  A    between atoms: N1_6  and  N2_8
REMARK    7  A    between atoms: N2_8  and  C5_10
REMARK    8  A    between atoms: C8_13  and  O1_14
REMARK    9  A    between atoms: O1_14  and  N3_15
REMARK   10  A    between atoms: N3_15  and  N4_17
REMARK   11  A    between atoms: N4_17  and  N5_18
REMARK   12  A    between atoms: N4_17  and  O2_21
REMARK   13  A    between atoms: C9_23  and  N6_24
REMARK       I    between atoms: N7_28  and  C11_30
REMARK       I    between atoms: C11_30  and  N8_32
REMARK   14  A    between atoms: N8_32  and  N9_34
REMARK       I    between atoms: N9_34  and  C12_36
REMARK   15  A    between atoms: C12_36  and  C13_38
ROOT
HETATM    1  C4  UNL     1     -17.245  11.742 -33.715  1.00  0.00     0.100 C
ENDROOT
BRANCH   1   2
HETATM    2  C3  UNL     1     -17.937  11.710 -35.017  1.00  0.00     0.088 C
BRANCH   2   3
HETATM    3  C2  UNL     1     -17.632  12.937 -35.801  1.00  0.00     0.081 C
BRANCH   3   4
HETATM    4  S1  UNL     1     -19.120  13.933 -36.114  1.00  0.00    -0.173 SA
HETATM    5  C1  UNL     1     -19.007  14.784 -37.715  1.00  0.00     0.089 C
ENDBRANCH   3   4
ENDBRANCH   2   3
ENDBRANCH   1   2
BRANCH   1   6
HETATM    6  N1  UNL     1     -18.054  11.847 -32.672  1.00  0.00    -0.288 N
ATOM      7  H1  UNL     1     -17.838  11.373 -31.795  1.00  0.00     0.188 HD
BRANCH   6   8
HETATM    8  N2  UNL     1     -19.189  12.609 -32.796  1.00  0.00    -0.299 N
ATOM      9  H2  UNL     1     -19.874  12.393 -33.521  1.00  0.00     0.187 HD
BRANCH   8  10
HETATM   10  C5  UNL     1     -19.406  13.695 -31.916  1.00  0.00     0.050 A
HETATM   11  C6  UNL     1     -18.766  14.919 -32.080  1.00  0.00     0.034 A
HETATM   12  C7  UNL     1     -19.045  15.891 -31.193  1.00  0.00     0.044 A
HETATM   13  C8  UNL     1     -19.948  15.770 -30.093  1.00  0.00     0.133 A
HETATM   14  C9  UNL     1     -20.558  14.540 -29.977  1.00  0.00     0.141 A
HETATM   15  C10 UNL     1     -20.291  13.496 -30.886  1.00  0.00     0.070 A
BRANCH  13  16
HETATM   16  O1  UNL     1     -20.104  16.845 -29.296  1.00  0.00    -0.217 OA
BRANCH  16  17
HETATM   17  N3  UNL     1     -20.469  18.069 -29.459  1.00  0.00    -0.160 N
ATOM     18  H3  UNL     1     -21.277  18.253 -30.055  1.00  0.00     0.220 HD
BRANCH  17  19
HETATM   19  N4  UNL     1     -19.887  19.055 -28.927  1.00  0.00    -0.081 N
BRANCH  19  20
HETATM   20  N5  UNL     1     -19.619  20.204 -29.660  1.00  0.00    -0.302 N
ATOM     21  H52 UNL     1     -19.628  20.158 -30.679  1.00  0.00     0.181 HD
ATOM     22  H51 UNL     1     -19.414  21.087 -29.192  1.00  0.00     0.181 HD
ENDBRANCH  19  20
BRANCH  19  23
HETATM   23  O2  UNL     1     -19.515  18.999 -27.613  1.00  0.00    -0.252 OA
ATOM     24  H2  UNL     1     -19.201  18.183 -27.244  1.00  0.00     0.248 HD
ENDBRANCH  19  23
ENDBRANCH  17  19
ENDBRANCH  16  17
ENDBRANCH  13  16
BRANCH  14  25
HETATM   25  N6  UNL     1     -21.485  14.192 -28.967  1.00  0.00    -0.113 N
HETATM   26  O3  UNL     1     -21.003  13.624 -27.918  1.00  0.00    -0.532 OA
HETATM   27  O4  UNL     1     -22.817  14.376 -28.914  1.00  0.00    -0.532 OA
ENDBRANCH  14  25
ENDBRANCH   8  10
ENDBRANCH   6   8
ENDBRANCH   1   6
BRANCH   1  28
HETATM   28  N7  UNL     1     -15.874  11.658 -33.462  1.00  0.00    -0.296 N
HETATM   29  C11 UNL     1     -15.150  12.644 -32.787  1.00  0.00     0.340 C
HETATM   30  O5  UNL     1     -15.773  13.692 -32.375  1.00  0.00    -0.245 OA
HETATM   31  N8  UNL     1     -13.773  12.536 -32.536  1.00  0.00    -0.248 N
ATOM     32  H8  UNL     1     -13.500  12.440 -31.558  1.00  0.00     0.192 HD
ATOM     33  H7  UNL     1     -15.374  10.831 -33.789  1.00  0.00     0.172 HD
BRANCH  31  34
HETATM   34  N9  UNL     1     -12.866  12.545 -33.349  1.00  0.00    -0.262 N
HETATM   35  C12 UNL     1     -11.555  13.012 -33.311  1.00  0.00     0.275 C
HETATM   36  O6  UNL     1     -11.268  14.252 -33.222  1.00  0.00    -0.266 OA
ATOM     37  H9  UNL     1     -13.120  12.124 -34.242  1.00  0.00     0.190 HD
BRANCH  35  38
HETATM   38  C13 UNL     1     -10.422  12.076 -33.374  1.00  0.00     0.097 A
HETATM   39  C14 UNL     1     -10.516  10.898 -32.669  1.00  0.00     0.135 A
HETATM   40  N10 UNL     1     -11.678  10.606 -31.896  1.00  0.00    -0.082 NA
HETATM   41  N11 UNL     1      -9.498  10.016 -32.702  1.00  0.00    -0.330 N
HETATM   42  C15 UNL     1      -8.410  10.281 -33.412  1.00  0.00     0.107 A
ATOM     43  H11 UNL     1      -9.564   9.142 -32.179  1.00  0.00     0.168 HD
HETATM   44  N12 UNL     1      -7.433   9.449 -33.453  1.00  0.00    -0.385 N
HETATM   45  C16 UNL     1      -8.259  11.448 -34.139  1.00  0.00     0.004 A
ATOM     46 2H12 UNL     1      -7.544   8.588 -32.916  1.00  0.00     0.157 HD
ATOM     47 1H12 UNL     1      -6.596   9.653 -34.000  1.00  0.00     0.157 HD
HETATM   48  C17 UNL     1      -7.039  11.724 -34.924  1.00  0.00     0.054 C
HETATM   49  C18 UNL     1      -9.298  12.373 -34.116  1.00  0.00     0.062 A
HETATM   50 CL1  UNL     1      -9.129  13.845 -34.988  1.00  0.00    -0.082 Cl
ENDBRANCH  35  38
ENDBRANCH  31  34
ENDBRANCH   1  28
TORSDOF 15
ENDMDL