MODEL 4
REMARK VINA RESULT: -10.670122458      0.103      1.469
REMARK  5 active torsions:
REMARK  status: ('A' for Active; 'I' for Inactive)
REMARK    1  A    between atoms: C4_4  and  C5_5
REMARK    2  A    between atoms: C5_5  and  C6_6
REMARK    3  A    between atoms: C6_6  and  S1_7
REMARK    4  A    between atoms: S1_7  and  C7_8
REMARK    5  A    between atoms: C10_11  and  C11_12
ROOT
HETATM    1  C7  UNL     1       2.354   5.864  14.005  1.00  0.00     0.000 A
HETATM    2  C8  UNL     1       2.294   6.979  14.830  1.00  0.00     0.019 A
HETATM    3  C9  UNL     1       1.232   7.856  14.753  1.00  0.00     0.013 A
HETATM    4  C10 UNL     1       0.190   7.650  13.848  1.00  0.00    -0.026 A
HETATM    5  C17 UNL     1       0.291   6.531  13.047  1.00  0.00     0.013 A
HETATM    6  C18 UNL     1       1.336   5.640  13.100  1.00  0.00     0.019 A
ENDROOT
BRANCH   1   7
HETATM    7  S1  UNL     1       3.698   4.712  14.068  1.00  0.00    -0.130 SA
BRANCH   7   8
HETATM    8  C6  UNL     1       3.226   3.053  13.533  1.00  0.00     0.084 C
BRANCH   8   9
HETATM    9  C5  UNL     1       2.816   2.198  14.740  1.00  0.00     0.049 C
BRANCH   9  10
HETATM   10  C4  UNL     1       1.351   1.918  14.651  1.00  0.00    -0.057 A
HETATM   11  C3  UNL     1       0.856   0.808  14.001  1.00  0.00     0.007 A
HETATM   12  C2  UNL     1      -0.490   0.529  13.905  1.00  0.00     0.001 A
HETATM   13  C1  UNL     1      -1.377   1.408  14.489  1.00  0.00     0.000 A
HETATM   14  C20 UNL     1      -0.923   2.526  15.146  1.00  0.00     0.001 A
HETATM   15  C19 UNL     1       0.429   2.786  15.230  1.00  0.00     0.007 A
ENDBRANCH   9  10
ENDBRANCH   8   9
ENDBRANCH   7   8
ENDBRANCH   1   7
BRANCH   4  16
HETATM   16  C11 UNL     1      -0.934   8.584  13.768  1.00  0.00    -0.026 A
HETATM   17  C12 UNL     1      -1.721   8.915  14.850  1.00  0.00     0.012 A
HETATM   18  C13 UNL     1      -2.773   9.787  14.780  1.00  0.00     0.001 A
HETATM   19  C14 UNL     1      -3.061  10.367  13.560  1.00  0.00     0.000 A
HETATM   20  C15 UNL     1      -2.306  10.075  12.439  1.00  0.00     0.001 A
HETATM   21  C16 UNL     1      -1.256   9.189  12.563  1.00  0.00     0.012 A
ENDBRANCH   4  16
TORSDOF 5
ENDMDL