MODEL 3
REMARK VINA RESULT: -10.622351719      0.557      1.594
REMARK  5 active torsions:
REMARK  status: ('A' for Active; 'I' for Inactive)
REMARK    1  A    between atoms: C4_4  and  S1_5
REMARK    2  A    between atoms: S1_5  and  C5_6
REMARK    3  A    between atoms: C5_6  and  C6_7
REMARK    4  A    between atoms: C6_7  and  C7_8
REMARK    5  A    between atoms: C7_8  and  C8_9
ROOT
HETATM    1  C8  UNL     1      -0.285   8.530  13.304  1.00  0.00    -0.057 A
HETATM    2  C9  UNL     1      -0.685   8.518  14.624  1.00  0.00     0.008 A
HETATM    3  C10 UNL     1      -1.854   9.135  15.017  1.00  0.00     0.013 A
HETATM    4  C11 UNL     1      -2.658   9.779  14.120  1.00  0.00    -0.026 A
HETATM    5  C12 UNL     1      -3.820  10.388  14.540  1.00  0.00     0.012 A
HETATM    6  C13 UNL     1      -4.643  11.042  13.656  1.00  0.00     0.001 A
HETATM    7  C14 UNL     1      -4.255  11.062  12.325  1.00  0.00     0.001 A
HETATM    8  C15 UNL     1      -3.096  10.455  11.903  1.00  0.00     0.012 A
HETATM    9  C16 UNL     1      -2.266   9.798  12.787  1.00  0.00    -0.025 A
HETATM   10  C17 UNL     1      -1.089   9.177  12.389  1.00  0.00     0.019 A
ENDROOT
BRANCH   1  11
HETATM   11  C7  UNL     1       0.993   7.856  12.891  1.00  0.00     0.039 C
BRANCH  11  12
HETATM   12  C6  UNL     1       0.680   6.368  12.879  1.00  0.00     0.015 C
BRANCH  12  13
HETATM   13  C5  UNL     1       1.402   5.638  13.973  1.00  0.00     0.080 C
BRANCH  13  14
HETATM   14  S1  UNL     1       0.302   4.785  15.121  1.00  0.00    -0.130 SA
BRANCH  14  15
HETATM   15  C4  UNL     1       0.117   3.065  14.652  1.00  0.00     0.000 A
HETATM   16  C3  UNL     1       1.242   2.278  14.414  1.00  0.00     0.018 A
HETATM   17  C2  UNL     1       1.147   0.971  14.079  1.00  0.00     0.001 A
HETATM   18  C1  UNL     1      -0.061   0.339  13.952  1.00  0.00     0.000 A
HETATM   19  C19 UNL     1      -1.192   1.089  14.182  1.00  0.00     0.001 A
HETATM   20  C18 UNL     1      -1.102   2.440  14.529  1.00  0.00     0.018 A
ENDBRANCH  14  15
ENDBRANCH  13  14
ENDBRANCH  12  13
ENDBRANCH  11  12
ENDBRANCH   1  11
TORSDOF 5
ENDMDL