MODEL 3
REMARK VINA RESULT: -10.783230710      1.456      7.951
REMARK  5 active torsions:
REMARK  status: ('A' for Active; 'I' for Inactive)
REMARK    1  A    between atoms: C3_3  and  C4_4
REMARK    2  A    between atoms: C4_4  and  C5_5
REMARK    3  A    between atoms: C5_5  and  C6_6
REMARK    4  A    between atoms: C6_6  and  S1_7
REMARK    5  A    between atoms: S1_7  and  C7_8
ROOT
HETATM    1  C1  UNL     1       6.874   8.937  13.259  1.00  0.00     0.012 C
HETATM    2  C2  UNL     1       7.585   8.337  12.494  1.00  0.00    -0.117 C
HETATM    3  C3  UNL     1       8.470   7.625  11.567  1.00  0.00     0.093 C
ENDROOT
BRANCH   3   4
HETATM    4  C4  UNL     1       8.774   6.248  12.169  1.00  0.00     0.013 C
BRANCH   4   5
HETATM    5  C5  UNL     1       8.307   5.215  11.172  1.00  0.00     0.011 C
BRANCH   5   6
HETATM    6  C6  UNL     1       7.481   4.136  11.795  1.00  0.00     0.079 C
BRANCH   6   7
HETATM    7  S1  UNL     1       5.840   4.804  12.204  1.00  0.00    -0.130 SA
BRANCH   7   8
HETATM    8  C7  UNL     1       4.775   3.375  12.511  1.00  0.00     0.001 A
HETATM    9  C8  UNL     1       5.152   2.119  12.162  1.00  0.00     0.019 A
HETATM   10  C9  UNL     1       4.360   1.016  12.386  1.00  0.00     0.013 A
HETATM   11  C10 UNL     1       3.138   1.223  12.990  1.00  0.00    -0.025 A
HETATM   12  C11 UNL     1       2.302   0.149  13.237  1.00  0.00     0.013 A
HETATM   13  C19 UNL     1       2.703   2.508  13.368  1.00  0.00    -0.013 A
HETATM   14  C12 UNL     1       1.076   0.318  13.836  1.00  0.00     0.013 A
HETATM   15  C13 UNL     1       0.653   1.580  14.206  1.00  0.00    -0.025 A
HETATM   16  C14 UNL     1      -0.597   1.740  14.816  1.00  0.00     0.012 A
HETATM   17  C18 UNL     1       1.473   2.659  13.967  1.00  0.00    -0.015 A
HETATM   18  C15 UNL     1      -1.005   2.988  15.177  1.00  0.00     0.001 A
HETATM   19  C16 UNL     1      -0.189   4.073  14.940  1.00  0.00     0.001 A
HETATM   20  C17 UNL     1       1.070   3.918  14.328  1.00  0.00     0.013 A
HETATM   21  C20 UNL     1       3.539   3.569  13.119  1.00  0.00     0.031 A
ENDBRANCH   7   8
ENDBRANCH   6   7
ENDBRANCH   5   6
ENDBRANCH   4   5
ENDBRANCH   3   4
TORSDOF 5
ENDMDL