MODEL 2
REMARK VINA RESULT: -10.200214469      1.732      6.237
REMARK  5 active torsions:
REMARK  status: ('A' for Active; 'I' for Inactive)
REMARK    1  A    between atoms: C4_4  and  C5_5
REMARK    2  A    between atoms: C5_5  and  S1_6
REMARK    3  A    between atoms: S1_6  and  C6_7
REMARK    4  A    between atoms: C6_7  and  C7_8
REMARK    5  A    between atoms: C6_7  and  C13_14
ROOT
HETATM    1  C6  UNL     1       1.400   4.119  14.852  1.00  0.00     0.113 C
ENDROOT
BRANCH   1   2
HETATM    2  S1  UNL     1       3.062   3.826  14.144  1.00  0.00    -0.150 SA
BRANCH   2   3
HETATM    3  C5  UNL     1       4.031   5.322  14.379  1.00  0.00     0.113 C
BRANCH   3   4
HETATM    4  C4  UNL     1       3.906   6.263  13.223  1.00  0.00    -0.049 A
HETATM    5  C3  UNL     1       3.638   7.606  13.351  1.00  0.00     0.008 A
HETATM    6  C2  UNL     1       3.532   8.436  12.245  1.00  0.00     0.001 A
HETATM    7  C1  UNL     1       3.692   7.951  10.965  1.00  0.00     0.000 A
HETATM    8  C20 UNL     1       3.961   6.607  10.826  1.00  0.00     0.001 A
HETATM    9  C19 UNL     1       4.066   5.778  11.919  1.00  0.00     0.008 A
ENDBRANCH   3   4
ENDBRANCH   2   3
ENDBRANCH   1   2
BRANCH   1  10
HETATM   10  C7  UNL     1       0.614   2.889  14.557  1.00  0.00    -0.040 A
HETATM   11  C8  UNL     1       1.254   1.760  14.148  1.00  0.00     0.009 A
HETATM   12  C9  UNL     1       0.549   0.607  13.859  1.00  0.00     0.001 A
HETATM   13  C10 UNL     1      -0.816   0.546  13.972  1.00  0.00     0.000 A
HETATM   14  C11 UNL     1      -1.467   1.689  14.389  1.00  0.00     0.001 A
HETATM   15  C12 UNL     1      -0.761   2.852  14.680  1.00  0.00     0.009 A
ENDBRANCH   1  10
BRANCH   1  16
HETATM   16  C13 UNL     1       0.807   5.350  14.324  1.00  0.00    -0.040 A
HETATM   17  C14 UNL     1       0.541   5.578  12.996  1.00  0.00     0.009 A
HETATM   18  C15 UNL     1      -0.018   6.765  12.603  1.00  0.00     0.001 A
HETATM   19  C16 UNL     1      -0.331   7.764  13.496  1.00  0.00     0.000 A
HETATM   20  C17 UNL     1      -0.071   7.556  14.852  1.00  0.00     0.001 A
HETATM   21  C18 UNL     1       0.490   6.358  15.229  1.00  0.00     0.009 A
ENDBRANCH   1  16
TORSDOF 5
ENDMDL