MODEL 3
REMARK VINA RESULT: -10.468995324      2.691      5.420
REMARK  5 active torsions:
REMARK  status: ('A' for Active; 'I' for Inactive)
REMARK    1  A    between atoms: C2_2  and  C3_3
REMARK    2  A    between atoms: C3_3  and  C4_4
REMARK    3  A    between atoms: C3_3  and  C11_11
REMARK    4  A    between atoms: C4_4  and  C5_5
REMARK    5  A    between atoms: C15_15  and  C16_16
ROOT
HETATM    1  C11 UNL     1       3.296   5.138  13.526  1.00  0.00    -0.050 A
HETATM    2  C12 UNL     1       4.421   5.927  13.384  1.00  0.00     0.008 A
HETATM    3  C13 UNL     1       4.359   7.306  13.369  1.00  0.00     0.002 A
HETATM    4  C14 UNL     1       3.141   7.927  13.501  1.00  0.00     0.014 A
HETATM    5  C15 UNL     1       1.964   7.177  13.649  1.00  0.00    -0.009 A
HETATM    6  C21 UNL     1       2.095   5.812  13.655  1.00  0.00     0.021 A
ENDROOT
BRANCH   1   7
HETATM    7  C3  UNL     1       3.380   3.656  13.547  1.00  0.00     0.041 C
BRANCH   7   8
HETATM    8  C2  UNL     1       4.767   3.169  13.219  1.00  0.00     0.009 C
HETATM    9  C1  UNL     1       4.739   1.904  12.382  1.00  0.00     0.006 C
ENDBRANCH   7   8
BRANCH   7  10
HETATM   10  C4  UNL     1       2.721   2.984  14.671  1.00  0.00    -0.006 C
BRANCH  10  11
HETATM   11  C5  UNL     1       1.449   2.338  14.567  1.00  0.00    -0.039 A
HETATM   12  C6  UNL     1       1.397   1.104  13.937  1.00  0.00     0.011 A
HETATM   13  C7  UNL     1       0.217   0.410  13.792  1.00  0.00     0.001 A
HETATM   14  C8  UNL     1      -0.970   0.923  14.271  1.00  0.00     0.000 A
HETATM   15  C9  UNL     1      -0.907   2.144  14.892  1.00  0.00     0.001 A
HETATM   16  C10 UNL     1       0.258   2.845  15.044  1.00  0.00     0.011 A
ENDBRANCH  10  11
ENDBRANCH   7  10
ENDBRANCH   1   7
BRANCH   5  17
HETATM   17  C16 UNL     1       0.687   7.879  13.786  1.00  0.00     0.042 A
HETATM   18  C17 UNL     1       0.035   7.997  14.983  1.00  0.00     0.030 A
HETATM   19  C18 UNL     1      -1.178   8.664  15.109  1.00  0.00     0.004 A
HETATM   20  C19 UNL     1      -1.744   9.229  13.990  1.00  0.00     0.017 A
HETATM   21  C20 UNL     1      -1.073   9.101  12.790  1.00  0.00     0.088 A
HETATM   22  N1  UNL     1       0.100   8.447  12.708  1.00  0.00    -0.365 N
ATOM     23  H1  UNL     1       0.562   8.376  11.801  1.00  0.00     0.165 HD
ENDBRANCH   5  17
TORSDOF 5
ENDMDL