MODEL 2
REMARK VINA RESULT: -11.267342013      0.754      1.617
REMARK  5 active torsions:
REMARK  status: ('A' for Active; 'I' for Inactive)
REMARK    1  A    between atoms: C2_3  and  C3_4
REMARK    2  A    between atoms: C3_4  and  C4_5
REMARK    3  A    between atoms: C4_5  and  C5_6
REMARK    4  A    between atoms: C10_11  and  C11_12
REMARK    5  A    between atoms: C11_12  and  C12_13
ROOT
HETATM    1  N1  UNL     1       6.220   8.918  13.634  1.00  0.00    -0.197 NA
HETATM    2  C1  UNL     1       7.174   8.777  12.975  1.00  0.00     0.059 C
HETATM    3  C2  UNL     1       8.388   8.614  12.161  1.00  0.00     0.124 C
ENDROOT
BRANCH   3   4
HETATM    4  C3  UNL     1       8.766   7.157  12.185  1.00  0.00     0.018 C
BRANCH   4   5
HETATM    5  C4  UNL     1       8.036   6.468  11.055  1.00  0.00     0.039 C
BRANCH   5   6
HETATM    6  C5  UNL     1       7.191   5.343  11.549  1.00  0.00    -0.057 A
HETATM    7  C6  UNL     1       7.727   4.106  11.842  1.00  0.00     0.008 A
HETATM    8  C7  UNL     1       6.960   3.056  12.299  1.00  0.00     0.013 A
HETATM    9  C8  UNL     1       5.601   3.218  12.481  1.00  0.00    -0.025 A
HETATM   10  C9  UNL     1       4.805   2.168  12.942  1.00  0.00     0.019 A
HETATM   11  C20 UNL     1       5.037   4.422  12.202  1.00  0.00    -0.025 A
HETATM   12  C10 UNL     1       3.450   2.312  13.129  1.00  0.00    -0.053 A
HETATM   13  C18 UNL     1       2.891   3.538  12.843  1.00  0.00     0.008 A
HETATM   14  C19 UNL     1       3.677   4.584  12.384  1.00  0.00     0.013 A
HETATM   15  C21 UNL     1       5.831   5.480  11.738  1.00  0.00     0.019 A
BRANCH  12  16
HETATM   16  C11 UNL     1       2.611   1.220  13.612  1.00  0.00     0.077 C
BRANCH  16  17
HETATM   17  C12 UNL     1       1.360   1.650  14.258  1.00  0.00    -0.054 A
HETATM   18  C13 UNL     1       1.318   2.628  15.232  1.00  0.00     0.007 A
HETATM   19  C14 UNL     1       0.118   3.021  15.832  1.00  0.00     0.001 A
HETATM   20  C15 UNL     1      -1.070   2.418  15.444  1.00  0.00     0.000 A
HETATM   21  C16 UNL     1      -1.045   1.439  14.472  1.00  0.00     0.001 A
HETATM   22  C17 UNL     1       0.166   1.066  13.888  1.00  0.00     0.007 A
ENDBRANCH  16  17
ENDBRANCH  12  16
ENDBRANCH   5   6
ENDBRANCH   4   5
ENDBRANCH   3   4
TORSDOF 5
ENDMDL