MODEL 4
REMARK VINA RESULT: -11.296384617      1.314      6.803
REMARK  4 active torsions:
REMARK  status: ('A' for Active; 'I' for Inactive)
REMARK    1  A    between atoms: C4_4  and  C5_5
REMARK    2  A    between atoms: C5_5  and  C6_6
REMARK    3  A    between atoms: C6_6  and  C7_7
REMARK    4  A    between atoms: C8_8  and  C9_9
ROOT
HETATM    1  C9  UNL     1       4.523   4.140  12.121  1.00  0.00     0.077 A
HETATM    2  C10 UNL     1       5.890   4.744  11.806  1.00  0.00    -0.033 A
HETATM    3  C11 UNL     1       6.983   4.168  11.145  1.00  0.00     0.009 A
HETATM    4  C12 UNL     1       8.162   4.864  10.960  1.00  0.00     0.001 A
HETATM    5  C13 UNL     1       8.268   6.171  11.444  1.00  0.00     0.001 A
HETATM    6  C14 UNL     1       7.183   6.716  12.089  1.00  0.00     0.015 A
HETATM    7  C15 UNL     1       6.000   5.995  12.266  1.00  0.00     0.006 A
HETATM    8  C16 UNL     1       4.716   6.319  12.882  1.00  0.00     0.093 A
HETATM    9  O1  UNL     1       4.109   7.312  13.500  1.00  0.00    -0.321 OA
HETATM   10  C17 UNL     1       2.899   6.985  13.822  1.00  0.00     0.143 A
HETATM   11  C18 UNL     1       2.648   5.695  13.408  1.00  0.00     0.035 A
HETATM   12  C19 UNL     1       3.843   5.265  12.796  1.00  0.00    -0.009 A
ENDROOT
BRANCH   1  13
HETATM   13  C8  UNL     1       4.780   2.917  12.910  1.00  0.00    -0.017 C
HETATM   14  C7  UNL     1       4.448   1.556  12.545  1.00  0.00    -0.029 C
BRANCH  14  15
HETATM   15  C6  UNL     1       3.051   1.127  12.261  1.00  0.00     0.031 C
BRANCH  15  16
HETATM   16  C5  UNL     1       2.434   0.385  13.446  1.00  0.00     0.042 C
BRANCH  16  17
HETATM   17  C4  UNL     1       1.335   1.111  14.101  1.00  0.00    -0.058 A
HETATM   18  C3  UNL     1      -0.003   0.744  13.942  1.00  0.00     0.007 A
HETATM   19  C2  UNL     1      -1.015   1.428  14.583  1.00  0.00     0.001 A
HETATM   20  C1  UNL     1      -0.745   2.495  15.402  1.00  0.00     0.000 A
HETATM   21  C21 UNL     1       0.569   2.872  15.573  1.00  0.00     0.001 A
HETATM   22  C20 UNL     1       1.564   2.186  14.932  1.00  0.00     0.007 A
ENDBRANCH  16  17
ENDBRANCH  15  16
ENDBRANCH  14  15
ENDBRANCH   1  13
TORSDOF 4
ENDMDL