MODEL 1
REMARK VINA RESULT: -11.101801648      0.000      0.000
REMARK  5 active torsions:
REMARK  status: ('A' for Active; 'I' for Inactive)
REMARK    1  A    between atoms: C4_4  and  C5_5
REMARK    2  A    between atoms: C5_5  and  S1_6
REMARK    3  A    between atoms: S1_6  and  C6_7
REMARK    4  A    between atoms: C6_7  and  C7_8
REMARK    5  A    between atoms: C10_11  and  C11_12
ROOT
HETATM    1  C7  UNL     1       1.100   7.314  14.124  1.00  0.00    -0.049 A
HETATM    2  C8  UNL     1       0.181   7.544  15.131  1.00  0.00     0.009 A
HETATM    3  C9  UNL     1      -0.933   8.321  14.960  1.00  0.00     0.013 A
HETATM    4  C10 UNL     1      -1.194   8.927  13.738  1.00  0.00    -0.026 A
HETATM    5  C17 UNL     1      -0.286   8.707  12.727  1.00  0.00     0.013 A
HETATM    6  C18 UNL     1       0.841   7.916  12.914  1.00  0.00     0.009 A
ENDROOT
BRANCH   1   7
HETATM    7  C6  UNL     1       2.294   6.453  14.392  1.00  0.00     0.112 C
BRANCH   7   8
HETATM    8  S1  UNL     1       2.196   4.847  13.629  1.00  0.00    -0.160 SA
BRANCH   8   9
HETATM    9  C5  UNL     1       2.198   3.451  14.731  1.00  0.00     0.112 C
BRANCH   9  10
HETATM   10  C4  UNL     1       1.063   2.510  14.524  1.00  0.00    -0.049 A
HETATM   11  C3  UNL     1      -0.253   2.799  14.739  1.00  0.00     0.008 A
HETATM   12  C2  UNL     1      -1.201   1.833  14.490  1.00  0.00     0.001 A
HETATM   13  C1  UNL     1      -0.850   0.584  14.031  1.00  0.00     0.000 A
HETATM   14  C20 UNL     1       0.490   0.293  13.813  1.00  0.00     0.001 A
HETATM   15  C19 UNL     1       1.424   1.249  14.059  1.00  0.00     0.008 A
ENDBRANCH   9  10
ENDBRANCH   8   9
ENDBRANCH   7   8
ENDBRANCH   1   7
BRANCH   4  16
HETATM   16  C11 UNL     1      -2.388   9.756  13.545  1.00  0.00    -0.026 A
HETATM   17  C12 UNL     1      -2.729  10.214  12.282  1.00  0.00     0.012 A
HETATM   18  C13 UNL     1      -3.838  10.993  12.039  1.00  0.00     0.001 A
HETATM   19  C14 UNL     1      -4.640  11.330  13.105  1.00  0.00     0.000 A
HETATM   20  C15 UNL     1      -4.327  10.892  14.371  1.00  0.00     0.001 A
HETATM   21  C16 UNL     1      -3.199  10.102  14.599  1.00  0.00     0.012 A
ENDBRANCH   4  16
TORSDOF 5
ENDMDL