MODEL 2
REMARK VINA RESULT: -11.603200376      5.678      7.921
REMARK  5 active torsions:
REMARK  status: ('A' for Active; 'I' for Inactive)
REMARK    1  A    between atoms: C4_4  and  C5_5
REMARK    2  A    between atoms: C5_5  and  C6_6
REMARK    3  A    between atoms: C6_6  and  C7_7
REMARK    4  A    between atoms: C7_7  and  C8_8
REMARK    5  A    between atoms: C8_8  and  C9_9
ROOT
HETATM    1  C9  UNL     1       0.288   7.805  14.435  1.00  0.00    -0.057 A
HETATM    2  C10 UNL     1       0.922   7.969  13.214  1.00  0.00     0.010 A
HETATM    3  C11 UNL     1       0.371   8.727  12.201  1.00  0.00     0.039 A
HETATM    4  C12 UNL     1      -0.850   9.343  12.407  1.00  0.00     0.087 A
HETATM    5  O1  UNL     1      -1.616  10.109  11.662  1.00  0.00    -0.309 OA
HETATM    6  C13 UNL     1      -2.709  10.465  12.296  1.00  0.00     0.087 A
HETATM    7  C14 UNL     1      -3.798  11.254  11.930  1.00  0.00     0.038 A
HETATM    8  C15 UNL     1      -4.828  11.462  12.823  1.00  0.00     0.003 A
HETATM    9  C16 UNL     1      -4.839  10.916  14.092  1.00  0.00     0.001 A
HETATM   10  C17 UNL     1      -3.744  10.137  14.431  1.00  0.00     0.015 A
HETATM   11  C18 UNL     1      -2.701   9.913  13.559  1.00  0.00     0.011 A
HETATM   12  C19 UNL     1      -1.511   9.202  13.611  1.00  0.00     0.011 A
HETATM   13  C20 UNL     1      -0.926   8.431  14.607  1.00  0.00     0.022 A
ENDROOT
BRANCH   1  14
HETATM   14  C8  UNL     1       0.909   6.984  15.499  1.00  0.00     0.038 C
BRANCH  14  15
HETATM   15  C7  UNL     1       1.207   5.578  15.040  1.00  0.00     0.005 C
BRANCH  15  16
HETATM   16  C6  UNL     1      -0.125   4.842  15.025  1.00  0.00     0.005 C
BRANCH  16  17
HETATM   17  C5  UNL     1      -0.135   3.673  15.980  1.00  0.00     0.038 C
BRANCH  17  18
HETATM   18  C4  UNL     1       0.117   2.451  15.201  1.00  0.00    -0.058 A
HETATM   19  C3  UNL     1       1.402   2.023  14.983  1.00  0.00     0.007 A
HETATM   20  C2  UNL     1       1.641   0.861  14.242  1.00  0.00     0.001 A
HETATM   21  C1  UNL     1       0.580   0.153  13.736  1.00  0.00     0.000 A
HETATM   22  C22 UNL     1      -0.731   0.568  13.946  1.00  0.00     0.001 A
HETATM   23  C21 UNL     1      -0.924   1.727  14.686  1.00  0.00     0.007 A
ENDBRANCH  17  18
ENDBRANCH  16  17
ENDBRANCH  15  16
ENDBRANCH  14  15
ENDBRANCH   1  14
TORSDOF 5
ENDMDL