MODEL 1
REMARK VINA RESULT: -10.766864735      0.000      0.000
REMARK  5 active torsions:
REMARK  status: ('A' for Active; 'I' for Inactive)
REMARK    1  A    between atoms: C4_4  and  C5_5
REMARK    2  A    between atoms: C5_5  and  S1_6
REMARK    3  A    between atoms: S1_6  and  C6_7
REMARK    4  A    between atoms: C6_7  and  C7_8
REMARK    5  A    between atoms: C11_12  and  C12_13
ROOT
HETATM    1  C7  UNL     1       4.876   3.647  12.505  1.00  0.00    -0.048 A
HETATM    2  C8  UNL     1       5.876   2.710  12.432  1.00  0.00     0.008 A
HETATM    3  C9  UNL     1       7.175   3.167  12.200  1.00  0.00     0.001 A
HETATM    4  C10 UNL     1       7.414   4.496  12.054  1.00  0.00     0.012 A
HETATM    5  C11 UNL     1       6.419   5.466  12.122  1.00  0.00    -0.025 A
HETATM    6  C18 UNL     1       5.142   5.006  12.353  1.00  0.00     0.020 A
ENDROOT
BRANCH   1   7
HETATM    7  C6  UNL     1       3.448   3.275  12.738  1.00  0.00     0.112 C
BRANCH   7   8
HETATM    8  S1  UNL     1       3.227   1.490  12.653  1.00  0.00    -0.160 SA
BRANCH   8   9
HETATM    9  C5  UNL     1       2.610   0.756  14.154  1.00  0.00     0.112 C
BRANCH   9  10
HETATM   10  C4  UNL     1       1.213   1.206  14.389  1.00  0.00    -0.049 A
HETATM   11  C3  UNL     1       0.909   2.289  15.156  1.00  0.00     0.008 A
HETATM   12  C2  UNL     1      -0.404   2.698  15.353  1.00  0.00     0.001 A
HETATM   13  C1  UNL     1      -1.404   1.967  14.744  1.00  0.00     0.000 A
HETATM   14  C20 UNL     1      -1.132   0.865  13.960  1.00  0.00     0.001 A
HETATM   15  C19 UNL     1       0.167   0.505  13.797  1.00  0.00     0.008 A
ENDBRANCH   9  10
ENDBRANCH   8   9
ENDBRANCH   7   8
ENDBRANCH   1   7
BRANCH   5  16
HETATM   16  C12 UNL     1       6.749   6.874  11.957  1.00  0.00    -0.026 A
HETATM   17  C13 UNL     1       8.054   7.345  12.113  1.00  0.00     0.012 A
HETATM   18  C14 UNL     1       8.366   8.679  11.956  1.00  0.00     0.001 A
HETATM   19  C15 UNL     1       7.386   9.601  11.637  1.00  0.00     0.000 A
HETATM   20  C16 UNL     1       6.092   9.159  11.477  1.00  0.00     0.001 A
HETATM   21  C17 UNL     1       5.795   7.813  11.638  1.00  0.00     0.012 A
ENDBRANCH   5  16
TORSDOF 5
ENDMDL