MODEL 1
REMARK VINA RESULT: -6.808825811      0.000      0.000
REMARK  12 active torsions:
REMARK  status: ('A' for Active; 'I' for Inactive)
REMARK    1  A    between atoms: C2_2  and  C3_3
REMARK    2  A    between atoms: C2_2  and  O1_10
REMARK    3  A    between atoms: C2_2  and  C22_43
REMARK    4  A    between atoms: C3_3  and  C4_4
REMARK    5  A    between atoms: O1_10  and  C10_11
REMARK    6  A    between atoms: C12_13  and  O2_14
REMARK    7  A    between atoms: O2_14  and  C13_15
REMARK    8  A    between atoms: C15_18  and  O4_19
REMARK    9  A    between atoms: C16_21  and  N1_22
REMARK   10  A    between atoms: C18_27  and  N2_28
REMARK   11  A    between atoms: C19_32  and  N3_33
REMARK   12  A    between atoms: C21_38  and  N4_39
ROOT
HETATM    1  C10 UNL     1      29.796  17.817  23.171  1.00  0.00     0.156 C
HETATM    2  C11 UNL     1      29.987  16.345  23.050  1.00  0.00     0.068 C
HETATM    3  C12 UNL     1      29.562  15.515  24.226  1.00  0.00     0.157 C
HETATM    4  C19 UNL     1      28.298  15.937  24.895  1.00  0.00     0.214 C
HETATM    5  C20 UNL     1      27.874  17.348  24.563  1.00  0.00     0.070 C
HETATM    6  C21 UNL     1      29.129  18.181  24.511  1.00  0.00     0.214 C
ENDROOT
BRANCH   3   7
HETATM    7  O2  UNL     1      29.356  14.214  23.735  1.00  0.00    -0.352 OA
BRANCH   7   8
HETATM    8  C13 UNL     1      28.992  14.192  22.406  1.00  0.00     0.290 C
HETATM    9  O3  UNL     1      29.784  13.425  21.595  1.00  0.00    -0.357 OA
HETATM   10  C14 UNL     1      29.584  12.070  21.654  1.00  0.00     0.205 C
HETATM   11  C15 UNL     1      28.463  11.598  20.745  1.00  0.00     0.172 C
HETATM   12  C16 UNL     1      27.875  12.826  20.095  1.00  0.00     0.216 C
HETATM   13  C17 UNL     1      26.987  13.609  21.004  1.00  0.00     0.073 C
HETATM   14  C18 UNL     1      27.522  13.837  22.368  1.00  0.00     0.240 C
BRANCH  11  15
HETATM   15  O4  UNL     1      28.976  10.801  19.721  1.00  0.00    -0.391 OA
ATOM     16  H4  UNL     1      28.982  11.283  18.903  1.00  0.00     0.210 HD
ENDBRANCH  11  15
BRANCH  12  17
HETATM   17  N1  UNL     1      27.088  12.378  18.963  1.00  0.00    -0.072 N
ATOM     18  H13 UNL     1      27.068  13.053  18.198  1.00  0.00     0.274 HD
ATOM     19  H12 UNL     1      27.526  11.612  18.450  1.00  0.00     0.274 HD
ATOM     20  H11 UNL     1      26.159  12.145  19.314  1.00  0.00     0.274 HD
ENDBRANCH  12  17
BRANCH  14  21
HETATM   21  N2  UNL     1      27.203  12.756  23.307  1.00  0.00    -0.070 N
ATOM     22  H23 UNL     1      28.039  12.417  23.782  1.00  0.00     0.274 HD
ATOM     23  H22 UNL     1      26.691  13.104  24.117  1.00  0.00     0.274 HD
ATOM     24  H21 UNL     1      26.702  11.995  22.847  1.00  0.00     0.274 HD
ENDBRANCH  14  21
ENDBRANCH   7   8
ENDBRANCH   3   7
BRANCH   4  25
HETATM   25  N3  UNL     1      28.381  15.762  26.357  1.00  0.00    -0.072 N
ATOM     26  H33 UNL     1      28.489  14.780  26.611  1.00  0.00     0.274 HD
ATOM     27  H32 UNL     1      29.263  16.117  26.726  1.00  0.00     0.274 HD
ATOM     28  H31 UNL     1      27.581  16.185  26.827  1.00  0.00     0.274 HD
ENDBRANCH   4  25
BRANCH   1  29
HETATM   29  O1  UNL     1      29.045  18.256  22.118  1.00  0.00    -0.362 OA
BRANCH  29  30
HETATM   30  C2  UNL     1      29.718  18.726  21.002  1.00  0.00     0.149 C
HETATM   31  C1  UNL     1      31.063  19.260  21.478  1.00  0.00     0.058 C
BRANCH  30  32
HETATM   32  C3  UNL     1      28.915  19.959  20.573  1.00  0.00     0.087 C
BRANCH  32  33
HETATM   33  C4  UNL     1      27.636  19.716  19.959  1.00  0.00    -0.055 A
HETATM   34  C5  UNL     1      27.380  19.890  18.593  1.00  0.00     0.007 A
HETATM   35  C6  UNL     1      26.136  19.677  18.042  1.00  0.00     0.001 A
HETATM   36  C7  UNL     1      25.089  19.283  18.815  1.00  0.00     0.000 A
HETATM   37  C8  UNL     1      25.298  19.101  20.162  1.00  0.00     0.001 A
HETATM   38  C9  UNL     1      26.545  19.317  20.701  1.00  0.00     0.007 A
ENDBRANCH  32  33
ENDBRANCH  30  32
BRANCH  30  39
HETATM   39  C22 UNL     1      29.815  17.811  19.884  1.00  0.00     0.209 C
HETATM   40  O5  UNL     1      30.590  17.919  18.903  1.00  0.00    -0.646 OA
HETATM   41  O6  UNL     1      28.989  16.668  19.822  1.00  0.00    -0.646 OA
ENDBRANCH  30  39
ENDBRANCH  29  30
ENDBRANCH   1  29
BRANCH   6  42
HETATM   42  N4  UNL     1      30.037  17.931  25.607  1.00  0.00    -0.072 N
ATOM     43  H43 UNL     1      29.934  16.987  25.978  1.00  0.00     0.274 HD
ATOM     44  H42 UNL     1      31.004  17.864  25.292  1.00  0.00     0.274 HD
ATOM     45  H41 UNL     1      29.920  18.640  26.332  1.00  0.00     0.274 HD
ENDBRANCH   6  42
TORSDOF 12
ENDMDL