MODEL 5
REMARK VINA RESULT: -6.063579514      2.409      2.963
REMARK  12 active torsions:
REMARK  status: ('A' for Active; 'I' for Inactive)
REMARK    1  A    between atoms: N1_2  and  S1_4
REMARK    2  A    between atoms: S1_4  and  N2_7
REMARK    3  A    between atoms: N2_7  and  C2_9
REMARK    4  A    between atoms: C2_9  and  C3_10
REMARK    5  A    between atoms: C5_13  and  N3_14
REMARK    6  A    between atoms: N3_14  and  N4_16
REMARK    7  A    between atoms: C6_21  and  S3_22
REMARK    8  A    between atoms: S3_22  and  C7_23
REMARK    9  A    between atoms: C10_27  and  O4_28
REMARK   10  A    between atoms: C11_30  and  O5_31
REMARK   11  A    between atoms: C12_33  and  O6_34
REMARK   12  A    between atoms: C13_36  and  O7_37
ROOT
HETATM    1  C3  UNL     1      28.425  18.765  24.282  1.00  0.00     0.095 C
HETATM    2  S2  UNL     1      28.580  20.072  23.021  1.00  0.00    -0.158 SA
HETATM    3  C4  UNL     1      29.155  19.224  21.520  1.00  0.00     0.102 C
HETATM    4  C5  UNL     1      28.094  18.221  21.151  1.00  0.00     0.126 C
HETATM    5  C6  UNL     1      27.286  17.727  22.301  1.00  0.00     0.104 C
HETATM    6  C13 UNL     1      28.093  17.492  23.555  1.00  0.00     0.149 C
ENDROOT
BRANCH   5   7
HETATM    7  S3  UNL     1      26.401  16.201  21.882  1.00  0.00    -0.125 SA
BRANCH   7   8
HETATM    8  C7  UNL     1      27.442  14.981  21.096  1.00  0.00     0.215 C
HETATM    9  O3  UNL     1      26.695  14.179  20.253  1.00  0.00    -0.365 OA
HETATM   10  C8  UNL     1      27.528  13.425  19.395  1.00  0.00     0.150 C
HETATM   11  C9  UNL     1      26.627  12.682  18.453  1.00  0.00     0.042 C
HETATM   12  C10 UNL     1      28.426  12.562  20.213  1.00  0.00     0.178 C
HETATM   13  C11 UNL     1      28.100  12.641  21.689  1.00  0.00     0.181 C
HETATM   14  C12 UNL     1      28.018  14.075  22.167  1.00  0.00     0.188 C
BRANCH  12  15
HETATM   15  O4  UNL     1      28.280  11.233  19.817  1.00  0.00    -0.390 OA
ATOM     16  H4  UNL     1      29.137  10.850  19.671  1.00  0.00     0.210 HD
ENDBRANCH  12  15
BRANCH  13  17
HETATM   17  O5  UNL     1      29.103  11.961  22.367  1.00  0.00    -0.390 OA
ATOM     18  H5  UNL     1      28.899  12.013  23.294  1.00  0.00     0.210 HD
ENDBRANCH  13  17
BRANCH  14  19
HETATM   19  O6  UNL     1      27.264  14.098  23.330  1.00  0.00    -0.389 OA
ATOM     20  H6  UNL     1      27.345  13.291  23.825  1.00  0.00     0.210 HD
ENDBRANCH  14  19
ENDBRANCH   7   8
ENDBRANCH   5   7
BRANCH   4  21
HETATM   21  N3  UNL     1      27.155  18.948  20.278  1.00  0.00    -0.316 N
ATOM     22  H3  UNL     1      26.142  18.863  20.367  1.00  0.00     0.182 HD
BRANCH  21  23
HETATM   23  N4  UNL     1      27.695  19.679  19.418  1.00  0.00    -0.253 N
HETATM   24  N5  UNL     1      27.770  20.207  18.305  1.00  0.00    -0.331 N
ATOM     25  H52 UNL     1      26.930  19.835  17.861  1.00  0.00     0.178 HD
ATOM     26  H51 UNL     1      28.211  20.803  17.604  1.00  0.00     0.178 HD
ATOM     27  H4  UNL     1      28.525  20.028  19.898  1.00  0.00     0.207 HD
ENDBRANCH  21  23
ENDBRANCH   4  21
BRANCH   6  28
HETATM   28  O7  UNL     1      27.253  16.754  24.424  1.00  0.00    -0.393 OA
ATOM     29  H7  UNL     1      26.391  16.760  24.024  1.00  0.00     0.210 HD
ENDBRANCH   6  28
BRANCH   1  30
HETATM   30  C2  UNL     1      29.794  18.607  24.916  1.00  0.00     0.151 C
BRANCH  30  31
HETATM   31  N2  UNL     1      29.994  17.253  25.404  1.00  0.00    -0.302 N
ATOM     32  H2  UNL     1      29.374  16.728  26.020  1.00  0.00     0.173 HD
BRANCH  31  33
HETATM   33  S1  UNL     1      31.506  16.700  24.727  1.00  0.00     0.314 S
HETATM   34  O1  UNL     1      32.562  16.785  25.784  1.00  0.00    -0.183 OA
HETATM   35  O2  UNL     1      31.334  15.301  24.215  1.00  0.00    -0.183 OA
BRANCH  33  36
HETATM   36  N1  UNL     1      31.917  17.788  23.465  1.00  0.00    -0.307 N
HETATM   37  C1  UNL     1      33.384  17.890  23.454  1.00  0.00     0.161 C
ATOM     38  H1  UNL     1      31.268  18.271  22.842  1.00  0.00     0.173 HD
ENDBRANCH  33  36
ENDBRANCH  31  33
ENDBRANCH  30  31
ENDBRANCH   1  30
TORSDOF 12
ENDMDL