MODEL 3
REMARK VINA RESULT: -6.772674388      2.069      2.514
REMARK  12 active torsions:
REMARK  status: ('A' for Active; 'I' for Inactive)
REMARK       I    between atoms: C2_2  and  N1_4
REMARK    1  A    between atoms: N1_4  and  C3_6
REMARK    2  A    between atoms: C4_7  and  O2_8
REMARK    3  A    between atoms: O2_8  and  C5_9
REMARK    4  A    between atoms: C9_13  and  N2_14
REMARK    5  A    between atoms: C13_22  and  S1_23
REMARK    6  A    between atoms: S1_23  and  C14_24
REMARK    7  A    between atoms: C15_26  and  C16_27
REMARK    8  A    between atoms: C16_27  and  O5_28
REMARK    9  A    between atoms: C17_30  and  O6_31
REMARK   10  A    between atoms: C18_33  and  C19_34
REMARK   11  A    between atoms: C19_34  and  O7_35
REMARK   12  A    between atoms: C20_37  and  O8_38
ROOT
HETATM    1  C3  UNL     1      26.286  16.717  21.614  1.00  0.00     0.169 C
HETATM    2  C4  UNL     1      26.719  16.715  23.051  1.00  0.00     0.286 C
HETATM    3  O3  UNL     1      27.758  15.862  23.315  1.00  0.00    -0.348 OA
HETATM    4  C10 UNL     1      28.181  15.025  22.330  1.00  0.00     0.072 C
HETATM    5  C11 UNL     1      29.342  15.623  21.570  1.00  0.00     0.047 C
HETATM    6  C12 UNL     1      28.770  13.822  23.097  1.00  0.00     0.047 C
HETATM    7  C13 UNL     1      27.165  14.479  21.410  1.00  0.00     0.114 C
HETATM    8  C20 UNL     1      25.869  15.273  21.338  1.00  0.00     0.162 C
ENDROOT
BRANCH   7   9
HETATM    9  S1  UNL     1      27.724  14.296  19.695  1.00  0.00    -0.126 SA
BRANCH   9  10
HETATM   10  C14 UNL     1      27.487  12.643  19.061  1.00  0.00     0.192 C
HETATM   11  O4  UNL     1      26.164  12.227  19.078  1.00  0.00    -0.365 OA
HETATM   12  C15 UNL     1      25.624  12.542  17.838  1.00  0.00     0.175 C
HETATM   13  C17 UNL     1      26.713  12.526  16.818  1.00  0.00     0.158 C
HETATM   14  C18 UNL     1      27.968  12.486  17.642  1.00  0.00     0.080 C
BRANCH  12  15
HETATM   15  C16 UNL     1      24.628  11.439  17.501  1.00  0.00     0.198 C
BRANCH  15  16
HETATM   16  O5  UNL     1      23.541  11.953  16.794  1.00  0.00    -0.398 OA
ATOM     17  H5  UNL     1      23.834  12.462  16.048  1.00  0.00     0.209 HD
ENDBRANCH  15  16
ENDBRANCH  12  15
BRANCH  13  18
HETATM   18  O6  UNL     1      26.668  13.731  16.107  1.00  0.00    -0.392 OA
ATOM     19  H6  UNL     1      27.158  14.384  16.592  1.00  0.00     0.210 HD
ENDBRANCH  13  18
BRANCH  14  20
HETATM   20  C19 UNL     1      28.623  11.129  17.407  1.00  0.00     0.174 C
BRANCH  20  21
HETATM   21  O7  UNL     1      28.773  10.528  18.660  1.00  0.00    -0.400 OA
ATOM     22  H7  UNL     1      29.312   9.757  18.533  1.00  0.00     0.209 HD
ENDBRANCH  20  21
ENDBRANCH  14  20
ENDBRANCH   9  10
ENDBRANCH   7   9
BRANCH   8  23
HETATM   23  O8  UNL     1      25.259  15.128  20.110  1.00  0.00    -0.392 OA
ATOM     24  H8  UNL     1      25.246  15.938  19.614  1.00  0.00     0.210 HD
ENDBRANCH   8  23
BRANCH   1  25
HETATM   25  N1  UNL     1      25.202  17.630  21.407  1.00  0.00    -0.349 N
HETATM   26  C2  UNL     1      25.085  18.331  20.183  1.00  0.00     0.214 C
HETATM   27  C1  UNL     1      23.951  19.264  20.009  1.00  0.00     0.117 C
HETATM   28  O1  UNL     1      25.921  18.158  19.288  1.00  0.00    -0.274 OA
ATOM     29  H1  UNL     1      24.512  17.774  22.144  1.00  0.00     0.163 HD
ENDBRANCH   1  25
BRANCH   2  30
HETATM   30  O2  UNL     1      27.022  17.938  23.584  1.00  0.00    -0.352 OA
BRANCH  30  31
HETATM   31  C5  UNL     1      28.361  18.284  23.590  1.00  0.00     0.155 C
HETATM   32  C6  UNL     1      28.729  19.234  22.498  1.00  0.00     0.034 C
HETATM   33  C7  UNL     1      30.076  19.758  22.938  1.00  0.00     0.005 C
HETATM   34  C8  UNL     1      29.811  20.022  24.414  1.00  0.00     0.035 C
HETATM   35  C9  UNL     1      28.906  18.851  24.833  1.00  0.00     0.212 C
BRANCH  35  36
HETATM   36  N2  UNL     1      29.783  17.937  25.548  1.00  0.00    -0.073 N
ATOM     37  H23 UNL     1      29.449  17.787  26.500  1.00  0.00     0.274 HD
ATOM     38  H22 UNL     1      29.692  16.989  25.184  1.00  0.00     0.274 HD
ATOM     39  H21 UNL     1      30.761  18.232  25.551  1.00  0.00     0.274 HD
ENDBRANCH  35  36
ENDBRANCH  30  31
ENDBRANCH   2  30
TORSDOF 12
ENDMDL