MODEL 3
REMARK VINA RESULT: -6.102966850      2.479      5.552
REMARK  12 active torsions:
REMARK  status: ('A' for Active; 'I' for Inactive)
REMARK    1  A    between atoms: O1_2  and  C2_3
REMARK    2  A    between atoms: C2_3  and  C3_4
REMARK    3  A    between atoms: C3_4  and  C4_5
REMARK       I    between atoms: C4_5  and  N1_7
REMARK    4  A    between atoms: N1_7  and  C5_9
REMARK    5  A    between atoms: C6_10  and  O3_11
REMARK    6  A    between atoms: C9_15  and  S1_16
REMARK    7  A    between atoms: S1_16  and  C10_17
REMARK    8  A    between atoms: C11_19  and  C12_20
REMARK    9  A    between atoms: C12_20  and  O5_21
REMARK   10  A    between atoms: C13_23  and  O6_24
REMARK   11  A    between atoms: C14_26  and  O7_27
REMARK   12  A    between atoms: C15_29  and  O8_30
ROOT
HETATM    1  C5  UNL     1      26.806  17.805  20.295  1.00  0.00     0.127 C
HETATM    2  C6  UNL     1      26.545  18.270  18.883  1.00  0.00     0.142 C
HETATM    3  C7  UNL     1      27.033  19.727  18.915  1.00  0.00     0.035 C
HETATM    4  C8  UNL     1      28.336  19.569  19.658  1.00  0.00     0.020 C
HETATM    5  C9  UNL     1      27.965  18.608  20.763  1.00  0.00     0.075 C
ENDROOT
BRANCH   5   6
HETATM    6  S1  UNL     1      29.398  17.596  21.215  1.00  0.00    -0.128 SA
BRANCH   6   7
HETATM    7  C10 UNL     1      29.177  17.088  22.942  1.00  0.00     0.215 C
HETATM    8  O4  UNL     1      28.451  15.915  22.960  1.00  0.00    -0.363 OA
HETATM    9  C11 UNL     1      28.061  15.639  24.257  1.00  0.00     0.178 C
HETATM   10  C13 UNL     1      28.640  16.517  25.308  1.00  0.00     0.180 C
HETATM   11  C14 UNL     1      30.119  16.763  25.146  1.00  0.00     0.181 C
HETATM   12  C15 UNL     1      30.476  16.935  23.662  1.00  0.00     0.188 C
BRANCH   9  13
HETATM   13  C12 UNL     1      28.304  14.165  24.528  1.00  0.00     0.198 C
BRANCH  13  14
HETATM   14  O5  UNL     1      27.294  13.667  25.357  1.00  0.00    -0.398 OA
ATOM     15  H5  UNL     1      27.308  12.718  25.342  1.00  0.00     0.209 HD
ENDBRANCH  13  14
ENDBRANCH   9  13
BRANCH  10  16
HETATM   16  O6  UNL     1      28.489  15.876  26.551  1.00  0.00    -0.390 OA
ATOM     17  H6  UNL     1      28.944  16.390  27.208  1.00  0.00     0.210 HD
ENDBRANCH  10  16
BRANCH  11  18
HETATM   18  O7  UNL     1      30.440  17.961  25.783  1.00  0.00    -0.390 OA
ATOM     19  H7  UNL     1      29.865  18.067  26.533  1.00  0.00     0.210 HD
ENDBRANCH  11  18
BRANCH  12  20
HETATM   20  O8  UNL     1      31.280  15.913  23.212  1.00  0.00    -0.389 OA
ATOM     21  H8  UNL     1      31.412  15.202  23.827  1.00  0.00     0.210 HD
ENDBRANCH  12  20
ENDBRANCH   6   7
ENDBRANCH   5   6
BRANCH   1  22
HETATM   22  N1  UNL     1      26.958  16.396  20.443  1.00  0.00    -0.353 N
HETATM   23  C4  UNL     1      25.889  15.526  20.716  1.00  0.00     0.223 C
HETATM   24  O2  UNL     1      24.746  16.033  20.832  1.00  0.00    -0.273 OA
ATOM     25  H1  UNL     1      27.892  15.997  20.346  1.00  0.00     0.163 HD
BRANCH  23  26
HETATM   26  C3  UNL     1      26.085  14.095  20.860  1.00  0.00     0.171 C
BRANCH  26  27
HETATM   27  C2  UNL     1      26.461  13.360  19.591  1.00  0.00     0.171 C
HETATM   28  C16 UNL     1      25.348  12.547  19.030  1.00  0.00     0.069 C
HETATM   29  C17 UNL     1      25.987  11.580  18.017  1.00  0.00     0.007 C
HETATM   30  C18 UNL     1      26.558  12.495  16.949  1.00  0.00     0.026 C
HETATM   31  C19 UNL     1      27.415  13.577  17.549  1.00  0.00     0.171 C
HETATM   32  O9  UNL     1      26.899  14.242  18.614  1.00  0.00    -0.355 OA
BRANCH  27  33
HETATM   33  O1  UNL     1      27.529  12.545  19.919  1.00  0.00    -0.359 OA
HETATM   34  C1  UNL     1      27.724  12.327  21.255  1.00  0.00     0.205 C
ENDBRANCH  27  33
ENDBRANCH  26  27
ENDBRANCH  23  26
ENDBRANCH   1  22
BRANCH   2  35
HETATM   35  O3  UNL     1      27.353  17.603  17.970  1.00  0.00    -0.393 OA
ATOM     36  H3  UNL     1      27.485  16.696  18.220  1.00  0.00     0.210 HD
ENDBRANCH   2  35
TORSDOF 12
ENDMDL