MODEL 3
REMARK VINA RESULT: -6.562641730      4.532      7.078
REMARK  10 active torsions:
REMARK  status: ('A' for Active; 'I' for Inactive)
REMARK    1  A    between atoms: N1_1  and  C1_5
REMARK    2  A    between atoms: C1_5  and  C2_6
REMARK    3  A    between atoms: C3_8  and  O2_9
REMARK    4  A    between atoms: O2_9  and  C4_10
REMARK    5  A    between atoms: C8_15  and  N2_16
REMARK       I    between atoms: N2_16  and  C9_18
REMARK    6  A    between atoms: C9_18  and  C10_20
REMARK    7  A    between atoms: C13_23  and  O4_24
REMARK    8  A    between atoms: O4_24  and  C14_25
REMARK    9  A    between atoms: C16_30  and  O5_31
REMARK   10  A    between atoms: C19_39  and  O7_40
ROOT
HETATM    1  C2  UNL     1      28.559  16.120  23.744  1.00  0.00     0.206 C
HETATM    2  O1  UNL     1      27.280  16.236  23.230  1.00  0.00    -0.346 OA
HETATM    3  C3  UNL     1      27.242  16.389  21.862  1.00  0.00     0.311 C
HETATM    4  C8  UNL     1      27.967  15.327  21.085  1.00  0.00     0.345 C
HETATM    5  N4  UNL     1      28.586  14.401  22.018  1.00  0.00    -0.021 N
ATOM      6  H41 UNL     1      29.091  13.640  21.563  1.00  0.00     0.283 HD
ATOM      7  H42 UNL     1      27.916  13.818  22.521  1.00  0.00     0.283 HD
HETATM    8  C19 UNL     1      29.422  15.215  22.891  1.00  0.00     0.352 C
ENDROOT
BRANCH   4   9
HETATM    9  N2  UNL     1      27.054  14.656  20.200  1.00  0.00    -0.325 N
HETATM   10  C9  UNL     1      27.542  13.733  19.258  1.00  0.00     0.253 C
HETATM   11  O3  UNL     1      28.784  13.500  19.196  1.00  0.00    -0.268 OA
ATOM     12  H2  UNL     1      26.054  14.850  20.254  1.00  0.00     0.165 HD
BRANCH  10  13
HETATM   13  C10 UNL     1      26.657  13.013  18.320  1.00  0.00     0.032 A
HETATM   14  C11 UNL     1      26.731  13.168  16.963  1.00  0.00     0.020 A
HETATM   15  C12 UNL     1      25.900  12.490  16.107  1.00  0.00     0.038 A
HETATM   16  C13 UNL     1      24.932  11.602  16.580  1.00  0.00     0.073 A
HETATM   17  C17 UNL     1      24.871  11.457  17.941  1.00  0.00     0.038 A
HETATM   18  C18 UNL     1      25.711  12.142  18.817  1.00  0.00     0.020 A
BRANCH  16  19
HETATM   19  O4  UNL     1      24.140  10.962  15.664  1.00  0.00    -0.297 OA
BRANCH  19  20
HETATM   20  C14 UNL     1      22.793  10.713  15.842  1.00  0.00     0.477 C
HETATM   21  N3  UNL     1      22.186  10.162  14.625  1.00  0.00    -0.020 N
HETATM   22  C15 UNL     1      20.779  10.533  14.731  1.00  0.00     0.298 C
ATOM     23  H32 UNL     1      22.635  10.462  13.760  1.00  0.00     0.283 HD
ATOM     24  H31 UNL     1      22.347   9.163  14.491  1.00  0.00     0.283 HD
HETATM   25  C16 UNL     1      20.762  11.473  15.926  1.00  0.00     0.287 C
HETATM   26  O6  UNL     1      22.085  11.926  15.987  1.00  0.00    -0.306 OA
BRANCH  25  27
HETATM   27  O5  UNL     1      20.493  10.757  17.111  1.00  0.00    -0.369 OA
ATOM     28  H5  UNL     1      19.629  10.975  17.441  1.00  0.00     0.212 HD
ENDBRANCH  25  27
ENDBRANCH  19  20
ENDBRANCH  16  19
ENDBRANCH  10  13
ENDBRANCH   4   9
BRANCH   3  29
HETATM   29  O2  UNL     1      27.891  17.601  21.592  1.00  0.00    -0.351 OA
BRANCH  29  30
HETATM   30  C4  UNL     1      27.062  18.540  21.030  1.00  0.00     0.135 C
HETATM   31  C5  UNL     1      27.401  18.694  19.578  1.00  0.00     0.043 C
HETATM   32  C6  UNL     1      26.368  19.613  18.967  1.00  0.00     0.076 C
HETATM   33  S1  UNL     1      24.846  18.996  19.791  1.00  0.00    -0.166 SA
HETATM   34  C7  UNL     1      25.648  17.941  21.063  1.00  0.00     0.105 C
ENDBRANCH  29  30
ENDBRANCH   3  29
BRANCH   8  35
HETATM   35  O7  UNL     1      30.225  14.464  23.721  1.00  0.00    -0.368 OA
ATOM     36  H7  UNL     1      30.284  13.584  23.370  1.00  0.00     0.212 HD
ENDBRANCH   8  35
BRANCH   1  37
HETATM   37  C1  UNL     1      28.590  15.614  25.151  1.00  0.00     0.266 C
BRANCH  37  38
HETATM   38  N1  UNL     1      27.678  14.494  25.331  1.00  0.00    -0.077 N
ATOM     39  H13 UNL     1      26.756  14.808  25.635  1.00  0.00     0.274 HD
ATOM     40  H12 UNL     1      27.415  14.078  24.437  1.00  0.00     0.274 HD
ATOM     41  H11 UNL     1      28.065  13.798  25.968  1.00  0.00     0.274 HD
ENDBRANCH  37  38
ENDBRANCH   1  37
TORSDOF 10
ENDMDL