MODEL 4
REMARK VINA RESULT: -6.911308108      1.931      2.412
REMARK  12 active torsions:
REMARK  status: ('A' for Active; 'I' for Inactive)
REMARK    1  A    between atoms: C4_4  and  O1_5
REMARK    2  A    between atoms: O1_5  and  C5_6
REMARK    3  A    between atoms: C6_8  and  C7_9
REMARK    4  A    between atoms: C7_9  and  O3_10
REMARK    5  A    between atoms: C8_12  and  O4_13
REMARK    6  A    between atoms: C9_15  and  O5_16
REMARK    7  A    between atoms: C10_18  and  O6_19
REMARK    8  A    between atoms: C11_21  and  C12_22
REMARK       I    between atoms: C12_22  and  N1_24
REMARK    9  A    between atoms: N1_24  and  C13_26
REMARK   10  A    between atoms: C13_26  and  C14_27
REMARK   11  A    between atoms: C17_30  and  N2_31
REMARK   12  A    between atoms: C20_37  and  O8_38
ROOT
HETATM    1  O8  UNL     1      28.152  18.702  17.524  1.00  0.00    -0.277 OA
HETATM    2  C21 UNL     1      27.104  18.341  16.691  1.00  0.00     0.229 C
HETATM    3  N3  UNL     1      26.217  18.051  16.007  1.00  0.00    -0.164 NA
ENDROOT
BRANCH   1   4
HETATM    4  C20 UNL     1      28.394  17.940  18.675  1.00  0.00     0.161 C
HETATM    5  C2  UNL     1      28.858  16.552  18.208  1.00  0.00     0.015 C
HETATM    6  C1  UNL     1      30.260  16.579  17.685  1.00  0.00     0.012 C
HETATM    7  C3  UNL     1      28.729  15.775  19.503  1.00  0.00     0.039 C
HETATM    8  C4  UNL     1      27.290  16.168  19.874  1.00  0.00     0.140 C
HETATM    9  C11 UNL     1      27.159  17.595  19.469  1.00  0.00     0.137 C
BRANCH   8  10
HETATM   10  O1  UNL     1      26.984  15.883  21.172  1.00  0.00    -0.352 OA
BRANCH  10  11
HETATM   11  C5  UNL     1      27.686  14.798  21.685  1.00  0.00     0.292 C
HETATM   12  O2  UNL     1      26.814  13.746  21.817  1.00  0.00    -0.348 OA
HETATM   13  C6  UNL     1      27.389  12.613  22.328  1.00  0.00     0.179 C
HETATM   14  C8  UNL     1      27.781  12.855  23.748  1.00  0.00     0.180 C
HETATM   15  C9  UNL     1      28.308  14.201  24.053  1.00  0.00     0.183 C
HETATM   16  C10 UNL     1      28.423  15.151  22.930  1.00  0.00     0.204 C
BRANCH  13  17
HETATM   17  C7  UNL     1      28.535  12.080  21.497  1.00  0.00     0.198 C
BRANCH  17  18
HETATM   18  O3  UNL     1      27.958  11.360  20.442  1.00  0.00    -0.398 OA
ATOM     19  H3  UNL     1      28.119  10.441  20.624  1.00  0.00     0.209 HD
ENDBRANCH  17  18
ENDBRANCH  13  17
BRANCH  14  20
HETATM   20  O4  UNL     1      26.645  12.561  24.540  1.00  0.00    -0.390 OA
ATOM     21  H4  UNL     1      26.833  11.748  24.994  1.00  0.00     0.210 HD
ENDBRANCH  14  20
BRANCH  15  22
HETATM   22  O5  UNL     1      27.560  14.748  25.123  1.00  0.00    -0.390 OA
ATOM     23  H5  UNL     1      27.939  15.587  25.361  1.00  0.00     0.210 HD
ENDBRANCH  15  22
BRANCH  16  24
HETATM   24  O6  UNL     1      29.771  15.428  22.604  1.00  0.00    -0.388 OA
ATOM     25  H6  UNL     1      29.974  15.034  21.764  1.00  0.00     0.210 HD
ENDBRANCH  16  24
ENDBRANCH  10  11
ENDBRANCH   8  10
BRANCH   9  26
HETATM   26  C12 UNL     1      26.954  18.517  20.609  1.00  0.00     0.226 C
HETATM   27  O7  UNL     1      25.943  19.255  20.731  1.00  0.00    -0.273 OA
HETATM   28  N1  UNL     1      27.931  18.585  21.621  1.00  0.00    -0.360 N
ATOM     29  H1  UNL     1      28.753  17.988  21.519  1.00  0.00     0.162 HD
BRANCH  28  30
HETATM   30  C13 UNL     1      27.868  19.428  22.787  1.00  0.00     0.127 C
BRANCH  30  31
HETATM   31  C14 UNL     1      29.184  19.925  23.283  1.00  0.00     0.003 C
HETATM   32  C15 UNL     1      30.212  18.855  22.978  1.00  0.00     0.008 C
HETATM   33  C16 UNL     1      31.144  18.598  24.121  1.00  0.00     0.033 C
HETATM   34  C17 UNL     1      30.438  18.129  25.364  1.00  0.00     0.183 C
HETATM   35  C18 UNL     1      29.200  18.951  25.600  1.00  0.00     0.033 C
HETATM   36  C19 UNL     1      29.187  20.207  24.767  1.00  0.00     0.008 C
BRANCH  34  37
HETATM   37  N2  UNL     1      30.112  16.735  25.354  1.00  0.00    -0.075 N
ATOM     38  H23 UNL     1      30.784  16.212  24.793  1.00  0.00     0.274 HD
ATOM     39  H22 UNL     1      30.290  16.319  26.268  1.00  0.00     0.274 HD
ATOM     40  H21 UNL     1      29.159  16.536  25.050  1.00  0.00     0.274 HD
ENDBRANCH  34  37
ENDBRANCH  30  31
ENDBRANCH  28  30
ENDBRANCH   9  26
ENDBRANCH   1   4
TORSDOF 12
ENDMDL