MODEL 1
REMARK VINA RESULT: -7.169689522      0.000      0.000
REMARK  11 active torsions:
REMARK  status: ('A' for Active; 'I' for Inactive)
REMARK    1  A    between atoms: C1_2  and  N2_4
REMARK    2  A    between atoms: N2_4  and  C2_6
REMARK    3  A    between atoms: C2_6  and  C3_7
REMARK    4  A    between atoms: C4_11  and  C5_12
REMARK    5  A    between atoms: C5_12  and  O1_13
REMARK    6  A    between atoms: C8_20  and  C9_21
REMARK    7  A    between atoms: C9_21  and  O5_22
REMARK    8  A    between atoms: O5_22  and  C10_23
REMARK    9  A    between atoms: C16_29  and  O6_30
REMARK   10  A    between atoms: C17_32  and  C18_33
REMARK   11  A    between atoms: C18_33  and  O7_34
ROOT
HETATM    1  C3  UNL     1      28.075  19.597  19.728  1.00  0.00     0.244 C
HETATM    2  N3  UNL     1      26.861  19.598  20.514  1.00  0.00    -0.057 N
ATOM      3  H31 UNL     1      26.540  20.525  20.790  1.00  0.00     0.278 HD
ATOM      4  H32 UNL     1      26.973  19.235  21.461  1.00  0.00     0.278 HD
HETATM    5  C4  UNL     1      25.931  18.867  19.708  1.00  0.00     0.242 C
HETATM    6  C6  UNL     1      26.705  17.867  18.944  1.00  0.00     0.206 C
HETATM    7  O2  UNL     1      26.513  18.130  17.567  1.00  0.00    -0.287 OA
HETATM    8  C7  UNL     1      27.710  18.539  17.033  1.00  0.00     0.408 C
HETATM    9  O3  UNL     1      27.888  19.179  15.942  1.00  0.00    -0.229 OA
HETATM   10  O4  UNL     1      28.711  18.112  17.925  1.00  0.00    -0.280 OA
HETATM   11  C8  UNL     1      28.153  18.172  19.208  1.00  0.00     0.152 C
ENDROOT
BRANCH  11  12
HETATM   12  C9  UNL     1      28.708  17.228  20.219  1.00  0.00     0.214 C
BRANCH  12  13
HETATM   13  O5  UNL     1      28.058  17.179  21.323  1.00  0.00    -0.358 OA
BRANCH  13  14
HETATM   14  C10 UNL     1      28.144  16.344  22.390  1.00  0.00     0.260 C
HETATM   15  C11 UNL     1      27.596  17.155  23.577  1.00  0.00     0.061 C
HETATM   16  C12 UNL     1      27.901  16.564  24.959  1.00  0.00     0.005 C
HETATM   17  C13 UNL     1      27.853  15.147  24.751  1.00  0.00     0.000 C
HETATM   18  C14 UNL     1      28.012  13.937  25.503  1.00  0.00     0.002 C
HETATM   19  C15 UNL     1      27.777  12.881  24.375  1.00  0.00     0.034 C
HETATM   20  C16 UNL     1      28.378  13.196  23.075  1.00  0.00     0.149 C
HETATM   21  C17 UNL     1      27.731  13.996  22.031  1.00  0.00     0.176 C
HETATM   22  O8  UNL     1      27.463  15.269  22.026  1.00  0.00    -0.351 OA
BRANCH  20  23
HETATM   23  O6  UNL     1      28.498  11.898  22.458  1.00  0.00    -0.393 OA
ATOM     24  H6  UNL     1      27.878  11.949  21.741  1.00  0.00     0.210 HD
ENDBRANCH  20  23
BRANCH  21  25
HETATM   25  C18 UNL     1      26.470  13.235  21.568  1.00  0.00     0.198 C
BRANCH  25  26
HETATM   26  O7  UNL     1      25.362  14.062  21.494  1.00  0.00    -0.398 OA
ATOM     27  H7  UNL     1      24.925  13.997  20.653  1.00  0.00     0.209 HD
ENDBRANCH  25  26
ENDBRANCH  21  25
ENDBRANCH  13  14
ENDBRANCH  12  13
ENDBRANCH  11  12
BRANCH   1  28
HETATM   28  C2  UNL     1      29.280  20.057  20.467  1.00  0.00     0.158 C
BRANCH  28  29
HETATM   29  N2  UNL     1      28.954  20.200  21.865  1.00  0.00    -0.367 N
ATOM     30  H2  UNL     1      28.062  20.616  22.132  1.00  0.00     0.161 HD
BRANCH  29  31
HETATM   31  C1  UNL     1      29.852  19.774  22.871  1.00  0.00     0.181 C
HETATM   32  N1  UNL     1      29.656  20.207  24.202  1.00  0.00    -0.070 NA
HETATM   33  S1  UNL     1      31.108  18.791  22.517  1.00  0.00    -0.044 SA
ENDBRANCH  29  31
ENDBRANCH  28  29
ENDBRANCH   1  28
BRANCH   5  34
HETATM   34  C5  UNL     1      24.828  18.235  20.546  1.00  0.00     0.199 C
BRANCH  34  35
HETATM   35  O1  UNL     1      25.085  16.856  20.561  1.00  0.00    -0.399 OA
ATOM     36  H1  UNL     1      24.242  16.428  20.656  1.00  0.00     0.209 HD
ENDBRANCH  34  35
ENDBRANCH   5  34
TORSDOF 11
ENDMDL