MODEL 5
REMARK VINA RESULT: -7.343187711      2.142      5.764
REMARK  10 active torsions:
REMARK  status: ('A' for Active; 'I' for Inactive)
REMARK    1  A    between atoms: C6_7  and  O1_8
REMARK    2  A    between atoms: O1_8  and  C7_9
REMARK    3  A    between atoms: C8_10  and  O2_11
REMARK    4  A    between atoms: C9_14  and  O4_15
REMARK    5  A    between atoms: O4_15  and  C10_16
REMARK    6  A    between atoms: C12_19  and  O6_20
REMARK    7  A    between atoms: C13_22  and  O7_23
REMARK    8  A    between atoms: C14_25  and  N2_26
REMARK       I    between atoms: N2_26  and  C15_28
REMARK    9  A    between atoms: C15_28  and  C16_30
REMARK   10  A    between atoms: C22_36  and  O9_37
ROOT
HETATM    1  C10 UNL     1      29.263  18.238  22.490  1.00  0.00     0.288 C
HETATM    2  O5  UNL     1      29.829  19.368  23.074  1.00  0.00    -0.356 OA
HETATM    3  C11 UNL     1      29.682  19.470  24.417  1.00  0.00     0.205 C
HETATM    4  C12 UNL     1      29.448  18.275  25.232  1.00  0.00     0.172 C
HETATM    5  C13 UNL     1      29.174  16.986  24.537  1.00  0.00     0.176 C
HETATM    6  C14 UNL     1      29.865  17.057  23.195  1.00  0.00     0.171 C
ENDROOT
BRANCH   1   7
HETATM    7  O4  UNL     1      27.898  18.333  22.737  1.00  0.00    -0.327 OA
BRANCH   7   8
HETATM    8  C9  UNL     1      27.089  17.837  21.757  1.00  0.00     0.297 C
HETATM    9  O3  UNL     1      26.002  18.663  21.457  1.00  0.00    -0.326 OA
HETATM   10  C8  UNL     1      25.300  17.947  20.519  1.00  0.00     0.292 C
HETATM   11  C7  UNL     1      25.491  16.454  20.811  1.00  0.00     0.217 C
HETATM   12  C22 UNL     1      26.341  16.574  22.110  1.00  0.00     0.207 C
BRANCH  10  13
HETATM   13  O2  UNL     1      23.917  18.226  20.570  1.00  0.00    -0.368 OA
ATOM     14  H2  UNL     1      23.699  18.762  19.817  1.00  0.00     0.212 HD
ENDBRANCH  10  13
BRANCH  11  15
HETATM   15  O1  UNL     1      26.295  15.859  19.900  1.00  0.00    -0.336 OA
BRANCH  15  16
HETATM   16  C6  UNL     1      26.671  14.620  19.551  1.00  0.00     0.093 A
HETATM   17  C1  UNL     1      25.962  13.465  19.761  1.00  0.00     0.079 A
HETATM   18  N1  UNL     1      24.684  13.523  20.417  1.00  0.00    -0.100 NA
HETATM   19  C2  UNL     1      26.409  12.197  19.373  1.00  0.00     0.029 A
HETATM   20  C3  UNL     1      27.623  12.082  18.743  1.00  0.00     0.002 A
HETATM   21  C4  UNL     1      28.367  13.222  18.512  1.00  0.00     0.003 A
HETATM   22  C5  UNL     1      27.922  14.445  18.894  1.00  0.00     0.039 A
ENDBRANCH  15  16
ENDBRANCH  11  15
BRANCH  12  23
HETATM   23  O9  UNL     1      27.123  15.463  22.272  1.00  0.00    -0.388 OA
ATOM     24  H9  UNL     1      26.593  14.721  22.538  1.00  0.00     0.210 HD
ENDBRANCH  12  23
ENDBRANCH   7   8
ENDBRANCH   1   7
BRANCH   6  25
HETATM   25  N2  UNL     1      29.897  15.851  22.462  1.00  0.00    -0.345 N
HETATM   26  C15 UNL     1      31.006  14.945  22.492  1.00  0.00     0.252 C
HETATM   27  O8  UNL     1      31.988  15.280  23.227  1.00  0.00    -0.268 OA
ATOM     28  H2  UNL     1      29.092  15.614  21.883  1.00  0.00     0.163 HD
BRANCH  26  29
HETATM   29  C16 UNL     1      31.044  13.715  21.747  1.00  0.00     0.032 A
HETATM   30  C17 UNL     1      30.042  12.784  21.926  1.00  0.00     0.017 A
HETATM   31  C18 UNL     1      30.002  11.580  21.253  1.00  0.00     0.001 A
HETATM   32  C19 UNL     1      30.995  11.258  20.351  1.00  0.00     0.000 A
HETATM   33  C20 UNL     1      32.001  12.182  20.166  1.00  0.00     0.001 A
HETATM   34  C21 UNL     1      32.030  13.399  20.853  1.00  0.00     0.017 A
ENDBRANCH  26  29
ENDBRANCH   6  25
BRANCH   5  35
HETATM   35  O7  UNL     1      29.652  15.884  25.241  1.00  0.00    -0.391 OA
ATOM     36  H7  UNL     1      30.213  15.327  24.714  1.00  0.00     0.210 HD
ENDBRANCH   5  35
BRANCH   4  37
HETATM   37  O6  UNL     1      30.523  18.028  26.119  1.00  0.00    -0.391 OA
ATOM     38  H6  UNL     1      30.626  18.732  26.750  1.00  0.00     0.210 HD
ENDBRANCH   4  37
TORSDOF 10
ENDMDL