MODEL 4
REMARK VINA RESULT: -5.986124668      2.410     10.120
REMARK  11 active torsions:
REMARK  status: ('A' for Active; 'I' for Inactive)
REMARK    1  A    between atoms: O1_2  and  C2_3
REMARK    2  A    between atoms: C2_3  and  C4_5
REMARK       I    between atoms: C4_5  and  N1_7
REMARK    3  A    between atoms: N1_7  and  C5_9
REMARK    4  A    between atoms: C8_13  and  O4_14
REMARK    5  A    between atoms: O4_14  and  C9_15
REMARK    6  A    between atoms: C12_18  and  O5_19
REMARK    7  A    between atoms: O5_19  and  C13_20
REMARK    8  A    between atoms: C17_27  and  O6_28
REMARK    9  A    between atoms: C18_30  and  N3_31
REMARK   10  A    between atoms: C20_36  and  N4_37
REMARK   11  A    between atoms: C21_41  and  O7_42
ROOT
HETATM    1  C9  UNL     1      24.661  11.702  16.748  1.00  0.00     0.155 C
HETATM    2  C10 UNL     1      23.179  11.624  16.460  1.00  0.00     0.036 C
HETATM    3  C11 UNL     1      22.721  12.509  15.355  1.00  0.00     0.036 C
HETATM    4  C12 UNL     1      22.865  11.807  14.005  1.00  0.00     0.154 C
HETATM    5  C18 UNL     1      24.222  12.046  13.411  1.00  0.00     0.214 C
HETATM    6  C19 UNL     1      25.258  12.426  14.397  1.00  0.00     0.070 C
HETATM    7  C20 UNL     1      25.522  11.602  15.561  1.00  0.00     0.214 C
ENDROOT
BRANCH   1   8
HETATM    8  O4  UNL     1      24.917  12.903  17.404  1.00  0.00    -0.351 OA
BRANCH   8   9
HETATM    9  C8  UNL     1      25.972  12.807  18.306  1.00  0.00     0.291 C
HETATM   10  O3  UNL     1      26.964  13.657  17.945  1.00  0.00    -0.352 OA
HETATM   11  C6  UNL     1      27.510  14.239  19.052  1.00  0.00     0.146 C
HETATM   12  C5  UNL     1      26.614  14.055  20.216  1.00  0.00     0.146 C
HETATM   13  C7  UNL     1      28.902  13.634  19.251  1.00  0.00     0.042 C
HETATM   14  C21 UNL     1      25.544  13.130  19.709  1.00  0.00     0.198 C
BRANCH  12  15
HETATM   15  N1  UNL     1      25.965  15.294  20.626  1.00  0.00    -0.349 N
HETATM   16  C4  UNL     1      26.506  16.113  21.644  1.00  0.00     0.246 C
HETATM   17  O2  UNL     1      27.572  15.766  22.214  1.00  0.00    -0.271 OA
ATOM     18  H1  UNL     1      25.098  15.576  20.168  1.00  0.00     0.163 HD
BRANCH  16  19
HETATM   19  C2  UNL     1      25.831  17.368  22.039  1.00  0.00     0.208 C
HETATM   20  C3  UNL     1      24.946  17.803  20.881  1.00  0.00     0.049 C
BRANCH  19  21
HETATM   21  O1  UNL     1      26.810  18.329  22.289  1.00  0.00    -0.382 OA
HETATM   22  C1  UNL     1      27.066  19.099  21.155  1.00  0.00     0.202 C
ENDBRANCH  19  21
ENDBRANCH  16  19
ENDBRANCH  12  15
BRANCH  14  23
HETATM   23  O7  UNL     1      24.325  13.798  19.729  1.00  0.00    -0.388 OA
ATOM     24  H7  UNL     1      23.936  13.755  18.864  1.00  0.00     0.210 HD
ENDBRANCH  14  23
ENDBRANCH   8   9
ENDBRANCH   1   8
BRANCH   7  25
HETATM   25  N4  UNL     1      25.550  10.178  15.177  1.00  0.00    -0.072 N
ATOM     26  H43 UNL     1      24.849   9.616  15.660  1.00  0.00     0.274 HD
ATOM     27  H42 UNL     1      25.217  10.010  14.227  1.00  0.00     0.274 HD
ATOM     28  H41 UNL     1      26.504   9.851  15.333  1.00  0.00     0.274 HD
ENDBRANCH   7  25
BRANCH   4  29
HETATM   29  O5  UNL     1      22.559  10.484  14.247  1.00  0.00    -0.350 OA
BRANCH  29  30
HETATM   30  C13 UNL     1      21.323  10.060  13.818  1.00  0.00     0.350 C
HETATM   31  N2  UNL     1      20.687   9.148  14.750  1.00  0.00    -0.046 N
HETATM   32  C14 UNL     1      21.363   7.847  14.528  1.00  0.00     0.235 C
ATOM     33  H22 UNL     1      20.707   9.465  15.719  1.00  0.00     0.280 HD
ATOM     34  H21 UNL     1      19.672   9.107  14.663  1.00  0.00     0.280 HD
HETATM   35  C15 UNL     1      20.820   7.252  13.232  1.00  0.00     0.030 C
HETATM   36  C16 UNL     1      20.223   8.408  12.393  1.00  0.00     0.038 C
HETATM   37  C17 UNL     1      21.270   9.500  12.452  1.00  0.00     0.174 C
BRANCH  37  38
HETATM   38  O6  UNL     1      22.475   8.834  12.099  1.00  0.00    -0.391 OA
ATOM     39  H6  UNL     1      22.480   8.561  11.189  1.00  0.00     0.210 HD
ENDBRANCH  37  38
ENDBRANCH  29  30
ENDBRANCH   4  29
BRANCH   5  40
HETATM   40  N3  UNL     1      24.609  11.034  12.461  1.00  0.00    -0.072 N
ATOM     41  H33 UNL     1      23.827  10.413  12.253  1.00  0.00     0.274 HD
ATOM     42  H32 UNL     1      24.751  11.440  11.535  1.00  0.00     0.274 HD
ATOM     43  H31 UNL     1      25.427  10.502  12.754  1.00  0.00     0.274 HD
ENDBRANCH   5  40
TORSDOF 11
ENDMDL