MODEL 2
REMARK VINA RESULT: -7.024039361      2.523      5.114
REMARK  9 active torsions:
REMARK  status: ('A' for Active; 'I' for Inactive)
REMARK       I    between atoms: C1_2  and  N2_4
REMARK    1  A    between atoms: N2_4  and  C2_6
REMARK    2  A    between atoms: C6_10  and  S1_11
REMARK    3  A    between atoms: S1_11  and  C7_12
REMARK    4  A    between atoms: C8_13  and  O2_14
REMARK    5  A    between atoms: C9_16  and  N3_17
REMARK    6  A    between atoms: C11_22  and  O3_23
REMARK    7  A    between atoms: O3_23  and  S2_24
REMARK    8  A    between atoms: C12_28  and  O7_29
REMARK    9  A    between atoms: O7_29  and  S3_30
ROOT
HETATM    1  C7  UNL     1      27.917  15.726  23.769  1.00  0.00     0.111 C
HETATM    2  C8  UNL     1      28.613  14.870  24.746  1.00  0.00     0.165 C
HETATM    3  C9  UNL     1      28.391  13.417  24.687  1.00  0.00     0.215 C
HETATM    4  C10 UNL     1      27.729  12.881  23.460  1.00  0.00     0.071 C
HETATM    5  C11 UNL     1      28.242  13.733  22.293  1.00  0.00     0.178 C
HETATM    6  C12 UNL     1      27.500  15.064  22.490  1.00  0.00     0.192 C
ENDROOT
BRANCH   1   7
HETATM    7  S1  UNL     1      28.921  17.185  23.363  1.00  0.00    -0.152 SA
BRANCH   7   8
HETATM    8  C6  UNL     1      29.743  17.762  24.871  1.00  0.00     0.070 C
HETATM    9  C2  UNL     1      30.911  18.653  24.576  1.00  0.00     0.099 C
HETATM   10  C3  UNL     1      30.257  19.777  23.816  1.00  0.00     0.026 C
HETATM   11  C4  UNL     1      29.029  20.051  24.669  1.00  0.00     0.003 C
HETATM   12  C5  UNL     1      28.787  18.792  25.495  1.00  0.00     0.017 C
BRANCH   9  13
HETATM   13  N2  UNL     1      32.004  18.028  23.890  1.00  0.00    -0.340 N
HETATM   14  C1  UNL     1      32.913  17.127  24.479  1.00  0.00     0.329 C
HETATM   15  N1  UNL     1      33.958  16.564  23.719  1.00  0.00    -0.040 NA
HETATM   16  O1  UNL     1      32.776  16.836  25.685  1.00  0.00    -0.251 OA
ATOM     17  H2  UNL     1      32.133  18.252  22.904  1.00  0.00     0.164 HD
ENDBRANCH   9  13
ENDBRANCH   7   8
ENDBRANCH   1   7
BRANCH   2  18
HETATM   18  O2  UNL     1      28.294  15.311  26.050  1.00  0.00    -0.392 OA
ATOM     19  H2  UNL     1      27.388  15.097  26.233  1.00  0.00     0.210 HD
ENDBRANCH   2  18
BRANCH   6  20
HETATM   20  O7  UNL     1      27.623  15.881  21.368  1.00  0.00    -0.248 OA
BRANCH  20  21
HETATM   21  S3  UNL     1      26.158  16.469  20.838  1.00  0.00     0.252 S
HETATM   22  O8  UNL     1      25.138  15.405  20.649  1.00  0.00    -0.572 OA
HETATM   23  O9  UNL     1      26.299  17.185  19.502  1.00  0.00    -0.572 OA
HETATM   24  O10 UNL     1      25.550  17.553  21.983  1.00  0.00    -0.572 OA
ENDBRANCH  20  21
ENDBRANCH   6  20
BRANCH   3  25
HETATM   25  N3  UNL     1      27.592  12.935  25.829  1.00  0.00    -0.072 N
ATOM     26  H33 UNL     1      27.721  13.527  26.649  1.00  0.00     0.274 HD
ATOM     27  H32 UNL     1      26.595  13.088  25.675  1.00  0.00     0.274 HD
ATOM     28  H31 UNL     1      27.787  11.957  26.045  1.00  0.00     0.274 HD
ENDBRANCH   3  25
BRANCH   5  29
HETATM   29  O3  UNL     1      27.827  13.188  21.098  1.00  0.00    -0.249 OA
BRANCH  29  30
HETATM   30  S2  UNL     1      29.066  12.396  20.307  1.00  0.00     0.252 S
HETATM   31  O4  UNL     1      30.129  13.377  19.914  1.00  0.00    -0.572 OA
HETATM   32  O5  UNL     1      28.571  11.645  19.104  1.00  0.00    -0.572 OA
HETATM   33  O6  UNL     1      29.790  11.252  21.326  1.00  0.00    -0.572 OA
ENDBRANCH  29  30
ENDBRANCH   5  29
TORSDOF 9
ENDMDL