MODEL 5
REMARK VINA RESULT: -6.008300668      2.673      5.103
REMARK  17 active torsions:
REMARK  status: ('A' for Active; 'I' for Inactive)
REMARK    1  A    between atoms: C1_4  and  C2_6
REMARK    2  A    between atoms: C3_9  and  N4_10
REMARK       I    between atoms: N4_10  and  C4_12
REMARK    3  A    between atoms: C4_12  and  C5_14
REMARK    4  A    between atoms: C5_14  and  C6_15
REMARK    5  A    between atoms: C6_15  and  N5_16
REMARK    6  A    between atoms: C6_15  and  C7_20
REMARK    7  A    between atoms: C7_20  and  N6_21
REMARK       I    between atoms: N8_28  and  C9_30
REMARK    8  A    between atoms: C9_30  and  C10_32
REMARK    9  A    between atoms: C10_32  and  S1_33
REMARK   10  A    between atoms: S1_33  and  S2_34
REMARK   11  A    between atoms: S2_34  and  C11_35
REMARK   12  A    between atoms: C11_35  and  C12_36
REMARK   13  A    between atoms: C12_36  and  N9_37
REMARK   14  A    between atoms: C12_36  and  C14_46
REMARK   15  A    between atoms: N9_37  and  C13_39
REMARK   16  A    between atoms: C13_39  and  N10_40
REMARK   17  A    between atoms: C13_39  and  O3_44
ROOT
HETATM    1  C2  UNL     1       6.476   0.873  -3.638  1.00  0.00     0.134 A
HETATM    2  N3  UNL     1       6.819   0.514  -2.418  1.00  0.00    -0.182 N
ATOM      3  H3  UNL     1       6.077   0.577  -1.720  1.00  0.00     0.185 HD
HETATM    4  C3  UNL     1       7.990   0.083  -1.963  1.00  0.00     0.687 A
HETATM    5  N7  UNL     1       9.112  -0.075  -2.720  1.00  0.00    -0.170 N
ATOM      6  H7  UNL     1       9.951  -0.414  -2.249  1.00  0.00     0.186 HD
HETATM    7  C8  UNL     1       9.201   0.178  -4.021  1.00  0.00     0.168 A
HETATM    8  N8  UNL     1      10.298   0.009  -4.691  1.00  0.00    -0.306 N
ATOM      9  H8  UNL     1      11.155  -0.328  -4.252  1.00  0.00     0.171 HD
HETATM   10  C9  UNL     1      10.232   0.331  -6.102  1.00  0.00     0.233 C
HETATM   11  O2  UNL     1       9.969  -0.566  -6.925  1.00  0.00    -0.272 OA
HETATM   12  S3  UNL     1       7.780   0.742  -4.764  1.00  0.00    -0.032 SA
ENDROOT
BRANCH   4  13
HETATM   13  N4  UNL     1       8.132  -0.221  -0.724  1.00  0.00    -0.159 N
HETATM   14  C4  UNL     1       7.935   0.547   0.406  1.00  0.00     0.237 C
HETATM   15  O1  UNL     1       8.299   0.094   1.554  1.00  0.00    -0.273 OA
ATOM     16  H4  UNL     1       8.438  -1.177  -0.548  1.00  0.00     0.187 HD
BRANCH  14  17
HETATM   17  C5  UNL     1       7.326   1.876   0.409  1.00  0.00     0.138 C
BRANCH  17  18
HETATM   18  C6  UNL     1       8.299   2.993   0.636  1.00  0.00     0.217 C
BRANCH  18  19
HETATM   19  N5  UNL     1       7.754   4.230   0.159  1.00  0.00    -0.073 N
ATOM     20  H53 UNL     1       7.736   4.272  -0.860  1.00  0.00     0.274 HD
ATOM     21  H52 UNL     1       6.750   4.295   0.328  1.00  0.00     0.274 HD
ATOM     22  H51 UNL     1       8.260   5.018   0.564  1.00  0.00     0.274 HD
ENDBRANCH  18  19
BRANCH  18  23
HETATM   23  C7  UNL     1       9.665   2.752   0.081  1.00  0.00     0.262 C
BRANCH  23  24
HETATM   24  N6  UNL     1      10.657   3.537   0.815  1.00  0.00    -0.077 N
ATOM     25  H63 UNL     1      10.220   4.212   1.443  1.00  0.00     0.274 HD
ATOM     26  H62 UNL     1      11.145   2.977   1.514  1.00  0.00     0.274 HD
ATOM     27  H61 UNL     1      11.304   3.984   0.167  1.00  0.00     0.274 HD
ENDBRANCH  23  24
ENDBRANCH  18  23
ENDBRANCH  17  18
ENDBRANCH  14  17
ENDBRANCH   4  13
BRANCH  10  28
HETATM   28  C10 UNL     1      10.496   1.750  -6.424  1.00  0.00     0.189 C
BRANCH  28  29
HETATM   29  S1  UNL     1      11.920   2.338  -5.504  1.00  0.00    -0.088 SA
BRANCH  29  30
HETATM   30  S2  UNL     1      11.489   3.709  -3.990  1.00  0.00    -0.095 SA
BRANCH  30  31
HETATM   31  C11 UNL     1       9.759   3.745  -3.486  1.00  0.00     0.120 C
BRANCH  31  32
HETATM   32  C12 UNL     1       8.983   4.823  -4.191  1.00  0.00     0.180 C
BRANCH  32  33
HETATM   33  N9  UNL     1       9.463   6.120  -3.947  1.00  0.00    -0.362 N
ATOM     34  H9  UNL     1       9.553   6.446  -2.986  1.00  0.00     0.158 HD
BRANCH  33  35
HETATM   35  C13 UNL     1       9.822   6.977  -4.998  1.00  0.00     0.420 C
BRANCH  35  36
HETATM   36  N10 UNL     1       9.639   8.360  -4.488  1.00  0.00    -0.035 N
ATOM     37 3H10 UNL     1       8.690   8.553  -4.170  1.00  0.00     0.279 HD
ATOM     38 2H10 UNL     1      10.107   8.529  -3.597  1.00  0.00     0.279 HD
ATOM     39 1H10 UNL     1       9.950   8.984  -5.234  1.00  0.00     0.279 HD
ENDBRANCH  35  36
BRANCH  35  40
HETATM   40  O3  UNL     1       8.858   6.917  -6.040  1.00  0.00    -0.355 OA
ATOM     41  H3  UNL     1       8.553   7.789  -6.261  1.00  0.00     0.213 HD
ENDBRANCH  35  40
ENDBRANCH  33  35
ENDBRANCH  32  33
BRANCH  32  42
HETATM   42  C14 UNL     1       7.539   4.639  -3.940  1.00  0.00     0.254 C
HETATM   43  N11 UNL     1       6.544   4.921  -4.898  1.00  0.00    -0.060 NA
HETATM   44  O4  UNL     1       7.178   4.211  -2.814  1.00  0.00    -0.275 OA
ENDBRANCH  32  42
ENDBRANCH  31  32
ENDBRANCH  30  31
ENDBRANCH  29  30
ENDBRANCH  28  29
ENDBRANCH  10  28
BRANCH   1  45
HETATM   45  C1  UNL     1       5.187   1.339  -4.098  1.00  0.00     0.144 C
HETATM   46  N1  UNL     1       4.710   2.456  -3.715  1.00  0.00    -0.385 N
ATOM     47  H12 UNL     1       3.801   2.785  -4.040  1.00  0.00     0.157 HD
ATOM     48  H11 UNL     1       5.251   3.032  -3.070  1.00  0.00     0.157 HD
HETATM   49  N2  UNL     1       4.434   0.538  -4.997  1.00  0.00    -0.080 NA
ENDBRANCH   1  45
TORSDOF 17
ENDMDL