MODEL 4
REMARK VINA RESULT: -6.819888660      0.997      1.330
REMARK  17 active torsions:
REMARK  status: ('A' for Active; 'I' for Inactive)
REMARK    1  A    between atoms: O1_2  and  C2_3
REMARK    2  A    between atoms: C2_3  and  C3_4
REMARK    3  A    between atoms: C2_3  and  C18_45
REMARK    4  A    between atoms: C3_4  and  C4_5
REMARK    5  A    between atoms: C4_5  and  N1_6
REMARK    6  A    between atoms: C6_11  and  N3_12
REMARK    7  A    between atoms: N3_12  and  C7_14
REMARK    8  A    between atoms: C7_14  and  C8_15
REMARK    9  A    between atoms: C8_15  and  N4_16
REMARK   10  A    between atoms: C8_15  and  C15_34
REMARK       I    between atoms: N4_16  and  C9_18
REMARK   11  A    between atoms: C9_18  and  C10_20
REMARK   12  A    between atoms: C11_24  and  C12_25
REMARK   13  A    between atoms: C12_25  and  N6_27
REMARK   14  A    between atoms: C14_31  and  O5_32
REMARK   15  A    between atoms: C17_41  and  N8_42
REMARK   16  A    between atoms: C18_45  and  N9_46
REMARK   17  A    between atoms: C18_45  and  N10_50
ROOT
HETATM    1  N1  UNL     1       8.260   0.588   0.108  1.00  0.00    -0.281 N
HETATM    2  C5  UNL     1       7.120   1.327   0.253  1.00  0.00     0.342 C
HETATM    3  O2  UNL     1       6.894   1.743   1.419  1.00  0.00    -0.246 OA
HETATM    4  N2  UNL     1       6.218   1.661  -0.688  1.00  0.00    -0.141 N
ATOM      5  H2  UNL     1       5.445   2.241  -0.360  1.00  0.00     0.189 HD
HETATM    6  C6  UNL     1       6.182   1.341  -2.016  1.00  0.00     0.685 C
HETATM    7  N7  UNL     1       6.846   0.301  -2.534  1.00  0.00    -0.153 N
ATOM      8  H7  UNL     1       6.400  -0.136  -3.340  1.00  0.00     0.187 HD
HETATM    9  C16 UNL     1       8.031  -0.266  -2.152  1.00  0.00     0.303 C
HETATM   10  O8  UNL     1       8.663  -0.930  -2.992  1.00  0.00    -0.263 OA
HETATM   11  C17 UNL     1       8.641  -0.197  -0.912  1.00  0.00     0.175 C
ENDROOT
BRANCH   6  12
HETATM   12  N3  UNL     1       5.495   2.058  -2.786  1.00  0.00    -0.223 N
ATOM     13  H3  UNL     1       5.216   2.957  -2.392  1.00  0.00     0.177 HD
BRANCH  12  14
HETATM   14  C7  UNL     1       5.041   1.826  -4.114  1.00  0.00     0.174 C
BRANCH  14  15
HETATM   15  C8  UNL     1       5.967   2.467  -5.154  1.00  0.00     0.204 C
BRANCH  15  16
HETATM   16  N4  UNL     1       7.034   3.171  -4.450  1.00  0.00    -0.340 N
HETATM   17  C9  UNL     1       7.094   4.576  -4.424  1.00  0.00     0.273 C
HETATM   18  O3  UNL     1       6.183   5.201  -5.036  1.00  0.00    -0.266 OA
ATOM     19  H4  UNL     1       7.752   2.632  -3.967  1.00  0.00     0.163 HD
BRANCH  17  20
HETATM   20  C10 UNL     1       8.115   5.351  -3.749  1.00  0.00     0.158 A
HETATM   21  N5  UNL     1       7.943   6.100  -2.632  1.00  0.00    -0.253 N
HETATM   22  O4  UNL     1       9.043   6.650  -2.307  1.00  0.00    -0.237 OA
ATOM     23  H5  UNL     1       7.063   6.206  -2.128  1.00  0.00     0.195 HD
HETATM   24  C11 UNL     1      10.007   6.345  -3.122  1.00  0.00     0.141 A
HETATM   25  C14 UNL     1       9.441   5.503  -4.073  1.00  0.00     0.134 A
BRANCH  24  26
HETATM   26  C12 UNL     1      11.427   6.766  -3.108  1.00  0.00     0.241 C
HETATM   27  C13 UNL     1      11.700   7.632  -1.889  1.00  0.00     0.047 C
BRANCH  26  28
HETATM   28  N6  UNL     1      12.245   5.584  -3.112  1.00  0.00    -0.069 N
ATOM     29  H63 UNL     1      13.146   5.727  -2.656  1.00  0.00     0.275 HD
ATOM     30  H62 UNL     1      11.891   4.858  -2.491  1.00  0.00     0.275 HD
ATOM     31  H61 UNL     1      12.339   5.265  -4.076  1.00  0.00     0.275 HD
ENDBRANCH  26  28
ENDBRANCH  24  26
BRANCH  25  32
HETATM   32  O5  UNL     1      10.128   4.942  -5.134  1.00  0.00    -0.356 OA
ATOM     33  H5  UNL     1      10.717   4.197  -5.121  1.00  0.00     0.218 HD
ENDBRANCH  25  32
ENDBRANCH  17  20
ENDBRANCH  15  16
BRANCH  15  34
HETATM   34  C15 UNL     1       6.497   1.411  -6.033  1.00  0.00     0.198 C
HETATM   35  O6  UNL     1       6.822   1.670  -7.206  1.00  0.00    -0.646 OA
HETATM   36  O7  UNL     1       6.623   0.137  -5.528  1.00  0.00    -0.646 OA
ENDBRANCH  15  34
ENDBRANCH  14  15
ENDBRANCH  12  14
ENDBRANCH   6  12
BRANCH   1  37
HETATM   37  C4  UNL     1       9.222   0.646   1.203  1.00  0.00     0.138 C
BRANCH  37  38
HETATM   38  C3  UNL     1       9.702   2.069   1.327  1.00  0.00     0.056 C
BRANCH  38  39
HETATM   39  C2  UNL     1      11.030   2.336   0.675  1.00  0.00     0.180 C
BRANCH  39  40
HETATM   40  O1  UNL     1      11.596   1.219   0.084  1.00  0.00    -0.387 OA
HETATM   41  C1  UNL     1      12.136   1.481  -1.164  1.00  0.00     0.202 C
ENDBRANCH  39  40
BRANCH  39  42
HETATM   42  C18 UNL     1      11.060   3.519  -0.240  1.00  0.00     0.406 C
BRANCH  42  43
HETATM   43  N9  UNL     1      11.768   4.661   0.241  1.00  0.00    -0.048 N
ATOM     44  H93 UNL     1      12.152   4.467   1.166  1.00  0.00     0.276 HD
ATOM     45  H92 UNL     1      12.628   4.786  -0.292  1.00  0.00     0.276 HD
ATOM     46  H91 UNL     1      11.242   5.534   0.260  1.00  0.00     0.276 HD
ENDBRANCH  42  43
BRANCH  42  47
HETATM   47  N10 UNL     1       9.706   3.963  -0.585  1.00  0.00    -0.048 N
ATOM     48 3H10 UNL     1       9.557   3.961  -1.594  1.00  0.00     0.276 HD
ATOM     49 2H10 UNL     1       9.007   3.269  -0.322  1.00  0.00     0.276 HD
ATOM     50 1H10 UNL     1       9.499   4.875  -0.179  1.00  0.00     0.276 HD
ENDBRANCH  42  47
ENDBRANCH  39  42
ENDBRANCH  38  39
ENDBRANCH  37  38
ENDBRANCH   1  37
BRANCH  11  51
HETATM   51  N8  UNL     1       9.674  -0.957  -0.708  1.00  0.00    -0.381 N
ATOM     52  H82 UNL     1      10.577  -0.501  -0.574  1.00  0.00     0.157 HD
ATOM     53  H81 UNL     1       9.508  -1.963  -0.697  1.00  0.00     0.157 HD
ENDBRANCH  11  51
TORSDOF 17
ENDMDL