MODEL 5
REMARK VINA RESULT: -5.782297026      3.252      5.137
REMARK  16 active torsions:
REMARK  status: ('A' for Active; 'I' for Inactive)
REMARK    1  A    between atoms: C2_2  and  C3_3
REMARK    2  A    between atoms: C3_3  and  C4_4
REMARK    3  A    between atoms: C4_4  and  N1_5
REMARK    4  A    between atoms: N1_5  and  C5_8
REMARK    5  A    between atoms: C5_8  and  C6_9
REMARK    6  A    between atoms: C6_9  and  N2_10
REMARK       I    between atoms: N2_10  and  C7_12
REMARK    7  A    between atoms: C7_12  and  C8_14
REMARK    8  A    between atoms: C8_14  and  O2_15
REMARK    9  A    between atoms: O2_15  and  C9_16
REMARK   10  A    between atoms: C10_17  and  O3_18
REMARK   11  A    between atoms: C11_20  and  C12_21
REMARK   12  A    between atoms: C12_21  and  N3_22
REMARK   13  A    between atoms: C13_27  and  N4_28
REMARK   14  A    between atoms: N5_33  and  N6_34
REMARK   15  A    between atoms: C17_38  and  N7_39
REMARK   16  A    between atoms: C18_44  and  N9_45
ROOT
HETATM    1  C9  UNL     1       9.608   2.008  -4.810  1.00  0.00     0.234 C
HETATM    2  C10 UNL     1      10.557   1.236  -5.770  1.00  0.00     0.186 C
HETATM    3  C11 UNL     1      10.681  -0.057  -5.011  1.00  0.00     0.187 C
HETATM    4  O4  UNL     1      10.538   0.202  -3.674  1.00  0.00    -0.327 OA
HETATM    5  C13 UNL     1      10.256   1.559  -3.546  1.00  0.00     0.162 C
ENDROOT
BRANCH   5   6
HETATM    6  N4  UNL     1       9.856   2.033  -2.308  1.00  0.00    -0.237 N
HETATM    7  C14 UNL     1      10.748   2.678  -1.480  1.00  0.00     0.325 A
HETATM    8  O5  UNL     1      11.931   2.843  -1.911  1.00  0.00    -0.261 OA
HETATM    9  C15 UNL     1      10.417   3.138  -0.233  1.00  0.00     0.335 A
HETATM   10  O6  UNL     1      11.287   3.717   0.466  1.00  0.00    -0.260 OA
HETATM   11  N5  UNL     1       9.163   2.971   0.241  1.00  0.00    -0.215 N
HETATM   12  C16 UNL     1       8.267   2.347  -0.540  1.00  0.00     0.148 A
HETATM   13  C17 UNL     1       6.994   2.178  -0.085  1.00  0.00     0.147 A
HETATM   14  C19 UNL     1       8.626   1.889  -1.802  1.00  0.00     0.165 A
HETATM   15  N8  UNL     1       6.061   1.573  -0.833  1.00  0.00    -0.175 N
HETATM   16  C18 UNL     1       6.407   1.135  -2.046  1.00  0.00     0.679 A
ATOM     17  H8  UNL     1       5.110   1.450  -0.484  1.00  0.00     0.186 HD
HETATM   18  N10 UNL     1       7.661   1.283  -2.532  1.00  0.00    -0.174 N
ATOM     19  H10 UNL     1       7.883   0.934  -3.465  1.00  0.00     0.186 HD
BRANCH  11  20
HETATM   20  N6  UNL     1       8.842   3.445   1.515  1.00  0.00    -0.335 N
ATOM     21  H62 UNL     1       9.286   3.084   2.359  1.00  0.00     0.177 HD
ATOM     22  H61 UNL     1       8.140   4.178   1.615  1.00  0.00     0.177 HD
ENDBRANCH  11  20
BRANCH  13  23
HETATM   23  N7  UNL     1       6.691   2.610   1.088  1.00  0.00    -0.383 N
ATOM     24  H72 UNL     1       7.429   2.923   1.719  1.00  0.00     0.157 HD
ATOM     25  H71 UNL     1       5.710   2.632   1.366  1.00  0.00     0.157 HD
ENDBRANCH  13  23
BRANCH  16  26
HETATM   26  N9  UNL     1       5.529   0.548  -2.786  1.00  0.00    -0.234 N
ATOM     27  H92 UNL     1       5.857  -0.059  -3.538  1.00  0.00     0.174 HD
ATOM     28  H91 UNL     1       4.537   0.700  -2.605  1.00  0.00     0.174 HD
ENDBRANCH  16  26
ENDBRANCH   5   6
BRANCH   1  29
HETATM   29  O2  UNL     1       9.736   3.339  -4.965  1.00  0.00    -0.341 OA
BRANCH  29  30
HETATM   30  C8  UNL     1       8.732   4.182  -5.150  1.00  0.00     0.209 C
BRANCH  30  31
HETATM   31  C7  UNL     1       7.361   3.844  -4.826  1.00  0.00     0.263 C
HETATM   32  N2  UNL     1       6.615   3.122  -5.798  1.00  0.00    -0.354 N
ATOM     33  H2  UNL     1       7.025   2.846  -6.690  1.00  0.00     0.162 HD
HETATM   34  O1  UNL     1       6.827   4.157  -3.753  1.00  0.00    -0.267 OA
BRANCH  32  35
HETATM   35  C6  UNL     1       5.228   2.794  -5.455  1.00  0.00     0.150 C
BRANCH  35  36
HETATM   36  C5  UNL     1       4.227   3.444  -6.352  1.00  0.00     0.251 C
BRANCH  36  37
HETATM   37  N1  UNL     1       3.351   4.272  -5.562  1.00  0.00    -0.074 N
ATOM     38  H12 UNL     1       3.282   5.208  -5.962  1.00  0.00     0.277 HD
ATOM     39  H11 UNL     1       3.782   4.502  -4.667  1.00  0.00     0.277 HD
BRANCH  37  40
HETATM   40  C4  UNL     1       2.040   3.704  -5.366  1.00  0.00     0.232 C
BRANCH  40  41
HETATM   41  C3  UNL     1       1.127   4.750  -4.742  1.00  0.00     0.027 C
BRANCH  41  42
HETATM   42  C2  UNL     1      -0.268   4.668  -5.318  1.00  0.00    -0.003 C
HETATM   43  C1  UNL     1      -1.010   3.454  -4.885  1.00  0.00     0.005 C
ENDBRANCH  41  42
ENDBRANCH  40  41
ENDBRANCH  37  40
ENDBRANCH  36  37
ENDBRANCH  35  36
ENDBRANCH  32  35
ENDBRANCH  30  31
ENDBRANCH  29  30
ENDBRANCH   1  29
BRANCH   2  44
HETATM   44  O3  UNL     1      11.789   1.835  -5.837  1.00  0.00    -0.390 OA
ATOM     45  H3  UNL     1      12.483   1.189  -5.896  1.00  0.00     0.210 HD
ENDBRANCH   2  44
BRANCH   3  46
HETATM   46  C12 UNL     1      11.926  -0.825  -5.355  1.00  0.00     0.264 C
BRANCH  46  47
HETATM   47  N3  UNL     1      11.908  -1.052  -6.786  1.00  0.00    -0.077 N
ATOM     48  H33 UNL     1      11.032  -0.771  -7.225  1.00  0.00     0.274 HD
ATOM     49  H32 UNL     1      12.521  -0.418  -7.298  1.00  0.00     0.274 HD
ATOM     50  H31 UNL     1      12.133  -2.036  -6.939  1.00  0.00     0.274 HD
ENDBRANCH  46  47
ENDBRANCH   3  46
TORSDOF 16
ENDMDL