MODEL 4
REMARK VINA RESULT: -6.573870842      1.488      1.790
REMARK  14 active torsions:
REMARK  status: ('A' for Active; 'I' for Inactive)
REMARK       I    between atoms: C1_4  and  N3_6
REMARK    1  A    between atoms: N3_6  and  C2_7
REMARK    2  A    between atoms: N5_11  and  C4_12
REMARK    3  A    between atoms: C4_12  and  C5_13
REMARK    4  A    between atoms: N6_15  and  C7_16
REMARK    5  A    between atoms: C7_16  and  C8_17
REMARK    6  A    between atoms: C8_17  and  O1_18
REMARK    7  A    between atoms: O1_18  and  C9_19
REMARK    8  A    between atoms: C9_19  and  C10_20
REMARK    9  A    between atoms: C10_20  and  N7_21
REMARK   10  A    between atoms: C10_20  and  C11_25
REMARK   11  A    between atoms: C11_25  and  O2_26
REMARK   12  A    between atoms: C11_25  and  C12_28
REMARK       I    between atoms: C12_28  and  N8_30
REMARK       I    between atoms: N8_30  and  C13_32
REMARK   13  A    between atoms: C13_32  and  C14_34
REMARK   14  A    between atoms: C17_40  and  N10_41
ROOT
HETATM    1  C10 UNL     1      10.645   2.043   0.739  1.00  0.00     0.244 C
ENDROOT
BRANCH   1   2
HETATM    2  C9  UNL     1      12.073   2.032   1.316  1.00  0.00     0.203 C
BRANCH   2   3
HETATM    3  O1  UNL     1      13.028   1.933   0.526  1.00  0.00    -0.387 OA
BRANCH   3   4
HETATM    4  C8  UNL     1      13.976   1.835  -0.260  1.00  0.00     0.189 C
BRANCH   4   5
HETATM    5  C7  UNL     1      14.652   3.204  -0.527  1.00  0.00     0.175 C
BRANCH   5   6
HETATM    6  N6  UNL     1      13.633   4.187  -0.850  1.00  0.00    -0.285 N
HETATM    7  C6  UNL     1      12.936   4.409  -1.971  1.00  0.00     0.140 A
HETATM    8  C5  UNL     1      12.053   5.434  -1.765  1.00  0.00     0.064 A
HETATM    9  N13 UNL     1      12.242   5.825  -0.470  1.00  0.00    -0.287 N
HETATM   10  N12 UNL     1      13.180   5.074   0.047  1.00  0.00    -0.241 N
ATOM     11  H13 UNL     1      11.740   6.572   0.010  1.00  0.00     0.188 HD
ATOM     12  H12 UNL     1      13.521   5.153   1.005  1.00  0.00     0.208 HD
BRANCH   8  13
HETATM   13  C4  UNL     1      11.081   6.096  -2.687  1.00  0.00     0.210 C
BRANCH  13  14
HETATM   14  N5  UNL     1       9.708   5.729  -2.228  1.00  0.00    -0.279 N
HETATM   15  C3  UNL     1       8.608   6.479  -2.228  1.00  0.00     0.204 A
HETATM   16  N4  UNL     1       7.596   5.777  -1.724  1.00  0.00    -0.310 N
HETATM   17  C2  UNL     1       8.056   4.539  -1.391  1.00  0.00     0.278 A
ATOM     18  H4  UNL     1       6.639   6.109  -1.608  1.00  0.00     0.170 HD
HETATM   19  N14 UNL     1       9.395   4.561  -1.730  1.00  0.00    -0.256 N
ATOM     20  H14 UNL     1      10.042   3.782  -1.610  1.00  0.00     0.191 HD
BRANCH  17  21
HETATM   21  N3  UNL     1       7.428   3.648  -0.909  1.00  0.00    -0.337 NA
HETATM   22  C1  UNL     1       6.736   2.669  -0.412  1.00  0.00     0.264 C
HETATM   23  N1  UNL     1       6.529   2.531   0.890  1.00  0.00    -0.362 N
HETATM   24  N2  UNL     1       6.137   1.646  -1.260  1.00  0.00    -0.049 NA
ATOM     25  H12 UNL     1       5.985   1.761   1.280  1.00  0.00     0.159 HD
ATOM     26  H11 UNL     1       6.948   3.247   1.482  1.00  0.00     0.159 HD
ENDBRANCH  17  21
ENDBRANCH  13  14
ENDBRANCH   8  13
ENDBRANCH   5   6
ENDBRANCH   4   5
ENDBRANCH   3   4
ENDBRANCH   2   3
ENDBRANCH   1   2
BRANCH   1  27
HETATM   27  N7  UNL     1       9.845   3.043   1.346  1.00  0.00    -0.070 N
ATOM     28  H73 UNL     1       8.958   3.160   0.856  1.00  0.00     0.274 HD
ATOM     29  H72 UNL     1       9.487   2.735   2.251  1.00  0.00     0.274 HD
ATOM     30  H71 UNL     1      10.346   3.928   1.426  1.00  0.00     0.274 HD
ENDBRANCH   1  27
BRANCH   1  31
HETATM   31  C11 UNL     1      10.042   0.687   0.908  1.00  0.00     0.242 C
BRANCH  31  32
HETATM   32  O2  UNL     1       8.794   0.838   1.542  1.00  0.00    -0.384 OA
ATOM     33  H2  UNL     1       8.217   0.152   1.227  1.00  0.00     0.210 HD
ENDBRANCH  31  32
BRANCH  31  34
HETATM   34  C12 UNL     1       9.799   0.063  -0.417  1.00  0.00     0.255 C
HETATM   35  O3  UNL     1      10.043  -1.144  -0.604  1.00  0.00    -0.270 OA
HETATM   36  N8  UNL     1       9.285   0.844  -1.472  1.00  0.00    -0.290 N
HETATM   37  C13 UNL     1       9.082   0.254  -2.744  1.00  0.00     0.275 C
ATOM     38  H8  UNL     1       9.061   1.828  -1.320  1.00  0.00     0.172 HD
HETATM   39  O4  UNL     1       9.375  -0.974  -2.887  1.00  0.00    -0.266 OA
BRANCH  37  40
HETATM   40  C14 UNL     1       8.559   0.992  -3.880  1.00  0.00     0.122 A
HETATM   41  C15 UNL     1       8.944   0.684  -5.186  1.00  0.00     0.110 A
HETATM   42  C16 UNL     1       8.414   1.416  -6.211  1.00  0.00     0.261 A
HETATM   43  O5  UNL     1       8.765   1.134  -7.396  1.00  0.00    -0.268 OA
HETATM   44  N9  UNL     1       7.527   2.433  -6.043  1.00  0.00    -0.156 N
HETATM   45  C17 UNL     1       7.174   2.707  -4.770  1.00  0.00     0.679 A
ATOM     46  H9  UNL     1       7.151   2.958  -6.833  1.00  0.00     0.187 HD
HETATM   47  N11 UNL     1       7.684   2.001  -3.748  1.00  0.00    -0.186 N
ATOM     48  H11 UNL     1       7.385   2.249  -2.805  1.00  0.00     0.184 HD
BRANCH  45  49
HETATM   49  N10 UNL     1       6.320   3.682  -4.580  1.00  0.00    -0.234 N
ATOM     50 2H10 UNL     1       6.193   4.118  -3.666  1.00  0.00     0.174 HD
ATOM     51 1H10 UNL     1       5.779   3.994  -5.387  1.00  0.00     0.174 HD
ENDBRANCH  45  49
ENDBRANCH  37  40
ENDBRANCH  31  34
ENDBRANCH   1  31
TORSDOF 14
ENDMDL