MODEL 4
REMARK VINA RESULT: -5.702759320      2.827      5.296
REMARK  16 active torsions:
REMARK  status: ('A' for Active; 'I' for Inactive)
REMARK    1  A    between atoms: O1_2  and  C2_3
REMARK    2  A    between atoms: C3_5  and  C4_6
REMARK    3  A    between atoms: C4_6  and  O3_7
REMARK    4  A    between atoms: C6_13  and  N2_14
REMARK    5  A    between atoms: N2_14  and  C7_17
REMARK    6  A    between atoms: C7_17  and  C8_18
REMARK    7  A    between atoms: C7_17  and  C17_47
REMARK    8  A    between atoms: N3_19  and  C9_21
REMARK    9  A    between atoms: C9_21  and  C10_22
REMARK   10  A    between atoms: N4_23  and  C11_25
REMARK   11  A    between atoms: C11_25  and  C12_27
REMARK   12  A    between atoms: C14_31  and  N7_32
REMARK   13  A    between atoms: C15_37  and  N9_38
REMARK   14  A    between atoms: N9_38  and  N10_40
REMARK   15  A    between atoms: C17_47  and  C18_48
REMARK   16  A    between atoms: C18_48  and  N12_49
ROOT
HETATM    1  C8  UNL     1       8.771   0.620  -6.090  1.00  0.00     0.093 C
HETATM    2  N3  UNL     1       8.271   1.344  -7.004  1.00  0.00    -0.376 N
ATOM      3  H3  UNL     1       8.716   2.249  -7.161  1.00  0.00     0.164 HD
ENDROOT
BRANCH   2   4
HETATM    4  C9  UNL     1       7.181   1.039  -7.819  1.00  0.00     0.104 C
BRANCH   4   5
HETATM    5  C10 UNL     1       6.131   2.134  -7.942  1.00  0.00     0.106 C
HETATM    6  N4  UNL     1       5.487   2.427  -6.776  1.00  0.00    -0.351 N
ATOM      7  H4  UNL     1       4.879   1.637  -6.556  1.00  0.00     0.166 HD
BRANCH   6   8
HETATM    8  C11 UNL     1       5.347   3.247  -5.899  1.00  0.00     0.150 C
HETATM    9  N5  UNL     1       4.286   4.248  -5.939  1.00  0.00    -0.080 NA
BRANCH   8  10
HETATM   10  C12 UNL     1       6.189   3.321  -4.695  1.00  0.00     0.118 A
HETATM   11  N6  UNL     1       6.043   2.792  -3.503  1.00  0.00    -0.343 N
HETATM   12  C13 UNL     1       6.930   2.995  -2.573  1.00  0.00     0.112 A
ATOM     13  H6  UNL     1       5.226   2.215  -3.304  1.00  0.00     0.167 HD
HETATM   14  C14 UNL     1       6.901   2.508  -1.248  1.00  0.00     0.144 A
HETATM   15  C16 UNL     1       8.009   3.771  -2.880  1.00  0.00     0.123 A
HETATM   16  N8  UNL     1       7.893   2.831  -0.428  1.00  0.00    -0.173 N
HETATM   17  C15 UNL     1       8.949   3.587  -0.718  1.00  0.00     0.699 A
ATOM     18  H8  UNL     1       7.840   2.462   0.522  1.00  0.00     0.186 HD
HETATM   19  N11 UNL     1       9.007   4.069  -1.982  1.00  0.00    -0.181 N
ATOM     20  H11 UNL     1       9.792   4.653  -2.268  1.00  0.00     0.185 HD
HETATM   21  S1  UNL     1       7.690   4.176  -4.515  1.00  0.00    -0.048 SA
BRANCH  14  22
HETATM   22  N7  UNL     1       5.939   1.764  -0.824  1.00  0.00    -0.383 N
ATOM     23  H72 UNL     1       6.148   0.930  -0.275  1.00  0.00     0.157 HD
ATOM     24  H71 UNL     1       4.964   1.987  -1.023  1.00  0.00     0.157 HD
ENDBRANCH  14  22
BRANCH  17  25
HETATM   25  N9  UNL     1       9.899   3.902   0.094  1.00  0.00    -0.138 N
ATOM     26  H9  UNL     1       9.689   3.949   1.090  1.00  0.00     0.205 HD
BRANCH  25  27
HETATM   27  N10 UNL     1      11.208   4.183  -0.326  1.00  0.00    -0.331 N
ATOM     28 2H10 UNL     1      11.336   4.964  -0.970  1.00  0.00     0.177 HD
ATOM     29 1H10 UNL     1      12.021   3.648  -0.017  1.00  0.00     0.177 HD
ENDBRANCH  25  27
ENDBRANCH  17  25
ENDBRANCH   8  10
ENDBRANCH   6   8
ENDBRANCH   4   5
ENDBRANCH   2   4
BRANCH   1  30
HETATM   30  C7  UNL     1       9.933   1.034  -5.269  1.00  0.00     0.226 C
BRANCH  30  31
HETATM   31  N2  UNL     1      10.297   0.145  -4.215  1.00  0.00    -0.049 N
ATOM     32  H22 UNL     1      11.312   0.084  -4.131  1.00  0.00     0.279 HD
ATOM     33  H21 UNL     1      10.090  -0.821  -4.471  1.00  0.00     0.279 HD
BRANCH  31  34
HETATM   34  C6  UNL     1       9.700   0.473  -2.943  1.00  0.00     0.332 C
HETATM   35  C2  UNL     1       9.082  -0.727  -2.323  1.00  0.00     0.301 C
HETATM   36  O2  UNL     1       8.590  -0.340  -1.048  1.00  0.00    -0.332 OA
HETATM   37  C3  UNL     1       9.681  -0.354  -0.175  1.00  0.00     0.250 C
HETATM   38  N1  UNL     1      10.689   0.610  -0.649  1.00  0.00    -0.331 N
HETATM   39  C5  UNL     1      10.771   0.982  -2.005  1.00  0.00     0.255 C
ATOM     40  H1  UNL     1      11.343   1.016   0.019  1.00  0.00     0.165 HD
HETATM   41  O4  UNL     1      11.712   1.718  -2.430  1.00  0.00    -0.271 OA
BRANCH  35  42
HETATM   42  O1  UNL     1       8.111  -1.368  -3.043  1.00  0.00    -0.363 OA
HETATM   43  C1  UNL     1       6.940  -0.637  -3.176  1.00  0.00     0.204 C
ENDBRANCH  35  42
BRANCH  37  44
HETATM   44  C4  UNL     1       9.196   0.011   1.203  1.00  0.00     0.217 C
BRANCH  44  45
HETATM   45  O3  UNL     1       7.818   0.263   1.174  1.00  0.00    -0.397 OA
ATOM     46  H3  UNL     1       7.525   0.563   2.026  1.00  0.00     0.209 HD
ENDBRANCH  44  45
ENDBRANCH  37  44
ENDBRANCH  31  34
ENDBRANCH  30  31
BRANCH  30  47
HETATM   47  C17 UNL     1      11.141   1.284  -6.145  1.00  0.00     0.065 C
BRANCH  47  48
HETATM   48  C18 UNL     1      11.540   2.749  -6.159  1.00  0.00     0.232 C
BRANCH  48  49
HETATM   49  N12 UNL     1      11.289   3.389  -4.882  1.00  0.00    -0.079 N
ATOM     50 3H12 UNL     1      11.426   2.739  -4.108  1.00  0.00     0.274 HD
ATOM     51 2H12 UNL     1      12.019   4.064  -4.655  1.00  0.00     0.274 HD
ATOM     52 1H12 UNL     1      10.364   3.817  -4.847  1.00  0.00     0.274 HD
ENDBRANCH  48  49
ENDBRANCH  47  48
ENDBRANCH  30  47
ENDBRANCH   1  30
TORSDOF 16
ENDMDL