MODEL 3
REMARK VINA RESULT: -6.501038879      0.948      1.135
REMARK  13 active torsions:
REMARK  status: ('A' for Active; 'I' for Inactive)
REMARK       I    between atoms: C2_2  and  N1_4
REMARK    1  A    between atoms: N1_4  and  C3_5
REMARK    2  A    between atoms: N1_4  and  C6_14
REMARK    3  A    between atoms: C3_5  and  C4_6
REMARK    4  A    between atoms: C4_6  and  N2_7
REMARK       I    between atoms: N2_7  and  C5_9
REMARK    5  A    between atoms: C10_23  and  N7_24
REMARK    6  A    between atoms: N7_24  and  C11_26
REMARK    7  A    between atoms: C11_26  and  C12_27
REMARK    8  A    between atoms: C12_27  and  N8_28
REMARK    9  A    between atoms: N10_35  and  C15_36
REMARK   10  A    between atoms: C16_38  and  C17_39
REMARK   11  A    between atoms: C17_39  and  O4_40
REMARK   12  A    between atoms: C18_42  and  N11_43
REMARK   13  A    between atoms: C19_47  and  N12_48
ROOT
HETATM    1  C6  UNL     1       4.924   2.075  -4.967  1.00  0.00     0.690 A
HETATM    2  N5  UNL     1       5.008   2.146  -3.638  1.00  0.00    -0.154 N
ATOM      3  H5  UNL     1       4.155   2.157  -3.079  1.00  0.00     0.187 HD
HETATM    4  C7  UNL     1       6.229   2.205  -3.015  1.00  0.00     0.290 A
HETATM    5  O2  UNL     1       6.241   2.274  -1.769  1.00  0.00    -0.265 OA
HETATM    6  C8  UNL     1       7.398   2.194  -3.718  1.00  0.00     0.156 A
HETATM    7  C9  UNL     1       7.303   2.120  -5.133  1.00  0.00     0.111 A
HETATM    8  N6  UNL     1       6.070   2.066  -5.655  1.00  0.00    -0.186 N
ATOM      9  H6  UNL     1       5.999   2.013  -6.671  1.00  0.00     0.184 HD
HETATM   10  C10 UNL     1       8.488   2.117  -5.956  1.00  0.00     0.075 A
HETATM   11  C13 UNL     1       9.648   2.184  -5.393  1.00  0.00     0.142 A
HETATM   12  N9  UNL     1       9.786   2.259  -3.992  1.00  0.00    -0.296 N
HETATM   13  C14 UNL     1      11.115   2.418  -3.437  1.00  0.00     0.177 C
HETATM   14  N10 UNL     1       8.681   2.265  -3.073  1.00  0.00    -0.226 N
ENDROOT
BRANCH  14  15
HETATM   15  C15 UNL     1       8.818   2.304  -1.689  1.00  0.00     0.167 C
HETATM   16  O3  UNL     1       9.188   1.183  -0.963  1.00  0.00    -0.326 OA
HETATM   17  C16 UNL     1       8.934   1.524   0.349  1.00  0.00     0.186 C
HETATM   18  C18 UNL     1       9.156   2.992   0.496  1.00  0.00     0.246 C
HETATM   19  C19 UNL     1       9.144   3.551  -0.945  1.00  0.00     0.208 C
BRANCH  17  20
HETATM   20  C17 UNL     1       7.637   1.012   0.885  1.00  0.00     0.198 C
BRANCH  20  21
HETATM   21  O4  UNL     1       6.816   2.047   1.352  1.00  0.00    -0.398 OA
ATOM     22  H4  UNL     1       6.019   2.128   0.842  1.00  0.00     0.209 HD
ENDBRANCH  20  21
ENDBRANCH  17  20
BRANCH  18  23
HETATM   23  N11 UNL     1      10.440   3.312   1.087  1.00  0.00    -0.070 N
ATOM     24 3H11 UNL     1      10.798   2.525   1.627  1.00  0.00     0.274 HD
ATOM     25 2H11 UNL     1      11.166   3.369   0.373  1.00  0.00     0.274 HD
ATOM     26 1H11 UNL     1      10.417   4.161   1.652  1.00  0.00     0.274 HD
ENDBRANCH  18  23
BRANCH  19  27
HETATM   27  N12 UNL     1       8.105   4.547  -0.933  1.00  0.00    -0.328 N
HETATM   28  N13 UNL     1       7.317   4.721   0.005  1.00  0.00    -0.349 N
ATOM     29 2H13 UNL     1       7.425   4.111   0.815  1.00  0.00     0.176 HD
ATOM     30 1H13 UNL     1       6.581   5.427   0.013  1.00  0.00     0.176 HD
ATOM     31  H12 UNL     1       8.012   5.149  -1.751  1.00  0.00     0.180 HD
ENDBRANCH  19  27
ENDBRANCH  14  15
BRANCH  10  32
HETATM   32  N7  UNL     1       8.418   2.032  -7.361  1.00  0.00    -0.385 N
ATOM     33  H7  UNL     1       8.376   1.108  -7.790  1.00  0.00     0.159 HD
BRANCH  32  34
HETATM   34  C11 UNL     1       8.403   3.194  -8.226  1.00  0.00     0.147 C
BRANCH  34  35
HETATM   35  C12 UNL     1       7.505   2.989  -9.416  1.00  0.00     0.249 C
BRANCH  35  36
HETATM   36  N8  UNL     1       6.118   2.795  -9.050  1.00  0.00    -0.078 N
ATOM     37  H83 UNL     1       5.965   1.855  -8.684  1.00  0.00     0.274 HD
ATOM     38  H82 UNL     1       5.881   3.338  -8.219  1.00  0.00     0.274 HD
ATOM     39  H81 UNL     1       5.472   2.999  -9.814  1.00  0.00     0.274 HD
ENDBRANCH  35  36
ENDBRANCH  34  35
ENDBRANCH  32  34
ENDBRANCH  10  32
BRANCH   1  40
HETATM   40  N1  UNL     1       3.649   1.999  -5.626  1.00  0.00    -0.150 N
HETATM   41  C2  UNL     1       2.929   3.173  -5.884  1.00  0.00     0.234 C
HETATM   42  C1  UNL     1       1.632   3.146  -6.568  1.00  0.00     0.118 C
HETATM   43  O1  UNL     1       3.396   4.279  -5.526  1.00  0.00    -0.273 OA
BRANCH  40  44
HETATM   44  C3  UNL     1       3.096   0.711  -6.014  1.00  0.00     0.170 C
BRANCH  44  45
HETATM   45  C4  UNL     1       3.756   0.201  -7.283  1.00  0.00     0.143 C
BRANCH  45  46
HETATM   46  N2  UNL     1       4.156  -1.164  -7.143  1.00  0.00    -0.363 N
HETATM   47  C5  UNL     1       5.522  -1.523  -7.187  1.00  0.00     0.181 C
HETATM   48  N3  UNL     1       6.406  -0.800  -7.774  1.00  0.00    -0.374 N
HETATM   49  N4  UNL     1       5.932  -2.730  -6.556  1.00  0.00    -0.064 NA
ATOM     50  H32 UNL     1       6.112   0.065  -8.225  1.00  0.00     0.158 HD
ATOM     51  H31 UNL     1       7.392  -1.059  -7.805  1.00  0.00     0.158 HD
ATOM     52  H2  UNL     1       3.448  -1.887  -7.010  1.00  0.00     0.162 HD
ENDBRANCH  45  46
ENDBRANCH  44  45
ENDBRANCH  40  44
ENDBRANCH   1  40
TORSDOF 13
ENDMDL