MODEL 4
REMARK VINA RESULT: -6.556963049      2.591      6.528
REMARK  15 active torsions:
REMARK  status: ('A' for Active; 'I' for Inactive)
REMARK    1  A    between atoms: N1_1  and  C1_4
REMARK    2  A    between atoms: N5_15  and  C5_16
REMARK    3  A    between atoms: C5_16  and  C6_17
REMARK    4  A    between atoms: C7_18  and  C8_19
REMARK    5  A    between atoms: C8_19  and  C9_20
REMARK    6  A    between atoms: C9_20  and  N6_21
REMARK       I    between atoms: N6_21  and  C10_23
REMARK    7  A    between atoms: C10_23  and  C11_25
REMARK    8  A    between atoms: C11_25  and  O2_26
REMARK    9  A    between atoms: C11_25  and  C12_28
REMARK   10  A    between atoms: C11_25  and  C16_41
REMARK   11  A    between atoms: C12_28  and  N7_29
REMARK   12  A    between atoms: C14_31  and  N8_32
REMARK   13  A    between atoms: C16_41  and  N13_42
REMARK   14  A    between atoms: C16_41  and  C17_46
REMARK   15  A    between atoms: C17_46  and  N14_47
ROOT
HETATM    1  N6  UNL     1      10.285   0.885  -2.748  1.00  0.00    -0.358 N
ATOM      2  H6  UNL     1      10.104   1.880  -2.881  1.00  0.00     0.162 HD
HETATM    3  C10 UNL     1       9.368  -0.072  -3.224  1.00  0.00     0.255 C
HETATM    4  O1  UNL     1       9.603  -1.291  -3.058  1.00  0.00    -0.270 OA
ENDROOT
BRANCH   3   5
HETATM    5  C11 UNL     1       8.109   0.417  -3.932  1.00  0.00     0.180 C
BRANCH   5   6
HETATM    6  O2  UNL     1       7.738  -0.679  -4.771  1.00  0.00    -0.377 OA
ATOM      7  H2  UNL     1       7.768  -0.316  -5.648  1.00  0.00     0.211 HD
ENDBRANCH   5   6
BRANCH   5   8
HETATM    8  C12 UNL     1       8.446   1.561  -4.799  1.00  0.00     0.159 C
BRANCH   8   9
HETATM    9  N7  UNL     1       8.417   2.872  -4.254  1.00  0.00    -0.226 NA
HETATM   10  C13 UNL     1       7.977   3.800  -5.315  1.00  0.00     0.157 C
HETATM   11  C14 UNL     1       9.402   4.245  -5.421  1.00  0.00     0.246 C
HETATM   12  N12 UNL     1       9.575   3.606  -4.165  1.00  0.00    -0.135 NA
BRANCH  11  13
HETATM   13  N8  UNL     1       9.595   5.687  -5.330  1.00  0.00    -0.191 N
HETATM   14  N9  UNL     1       9.174   6.545  -6.244  1.00  0.00     0.002 NA
HETATM   15  N10 UNL     1       9.519   7.770  -5.841  1.00  0.00    -0.233 N
HETATM   16  C15 UNL     1      10.169   7.654  -4.646  1.00  0.00     0.353 A
ATOM     17  H10 UNL     1       9.330   8.640  -6.338  1.00  0.00     0.189 HD
HETATM   18  O3  UNL     1      10.656   8.566  -3.928  1.00  0.00    -0.244 OA
HETATM   19  N11 UNL     1      10.201   6.338  -4.353  1.00  0.00    -0.234 N
ATOM     20  H11 UNL     1      10.619   5.919  -3.522  1.00  0.00     0.193 HD
ENDBRANCH  11  13
ENDBRANCH   8   9
ENDBRANCH   5   8
BRANCH   5  21
HETATM   21  C16 UNL     1       7.025   0.543  -2.938  1.00  0.00     0.253 C
BRANCH  21  22
HETATM   22  N13 UNL     1       7.012  -0.532  -1.947  1.00  0.00    -0.070 N
ATOM     23 3H13 UNL     1       6.698  -1.407  -2.369  1.00  0.00     0.274 HD
ATOM     24 2H13 UNL     1       7.963  -0.798  -1.691  1.00  0.00     0.274 HD
ATOM     25 1H13 UNL     1       6.462  -0.314  -1.117  1.00  0.00     0.274 HD
ENDBRANCH  21  22
BRANCH  21  26
HETATM   26  C17 UNL     1       5.645   0.804  -3.468  1.00  0.00     0.266 C
BRANCH  26  27
HETATM   27  N14 UNL     1       5.375   2.226  -3.155  1.00  0.00    -0.077 N
ATOM     28 3H14 UNL     1       4.467   2.555  -3.481  1.00  0.00     0.274 HD
ATOM     29 2H14 UNL     1       5.217   2.407  -2.164  1.00  0.00     0.274 HD
ATOM     30 1H14 UNL     1       6.166   2.739  -3.547  1.00  0.00     0.274 HD
ENDBRANCH  26  27
ENDBRANCH  21  26
ENDBRANCH   5  21
ENDBRANCH   3   5
BRANCH   1  31
HETATM   31  C9  UNL     1      11.485   0.448  -2.069  1.00  0.00     0.126 C
BRANCH  31  32
HETATM   32  C8  UNL     1      12.682   1.175  -2.522  1.00  0.00     0.047 C
BRANCH  32  33
HETATM   33  C7  UNL     1      13.504   1.868  -1.548  1.00  0.00    -0.024 C
HETATM   34  C6  UNL     1      13.224   3.011  -0.746  1.00  0.00     0.014 C
BRANCH  34  35
HETATM   35  C5  UNL     1      12.320   3.303   0.332  1.00  0.00     0.099 C
BRANCH  35  36
HETATM   36  N5  UNL     1      11.112   2.627   0.623  1.00  0.00    -0.302 N
HETATM   37  C4  UNL     1      10.852   1.605   1.478  1.00  0.00     0.190 A
HETATM   38  N4  UNL     1       9.543   1.358   1.519  1.00  0.00    -0.346 N
HETATM   39  C3  UNL     1       8.893   2.201   0.699  1.00  0.00     0.123 A
ATOM     40  H4  UNL     1       9.100   0.637   2.088  1.00  0.00     0.167 HD
HETATM   41  C2  UNL     1       7.559   2.349   0.394  1.00  0.00     0.145 A
HETATM   42  C18 UNL     1       9.877   2.984   0.147  1.00  0.00     0.159 A
HETATM   43  N2  UNL     1       7.225   3.308  -0.484  1.00  0.00    -0.175 N
HETATM   44  N3  UNL     1       6.627   1.628   0.898  1.00  0.00    -0.383 N
HETATM   45  C1  UNL     1       8.202   4.088  -1.035  1.00  0.00     0.679 A
ATOM     46  H2  UNL     1       6.249   3.453  -0.739  1.00  0.00     0.186 HD
HETATM   47  N15 UNL     1       9.502   3.926  -0.721  1.00  0.00    -0.174 N
ATOM     48  H15 UNL     1      10.205   4.526  -1.151  1.00  0.00     0.186 HD
ATOM     49  H32 UNL     1       5.639   1.738   0.671  1.00  0.00     0.157 HD
ATOM     50  H31 UNL     1       6.881   0.900   1.565  1.00  0.00     0.157 HD
BRANCH  45  51
HETATM   51  N1  UNL     1       7.852   5.002  -1.876  1.00  0.00    -0.234 N
ATOM     52  H12 UNL     1       6.864   5.202  -2.028  1.00  0.00     0.174 HD
ATOM     53  H11 UNL     1       8.586   5.506  -2.374  1.00  0.00     0.174 HD
ENDBRANCH  45  51
ENDBRANCH  35  36
ENDBRANCH  34  35
ENDBRANCH  32  33
ENDBRANCH  31  32
ENDBRANCH   1  31
TORSDOF 15
ENDMDL