MODEL 1
REMARK VINA RESULT: -7.342123415      0.000      0.000
REMARK  17 active torsions:
REMARK  status: ('A' for Active; 'I' for Inactive)
REMARK       I    between atoms: C2_2  and  N1_4
REMARK    1  A    between atoms: N1_4  and  C3_6
REMARK    2  A    between atoms: C3_6  and  C5_8
REMARK       I    between atoms: C5_8  and  N2_10
REMARK    3  A    between atoms: N2_10  and  C6_12
REMARK    4  A    between atoms: C6_12  and  C7_13
REMARK    5  A    between atoms: C7_13  and  C9_15
REMARK    6  A    between atoms: C9_15  and  O3_16
REMARK    7  A    between atoms: C9_15  and  C10_18
REMARK    8  A    between atoms: C10_18  and  O4_19
REMARK    9  A    between atoms: C10_18  and  C11_21
REMARK   10  A    between atoms: C11_21  and  O5_22
REMARK   11  A    between atoms: C11_21  and  C12_24
REMARK   12  A    between atoms: C12_24  and  O6_25
REMARK   13  A    between atoms: C12_24  and  N3_27
REMARK   14  A    between atoms: C14_29  and  C15_30
REMARK   15  A    between atoms: C15_30  and  N4_31
REMARK   16  A    between atoms: C19_38  and  N6_39
REMARK   17  A    between atoms: N6_39  and  N7_41
ROOT
HETATM    1  C12 UNL     1       7.284  -0.346  -2.503  1.00  0.00     0.273 C
ENDROOT
BRANCH   1   2
HETATM    2  C11 UNL     1       8.509   0.250  -1.888  1.00  0.00     0.199 C
BRANCH   2   3
HETATM    3  C10 UNL     1       8.840  -0.265  -0.498  1.00  0.00     0.180 C
BRANCH   3   4
HETATM    4  C9  UNL     1       8.633   0.681   0.611  1.00  0.00     0.154 C
BRANCH   4   5
HETATM    5  C7  UNL     1       9.671   1.808   0.685  1.00  0.00     0.031 C
HETATM    6  C8  UNL     1      10.617   1.414   1.860  1.00  0.00     0.014 C
BRANCH   5   7
HETATM    7  C6  UNL     1       9.135   3.157   0.975  1.00  0.00     0.129 C
BRANCH   7   8
HETATM    8  N2  UNL     1       8.993   3.906  -0.293  1.00  0.00    -0.359 N
HETATM    9  C5  UNL     1       7.766   3.940  -0.980  1.00  0.00     0.240 C
HETATM   10  O2  UNL     1       6.775   3.316  -0.500  1.00  0.00    -0.271 OA
ATOM     11  H2  UNL     1       9.796   4.405  -0.674  1.00  0.00     0.162 HD
BRANCH   9  12
HETATM   12  C3  UNL     1       7.664   4.700  -2.245  1.00  0.00     0.172 C
HETATM   13  C4  UNL     1       8.080   6.155  -2.002  1.00  0.00     0.042 C
BRANCH  12  14
HETATM   14  N1  UNL     1       8.474   4.128  -3.293  1.00  0.00    -0.349 N
HETATM   15  C2  UNL     1       8.150   4.406  -4.646  1.00  0.00     0.214 C
HETATM   16  C1  UNL     1       8.977   3.823  -5.746  1.00  0.00     0.117 C
HETATM   17  O1  UNL     1       7.179   5.135  -4.970  1.00  0.00    -0.274 OA
ATOM     18  H1  UNL     1       9.269   3.532  -3.064  1.00  0.00     0.163 HD
ENDBRANCH  12  14
ENDBRANCH   9  12
ENDBRANCH   7   8
ENDBRANCH   5   7
ENDBRANCH   4   5
BRANCH   4  19
HETATM   19  O3  UNL     1       8.668   0.026   1.875  1.00  0.00    -0.392 OA
ATOM     20  H3  UNL     1       7.828   0.197   2.286  1.00  0.00     0.210 HD
ENDBRANCH   4  19
ENDBRANCH   3   4
BRANCH   3  21
HETATM   21  O4  UNL     1      10.219  -0.623  -0.533  1.00  0.00    -0.390 OA
ATOM     22  H4  UNL     1      10.297  -1.479  -0.939  1.00  0.00     0.210 HD
ENDBRANCH   3  21
ENDBRANCH   2   3
BRANCH   2  23
HETATM   23  O5  UNL     1       9.589  -0.232  -2.690  1.00  0.00    -0.388 OA
ATOM     24  H5  UNL     1       9.715   0.456  -3.332  1.00  0.00     0.210 HD
ENDBRANCH   2  23
ENDBRANCH   1   2
BRANCH   1  25
HETATM   25  O6  UNL     1       7.599  -1.269  -3.504  1.00  0.00    -0.372 OA
ATOM     26  H6  UNL     1       7.362  -0.951  -4.367  1.00  0.00     0.212 HD
ENDBRANCH   1  25
BRANCH   1  27
HETATM   27  N3  UNL     1       6.421   0.707  -3.060  1.00  0.00    -0.255 N
HETATM   28  C13 UNL     1       6.284   0.971  -4.365  1.00  0.00     0.143 A
HETATM   29  C14 UNL     1       5.399   2.014  -4.471  1.00  0.00     0.063 A
HETATM   30  N8  UNL     1       5.041   2.331  -3.218  1.00  0.00    -0.287 N
HETATM   31  N9  UNL     1       5.660   1.539  -2.370  1.00  0.00    -0.238 N
ATOM     32  H8  UNL     1       4.389   3.072  -2.961  1.00  0.00     0.188 HD
ATOM     33  H9  UNL     1       5.569   1.563  -1.355  1.00  0.00     0.208 HD
BRANCH  29  34
HETATM   34  C15 UNL     1       4.902   2.691  -5.672  1.00  0.00     0.207 C
BRANCH  34  35
HETATM   35  N4  UNL     1       3.565   2.332  -6.032  1.00  0.00    -0.186 N
HETATM   36  C16 UNL     1       3.321   1.138  -6.600  1.00  0.00     0.115 A
HETATM   37  C17 UNL     1       2.037   0.751  -6.965  1.00  0.00     0.092 A
HETATM   38  C18 UNL     1       0.971   1.605  -6.745  1.00  0.00     0.260 A
HETATM   39  O7  UNL     1      -0.220   1.279  -7.069  1.00  0.00    -0.268 OA
HETATM   40  N5  UNL     1       1.253   2.791  -6.175  1.00  0.00    -0.154 N
HETATM   41  C19 UNL     1       2.500   3.141  -5.832  1.00  0.00     0.701 A
ATOM     42  H5  UNL     1       0.492   3.445  -5.998  1.00  0.00     0.187 HD
BRANCH  41  43
HETATM   43  N6  UNL     1       2.730   4.278  -5.292  1.00  0.00    -0.138 N
ATOM     44  H6  UNL     1       3.639   4.724  -5.413  1.00  0.00     0.205 HD
BRANCH  43  45
HETATM   45  N7  UNL     1       1.741   4.911  -4.538  1.00  0.00    -0.331 N
ATOM     46  H72 UNL     1       1.305   4.401  -3.769  1.00  0.00     0.177 HD
ATOM     47  H71 UNL     1       1.462   5.868  -4.756  1.00  0.00     0.177 HD
ENDBRANCH  43  45
ENDBRANCH  41  43
ENDBRANCH  34  35
ENDBRANCH  29  34
ENDBRANCH   1  27
TORSDOF 17
ENDMDL