MODEL 3
REMARK VINA RESULT: -6.159933750      2.139      3.333
REMARK  14 active torsions:
REMARK  status: ('A' for Active; 'I' for Inactive)
REMARK    1  A    between atoms: S1_2  and  N1_5
REMARK       I    between atoms: N1_5  and  C2_7
REMARK    2  A    between atoms: N3_9  and  C3_11
REMARK    3  A    between atoms: C3_11  and  C4_12
REMARK    4  A    between atoms: C4_12  and  C5_13
REMARK    5  A    between atoms: C5_13  and  N4_14
REMARK    6  A    between atoms: N4_14  and  C6_17
REMARK    7  A    between atoms: C6_17  and  C7_18
REMARK    8  A    between atoms: C7_18  and  C8_19
REMARK    9  A    between atoms: C8_19  and  N5_20
REMARK       I    between atoms: N5_20  and  C9_22
REMARK       I    between atoms: C9_22  and  N6_24
REMARK   10  A    between atoms: N6_24  and  C10_26
REMARK   11  A    between atoms: C12_35  and  C13_36
REMARK   12  A    between atoms: C13_36  and  N10_37
REMARK   13  A    between atoms: C13_36  and  N11_41
REMARK   14  A    between atoms: N12_45  and  C14_46
ROOT
HETATM    1  C10 UNL     1       7.410   3.720  -1.483  1.00  0.00     0.710 A
HETATM    2  N7  UNL     1       6.448   3.389  -2.373  1.00  0.00    -0.022 N
ATOM      3  H7  UNL     1       5.862   4.129  -2.758  1.00  0.00     0.203 HD
HETATM    4  C11 UNL     1       6.230   2.109  -2.776  1.00  0.00     0.691 A
HETATM    5  N8  UNL     1       5.311   1.818  -3.622  1.00  0.00    -0.234 N
ATOM      6  H81 UNL     1       5.147   0.857  -3.924  1.00  0.00     0.174 HD
ATOM      7  H82 UNL     1       4.709   2.535  -4.025  1.00  0.00     0.174 HD
HETATM    8  N9  UNL     1       7.023   1.164  -2.244  1.00  0.00    -0.175 N
ATOM      9  H9  UNL     1       6.888   0.192  -2.523  1.00  0.00     0.185 HD
HETATM   10  C12 UNL     1       8.001   1.460  -1.346  1.00  0.00     0.180 A
HETATM   11  N12 UNL     1       8.190   2.731  -0.971  1.00  0.00    -0.108 N
ENDROOT
BRANCH   1  12
HETATM   12  N6  UNL     1       7.662   4.904  -1.072  1.00  0.00    -0.140 N
HETATM   13  C9  UNL     1       8.226   5.846  -2.006  1.00  0.00     0.334 C
HETATM   14  N5  UNL     1       9.535   6.354  -1.813  1.00  0.00    -0.342 N
HETATM   15  O3  UNL     1       7.581   6.241  -3.006  1.00  0.00    -0.247 OA
ATOM     16  H5  UNL     1      10.078   6.052  -1.005  1.00  0.00     0.164 HD
ATOM     17  H6  UNL     1       7.468   5.175  -0.109  1.00  0.00     0.189 HD
BRANCH  14  18
HETATM   18  C8  UNL     1      10.105   7.285  -2.741  1.00  0.00     0.126 C
BRANCH  18  19
HETATM   19  C7  UNL     1      11.522   7.670  -2.354  1.00  0.00     0.047 C
BRANCH  19  20
HETATM   20  C6  UNL     1      12.138   8.552  -3.425  1.00  0.00     0.234 C
BRANCH  20  21
HETATM   21  N4  UNL     1      11.119   8.962  -4.356  1.00  0.00    -0.075 N
ATOM     22  H42 UNL     1      10.735   9.868  -4.088  1.00  0.00     0.277 HD
ATOM     23  H41 UNL     1      10.286   8.382  -4.252  1.00  0.00     0.277 HD
BRANCH  21  24
HETATM   24  C5  UNL     1      11.545   8.985  -5.727  1.00  0.00     0.237 C
BRANCH  24  25
HETATM   25  C4  UNL     1      12.557   7.828  -5.908  1.00  0.00     0.072 C
BRANCH  25  26
HETATM   26  C3  UNL     1      11.850   6.786  -6.706  1.00  0.00     0.065 C
BRANCH  26  27
HETATM   27  N3  UNL     1      11.129   5.798  -6.015  1.00  0.00    -0.344 N
HETATM   28  C2  UNL     1       9.918   5.615  -5.778  1.00  0.00     0.201 C
HETATM   29  N1  UNL     1       9.506   4.483  -5.028  1.00  0.00    -0.258 N
HETATM   30  N2  UNL     1       8.918   6.501  -6.236  1.00  0.00    -0.063 NA
ATOM     31  H1  UNL     1       9.950   4.253  -4.139  1.00  0.00     0.181 HD
ATOM     32  H3  UNL     1      11.726   5.071  -5.621  1.00  0.00     0.167 HD
BRANCH  29  33
HETATM   33  S1  UNL     1       8.235   3.506  -5.662  1.00  0.00     0.229 S
HETATM   34  C1  UNL     1       8.494   3.178  -7.376  1.00  0.00     0.186 C
HETATM   35  O1  UNL     1       6.890   4.150  -5.408  1.00  0.00    -0.206 OA
HETATM   36  O2  UNL     1       8.281   2.191  -4.897  1.00  0.00    -0.206 OA
ENDBRANCH  29  33
ENDBRANCH  26  27
ENDBRANCH  25  26
ENDBRANCH  24  25
ENDBRANCH  21  24
ENDBRANCH  20  21
ENDBRANCH  19  20
ENDBRANCH  18  19
ENDBRANCH  14  18
ENDBRANCH   1  12
BRANCH  11  37
HETATM   37  C14 UNL     1       9.202   3.049  -0.038  1.00  0.00     0.222 A
HETATM   38  N13 UNL     1       9.150   3.085   1.305  1.00  0.00    -0.219 N
HETATM   39  O4  UNL     1      10.299   3.425   1.778  1.00  0.00    -0.152 OA
ATOM     40  H13 UNL     1       8.325   2.873   1.866  1.00  0.00     0.198 HD
HETATM   41  N14 UNL     1      11.148   3.628   0.816  1.00  0.00    -0.203 N
HETATM   42  C15 UNL     1      10.514   3.406  -0.349  1.00  0.00     0.314 A
ATOM     43  H14 UNL     1      12.123   3.906   0.925  1.00  0.00     0.200 HD
HETATM   44  O5  UNL     1      11.028   3.508  -1.502  1.00  0.00    -0.262 OA
ENDBRANCH  11  37
BRANCH  10  45
HETATM   45  C13 UNL     1       8.870   0.398  -0.773  1.00  0.00     0.446 C
BRANCH  45  46
HETATM   46  N10 UNL     1       9.041  -0.588  -1.852  1.00  0.00    -0.043 N
ATOM     47 3H10 UNL     1       9.866  -0.428  -2.430  1.00  0.00     0.277 HD
ATOM     48 2H10 UNL     1       9.306  -1.516  -1.522  1.00  0.00     0.277 HD
ATOM     49 1H10 UNL     1       8.164  -0.572  -2.373  1.00  0.00     0.277 HD
ENDBRANCH  45  46
BRANCH  45  50
HETATM   50  N11 UNL     1       8.237  -0.230   0.379  1.00  0.00    -0.043 N
ATOM     51 3H11 UNL     1       8.627  -1.154   0.564  1.00  0.00     0.277 HD
ATOM     52 2H11 UNL     1       8.504   0.228   1.251  1.00  0.00     0.277 HD
ATOM     53 1H11 UNL     1       7.224  -0.265   0.266  1.00  0.00     0.277 HD
ENDBRANCH  45  50
ENDBRANCH  10  45
TORSDOF 14
ENDMDL