MODEL 5
REMARK VINA RESULT: -4.720908892      1.706      3.257
REMARK  1 active torsions:
REMARK  status: ('A' for Active; 'I' for Inactive)
REMARK    1  A    between atoms: C2_2  and  C5_5
ROOT
HETATM    1  C5  UNL     1     -34.337 -19.966  21.777  1.00  0.00     0.130 A
HETATM    2  C6  UNL     1     -33.108 -20.407  22.478  1.00  0.00     0.059 A
HETATM    3  C7  UNL     1     -33.857 -20.093  23.756  1.00  0.00     0.170 A
HETATM    4  O1  UNL     1     -34.968 -19.753  23.006  1.00  0.00    -0.385 OA
ENDROOT
BRANCH   1   5
HETATM    5  C2  UNL     1     -35.050 -20.969  20.926  1.00  0.00    -0.025 C
HETATM    6  C1  UNL     1     -35.145 -20.618  19.491  1.00  0.00     0.017 C
HETATM    7  C3  UNL     1     -36.456 -21.147  21.473  1.00  0.00     0.017 C
HETATM    8  C4  UNL     1     -34.342 -22.299  21.077  1.00  0.00     0.017 C
ENDBRANCH   1   5
TORSDOF 1
ENDMDL