MODEL 4
REMARK VINA RESULT: -4.480794951      0.846      1.438
REMARK  1 active torsions:
REMARK  status: ('A' for Active; 'I' for Inactive)
REMARK    1  A    between atoms: C2_2  and  N1_4
ROOT
HETATM    1  N1  UNL     1     -36.763 -20.880  20.781  1.00  0.00     0.119 N
HETATM    2  C4  UNL     1     -37.043 -21.385  22.080  1.00  0.00     0.302 C
HETATM    3  C5  UNL     1     -38.376 -22.063  21.903  1.00  0.00     0.264 C
HETATM    4  N2  UNL     1     -38.733 -21.973  20.516  1.00  0.00    -0.047 N
ATOM      5  H21 UNL     1     -39.517 -21.346  20.339  1.00  0.00     0.279 HD
ATOM      6  H22 UNL     1     -39.166 -22.822  20.152  1.00  0.00     0.279 HD
HETATM    7  C6  UNL     1     -37.528 -21.598  19.812  1.00  0.00     0.503 C
ENDROOT
BRANCH   1   8
HETATM    8  C2  UNL     1     -35.379 -20.725  20.466  1.00  0.00     0.217 C
HETATM    9  C1  UNL     1     -35.206 -20.740  18.958  1.00  0.00     0.042 C
HETATM   10  C3  UNL     1     -34.597 -21.882  21.036  1.00  0.00     0.042 C
ENDBRANCH   1   8
TORSDOF 1
ENDMDL