MODEL 4
REMARK VINA RESULT: -4.988218698      2.461      3.773
REMARK  1 active torsions:
REMARK  status: ('A' for Active; 'I' for Inactive)
REMARK    1  A    between atoms: O1_2  and  C2_3
ROOT
HETATM    1  C2  UNL     1     -33.934 -20.858  21.428  1.00  0.00     0.132 C
HETATM    2  C3  UNL     1     -34.401 -20.054  20.211  1.00  0.00     0.034 C
HETATM    3  C4  UNL     1     -35.125 -20.684  19.134  1.00  0.00     0.023 C
HETATM    4  C5  UNL     1     -36.630 -20.795  19.119  1.00  0.00     0.129 C
HETATM    5  N1  UNL     1     -37.180 -21.468  20.336  1.00  0.00    -0.361 N
ATOM      6  H1  UNL     1     -38.132 -21.820  20.443  1.00  0.00     0.168 HD
HETATM    7  C6  UNL     1     -36.208 -21.531  21.267  1.00  0.00    -0.073 C
HETATM    8  C7  UNL     1     -35.146 -21.497  22.178  1.00  0.00     0.136 C
ENDROOT
BRANCH   1   9
HETATM    9  O1  UNL     1     -33.189 -20.074  22.229  1.00  0.00    -0.390 OA
HETATM   10  C1  UNL     1     -33.607 -19.905  23.512  1.00  0.00     0.202 C
ENDBRANCH   1   9
TORSDOF 1
ENDMDL