MODEL 1
REMARK VINA RESULT: -4.760875806      0.000      0.000
REMARK  1 active torsions:
REMARK  status: ('A' for Active; 'I' for Inactive)
REMARK    1  A    between atoms: O1_2  and  C2_3
ROOT
HETATM    1  C2  UNL     1     -36.465 -21.690  21.010  1.00  0.00     0.123 C
HETATM    2  C3  UNL     1     -35.112 -22.094  21.536  1.00  0.00     0.051 C
HETATM    3  C4  UNL     1     -34.158 -20.929  21.595  1.00  0.00     0.116 C
HETATM    4  N1  UNL     1     -34.245 -20.038  20.505  1.00  0.00    -0.421 N
ATOM      5  H1  UNL     1     -33.777 -19.131  20.524  1.00  0.00     0.153 HD
HETATM    6  C5  UNL     1     -35.007 -20.449  19.383  1.00  0.00     0.116 C
HETATM    7  C6  UNL     1     -36.374 -20.977  19.686  1.00  0.00     0.051 C
ENDROOT
BRANCH   1   8
HETATM    8  O1  UNL     1     -37.082 -20.888  21.947  1.00  0.00    -0.391 OA
HETATM    9  C1  UNL     1     -38.245 -21.465  22.460  1.00  0.00     0.202 C
ENDBRANCH   1   8
TORSDOF 1
ENDMDL