MODEL 4
REMARK VINA RESULT: -4.915848033      0.980      1.349
REMARK  2 active torsions:
REMARK  status: ('A' for Active; 'I' for Inactive)
REMARK    1  A    between atoms: C2_2  and  C4_4
REMARK    2  A    between atoms: C4_4  and  N1_5
ROOT
HETATM    1  C4  UNL     1     -35.484 -21.449  21.567  1.00  0.00     0.149 C
HETATM    2  C5  UNL     1     -35.980 -21.185  20.159  1.00  0.00     0.067 C
HETATM    3  C6  UNL     1     -37.475 -21.452  20.393  1.00  0.00     0.170 C
HETATM    4  O1  UNL     1     -37.769 -21.086  21.674  1.00  0.00    -0.389 OA
HETATM    5  C7  UNL     1     -36.595 -20.763  22.350  1.00  0.00     0.206 C
ENDROOT
BRANCH   1   6
HETATM    6  C2  UNL     1     -34.129 -20.908  21.838  1.00  0.00     0.015 C
HETATM    7  C1  UNL     1     -33.910 -20.415  23.236  1.00  0.00     0.012 C
HETATM    8  C3  UNL     1     -33.938 -19.720  20.883  1.00  0.00     0.012 C
ENDBRANCH   1   6
BRANCH   1   9
HETATM    9  N1  UNL     1     -35.486 -22.875  21.784  1.00  0.00    -0.068 N
ATOM     10  H13 UNL     1     -35.721 -23.392  20.937  1.00  0.00     0.275 HD
ATOM     11  H12 UNL     1     -34.546 -23.244  21.926  1.00  0.00     0.275 HD
ATOM     12  H11 UNL     1     -36.110 -23.102  22.558  1.00  0.00     0.275 HD
ENDBRANCH   1   9
TORSDOF 2
ENDMDL