MODEL 3
REMARK VINA RESULT: -4.557083810      1.116      1.499
REMARK  1 active torsions:
REMARK  status: ('A' for Active; 'I' for Inactive)
REMARK    1  A    between atoms: O1_2  and  C2_3
ROOT
HETATM    1  C2  UNL     1     -35.655 -21.375  20.385  1.00  0.00     0.159 C
HETATM    2  C3  UNL     1     -34.723 -20.300  19.925  1.00  0.00     0.042 C
HETATM    3  C4  UNL     1     -33.841 -19.722  20.951  1.00  0.00     0.047 C
HETATM    4  C5  UNL     1     -34.130 -20.007  22.368  1.00  0.00     0.060 C
HETATM    5  N1  UNL     1     -34.930 -21.121  22.672  1.00  0.00    -0.380 N
ATOM      6  H1  UNL     1     -35.283 -21.259  23.620  1.00  0.00     0.164 HD
HETATM    7  C6  UNL     1     -35.236 -22.037  21.662  1.00  0.00     0.091 C
ENDROOT
BRANCH   1   8
HETATM    8  O1  UNL     1     -36.935 -20.823  20.610  1.00  0.00    -0.386 OA
HETATM    9  C1  UNL     1     -37.927 -21.746  20.288  1.00  0.00     0.202 C
ENDBRANCH   1   8
TORSDOF 1
ENDMDL