MODEL 3
REMARK VINA RESULT: -4.220066937      3.065      3.947
REMARK  1 active torsions:
REMARK  status: ('A' for Active; 'I' for Inactive)
REMARK    1  A    between atoms: N1_2  and  C2_4
ROOT
HETATM    1  C2  UNL     1     -35.024 -21.059  21.413  1.00  0.00     0.045 C
HETATM    2  C3  UNL     1     -34.526 -22.477  21.116  1.00  0.00     0.040 C
HETATM    3  C4  UNL     1     -34.459 -20.193  20.317  1.00  0.00     0.058 C
HETATM    4  C5  UNL     1     -35.410 -20.569  19.171  1.00  0.00     0.170 C
HETATM    5  O1  UNL     1     -36.461 -21.255  19.706  1.00  0.00    -0.389 OA
HETATM    6  C6  UNL     1     -36.486 -20.979  21.095  1.00  0.00     0.197 C
ENDROOT
BRANCH   1   7
HETATM    7  N1  UNL     1     -34.700 -20.741  22.727  1.00  0.00    -0.415 N
HETATM    8  C1  UNL     1     -33.427 -20.179  23.005  1.00  0.00     0.140 C
ATOM      9  H1  UNL     1     -35.367 -20.909  23.481  1.00  0.00     0.153 HD
ENDBRANCH   1   7
TORSDOF 1
ENDMDL