MODEL 5
REMARK VINA RESULT: -4.139682545      2.297      3.860
REMARK  1 active torsions:
REMARK  status: ('A' for Active; 'I' for Inactive)
REMARK    1  A    between atoms: S1_2  and  C2_3
ROOT
HETATM    1  C2  UNL     1     -36.242 -21.238  21.211  1.00  0.00     0.246 C
HETATM    2  C3  UNL     1     -36.938 -21.258  19.882  1.00  0.00     0.045 C
HETATM    3  C4  UNL     1     -38.360 -21.615  20.304  1.00  0.00     0.030 C
HETATM    4  C5  UNL     1     -38.210 -22.216  21.674  1.00  0.00     0.233 C
HETATM    5  N1  UNL     1     -36.776 -22.445  21.838  1.00  0.00    -0.062 N
ATOM      6  H11 UNL     1     -36.463 -22.621  22.793  1.00  0.00     0.278 HD
ATOM      7  H12 UNL     1     -36.423 -23.328  21.469  1.00  0.00     0.278 HD
ENDROOT
BRANCH   1   8
HETATM    8  S1  UNL     1     -34.457 -21.224  21.117  1.00  0.00    -0.141 SA
HETATM    9  C1  UNL     1     -33.719 -19.775  21.903  1.00  0.00     0.092 C
ENDBRANCH   1   8
TORSDOF 1
ENDMDL