MODEL 2
REMARK VINA RESULT: -5.082808910      1.273      1.386
REMARK  1 active torsions:
REMARK  status: ('A' for Active; 'I' for Inactive)
REMARK    1  A    between atoms: N1_2  and  C2_5
ROOT
HETATM    1  C2  UNL     1     -36.655 -21.077  20.341  1.00  0.00     0.209 C
HETATM    2  C3  UNL     1     -35.971 -21.918  21.368  1.00  0.00     0.037 C
HETATM    3  C4  UNL     1     -34.501 -21.630  21.344  1.00  0.00     0.028 C
HETATM    4  C5  UNL     1     -34.154 -20.291  20.770  1.00  0.00     0.167 C
HETATM    5  O1  UNL     1     -34.638 -20.050  19.523  1.00  0.00    -0.389 OA
HETATM    6  C6  UNL     1     -35.777 -20.740  19.176  1.00  0.00     0.200 C
ENDROOT
BRANCH   1   7
HETATM    7  N1  UNL     1     -37.911 -21.617  19.884  1.00  0.00    -0.073 N
HETATM    8  C1  UNL     1     -38.679 -22.253  20.907  1.00  0.00     0.267 C
ATOM      9  H12 UNL     1     -37.763 -22.253  19.100  1.00  0.00     0.277 HD
ATOM     10  H11 UNL     1     -38.463 -20.896  19.419  1.00  0.00     0.277 HD
ENDBRANCH   1   7
TORSDOF 1
ENDMDL