MODEL 5
REMARK VINA RESULT: -4.667337081      2.030      2.867
REMARK  1 active torsions:
REMARK  status: ('A' for Active; 'I' for Inactive)
REMARK    1  A    between atoms: C2_2  and  C4_4
ROOT
HETATM    1  C4  UNL     1     -34.751 -21.234  21.586  1.00  0.00     0.324 C
HETATM    2  N1  UNL     1     -34.936 -20.815  20.203  1.00  0.00    -0.046 N
ATOM      3  H11 UNL     1     -34.295 -21.247  19.537  1.00  0.00     0.280 HD
ATOM      4  H12 UNL     1     -34.655 -19.854  20.007  1.00  0.00     0.280 HD
HETATM    5  C5  UNL     1     -36.340 -21.098  19.963  1.00  0.00     0.261 C
HETATM    6  C6  UNL     1     -36.876 -21.466  21.350  1.00  0.00     0.198 C
HETATM    7  O1  UNL     1     -35.940 -20.780  22.157  1.00  0.00    -0.357 OA
ENDROOT
BRANCH   1   8
HETATM    8  C2  UNL     1     -33.544 -20.571  22.207  1.00  0.00     0.034 C
HETATM    9  C1  UNL     1     -33.810 -20.275  23.667  1.00  0.00     0.014 C
HETATM   10  C3  UNL     1     -33.361 -19.236  21.509  1.00  0.00     0.014 C
ENDBRANCH   1   8
TORSDOF 1
ENDMDL