MODEL 2
REMARK VINA RESULT: -5.921390975      3.273      4.169
REMARK  5 active torsions:
REMARK  status: ('A' for Active; 'I' for Inactive)
REMARK    1  A    between atoms: C2_5  and  C3_6
REMARK    2  A    between atoms: C3_6  and  N3_7
REMARK    3  A    between atoms: C3_6  and  N4_11
REMARK    4  A    between atoms: C5_17  and  N6_18
REMARK    5  A    between atoms: N6_18  and  S1_20
ROOT
HETATM    1  N1  UNL     1      -6.989   3.108  -1.017  1.00  0.00    -0.063 NA
HETATM    2  C1  UNL     1      -6.840   3.757   0.232  1.00  0.00     0.194 A
HETATM    3  N2  UNL     1      -6.149   3.149   1.229  1.00  0.00    -0.329 N
ATOM      4  H2  UNL     1      -5.739   2.228   1.073  1.00  0.00     0.168 HD
HETATM    5  C2  UNL     1      -6.001   3.746   2.409  1.00  0.00     0.097 A
HETATM    6  C4  UNL     1      -6.576   5.019   2.596  1.00  0.00     0.117 A
HETATM    7  N5  UNL     1      -6.405   5.630   3.848  1.00  0.00    -0.096 NA
HETATM    8  C5  UNL     1      -7.274   5.647   1.611  1.00  0.00     0.144 A
HETATM    9  N7  UNL     1      -7.383   4.968   0.423  1.00  0.00    -0.314 N
ATOM     10  H7  UNL     1      -7.896   5.402  -0.345  1.00  0.00     0.170 HD
ENDROOT
BRANCH   5  11
HETATM   11  C3  UNL     1      -5.244   3.096   3.522  1.00  0.00     0.429 C
BRANCH  11  12
HETATM   12  N3  UNL     1      -4.085   3.886   3.873  1.00  0.00    -0.045 N
ATOM     13  H33 UNL     1      -3.426   3.957   3.099  1.00  0.00     0.277 HD
ATOM     14  H32 UNL     1      -4.314   4.875   3.969  1.00  0.00     0.277 HD
ATOM     15  H31 UNL     1      -3.643   3.515   4.715  1.00  0.00     0.277 HD
ENDBRANCH  11  12
BRANCH  11  16
HETATM   16  N4  UNL     1      -4.760   1.806   3.068  1.00  0.00    -0.045 N
ATOM     17  H43 UNL     1      -5.019   1.611   2.101  1.00  0.00     0.277 HD
ATOM     18  H42 UNL     1      -3.747   1.790   2.949  1.00  0.00     0.277 HD
ATOM     19  H41 UNL     1      -5.088   1.086   3.712  1.00  0.00     0.277 HD
ENDBRANCH  11  16
ENDBRANCH   5  11
BRANCH   8  20
HETATM   20  N6  UNL     1      -7.797   6.751   1.713  1.00  0.00    -0.254 N
ATOM     21  H6  UNL     1      -7.227   7.445   1.229  1.00  0.00     0.181 HD
BRANCH  20  22
HETATM   22  S1  UNL     1      -9.119   7.488   2.377  1.00  0.00     0.360 S
HETATM   23  O1  UNL     1     -10.001   6.579   3.229  1.00  0.00    -0.187 OA
HETATM   24  O2  UNL     1      -8.877   8.780   3.121  1.00  0.00    -0.187 OA
ENDBRANCH  20  22
ENDBRANCH   8  20
TORSDOF 5
ENDMDL