MODEL 5
REMARK VINA RESULT: -5.378912341      3.814      5.513
REMARK  5 active torsions:
REMARK  status: ('A' for Active; 'I' for Inactive)
REMARK    1  A    between atoms: O1_2  and  N1_3
REMARK    2  A    between atoms: N1_3  and  C2_5
REMARK    3  A    between atoms: C3_8  and  N3_9
REMARK    4  A    between atoms: C5_16  and  S1_17
REMARK    5  A    between atoms: S1_17  and  N6_18
ROOT
HETATM    1  C2  UNL     1      -7.684   0.981   1.245  1.00  0.00     0.167 A
HETATM    2  N2  UNL     1      -6.818   0.639   2.234  1.00  0.00    -0.173 N
ATOM      3  H2  UNL     1      -6.933  -0.266   2.693  1.00  0.00     0.186 HD
HETATM    4  C3  UNL     1      -5.817   1.441   2.633  1.00  0.00     0.678 A
HETATM    5  N4  UNL     1      -5.670   2.631   2.029  1.00  0.00    -0.177 N
ATOM      6  H4  UNL     1      -4.917   3.255   2.318  1.00  0.00     0.185 HD
HETATM    7  C4  UNL     1      -6.516   3.011   1.036  1.00  0.00     0.159 A
HETATM    8  N5  UNL     1      -6.371   4.266   0.388  1.00  0.00    -0.080 NA
HETATM    9  C5  UNL     1      -7.546   2.198   0.615  1.00  0.00     0.166 A
ENDROOT
BRANCH   9  10
HETATM   10  S1  UNL     1      -8.628   2.666  -0.644  1.00  0.00     0.263 S
HETATM   11  O2  UNL     1      -8.472   1.754  -1.849  1.00  0.00    -0.200 OA
HETATM   12  O3  UNL     1     -10.042   2.425  -0.147  1.00  0.00    -0.200 OA
BRANCH  10  13
HETATM   13  N6  UNL     1      -8.519   4.293  -1.119  1.00  0.00    -0.324 N
ATOM     14  H62 UNL     1      -7.971   4.969  -0.587  1.00  0.00     0.169 HD
ATOM     15  H61 UNL     1      -9.038   4.532  -1.964  1.00  0.00     0.169 HD
ENDBRANCH  10  13
ENDBRANCH   9  10
BRANCH   1  16
HETATM   16  N1  UNL     1      -8.638   0.219   0.862  1.00  0.00    -0.249 N
ATOM     17  H1  UNL     1      -8.844   0.088  -0.129  1.00  0.00     0.196 HD
BRANCH  16  18
HETATM   18  O1  UNL     1      -9.374  -0.418   1.831  1.00  0.00    -0.284 OA
HETATM   19  C1  UNL     1     -10.391   0.209   2.574  1.00  0.00     0.237 C
ENDBRANCH  16  18
ENDBRANCH   1  16
BRANCH   4  20
HETATM   20  N3  UNL     1      -4.995   1.092   3.588  1.00  0.00    -0.234 N
ATOM     21  H32 UNL     1      -5.170   0.240   4.121  1.00  0.00     0.174 HD
ATOM     22  H31 UNL     1      -4.173   1.650   3.819  1.00  0.00     0.174 HD
ENDBRANCH   4  20
TORSDOF 5
ENDMDL