MODEL 4
REMARK VINA RESULT: -6.656743175      2.019      3.240
REMARK  5 active torsions:
REMARK  status: ('A' for Active; 'I' for Inactive)
REMARK    1  A    between atoms: N1_1  and  C1_4
REMARK    2  A    between atoms: C2_7  and  N3_8
REMARK    3  A    between atoms: N3_8  and  O1_10
REMARK    4  A    between atoms: O1_10  and  C3_11
REMARK    5  A    between atoms: C3_11  and  C4_12
ROOT
HETATM    1  C1  UNL     1      -5.430   3.109   2.550  1.00  0.00     0.693 A
HETATM    2  N2  UNL     1      -5.646   2.945   1.217  1.00  0.00    -0.021 N
ATOM      3  H2  UNL     1      -5.240   2.098   0.818  1.00  0.00     0.203 HD
HETATM    4  C2  UNL     1      -6.309   3.717   0.343  1.00  0.00     0.718 A
HETATM    5  N7  UNL     1      -6.962   4.869   0.543  1.00  0.00    -0.169 N
ATOM      6  H7  UNL     1      -7.432   5.280  -0.263  1.00  0.00     0.186 HD
HETATM    7  C6  UNL     1      -7.057   5.542   1.723  1.00  0.00     0.184 A
HETATM    8  N8  UNL     1      -7.700   6.638   1.664  1.00  0.00    -0.381 N
ATOM      9  H81 UNL     1      -7.772   7.142   2.548  1.00  0.00     0.157 HD
ATOM     10  H82 UNL     1      -8.063   6.874   0.741  1.00  0.00     0.157 HD
HETATM   11  C7  UNL     1      -6.568   5.223   2.968  1.00  0.00     0.303 A
HETATM   12  O2  UNL     1      -6.813   6.031   3.894  1.00  0.00    -0.263 OA
HETATM   13  N9  UNL     1      -5.855   4.129   3.287  1.00  0.00    -0.153 N
ATOM     14  H9  UNL     1      -5.593   4.072   4.271  1.00  0.00     0.187 HD
ENDROOT
BRANCH   4  15
HETATM   15  N3  UNL     1      -6.319   3.290  -0.868  1.00  0.00    -0.095 N
ATOM     16  H3  UNL     1      -5.445   3.087  -1.352  1.00  0.00     0.213 HD
BRANCH  15  17
HETATM   17  O1  UNL     1      -7.521   3.109  -1.502  1.00  0.00    -0.260 OA
BRANCH  17  18
HETATM   18  C3  UNL     1      -8.440   2.170  -0.969  1.00  0.00     0.262 C
BRANCH  18  19
HETATM   19  C4  UNL     1      -9.760   2.856  -0.862  1.00  0.00     0.070 A
HETATM   20  C5  UNL     1     -11.014   2.279  -0.992  1.00  0.00     0.137 A
HETATM   21  N4  UNL     1     -11.960   3.235  -0.828  1.00  0.00    -0.296 N
HETATM   22  N5  UNL     1     -11.312   4.357  -0.605  1.00  0.00    -0.243 N
ATOM     23  H4  UNL     1     -12.972   3.110  -0.868  1.00  0.00     0.187 HD
HETATM   24  N6  UNL     1     -10.005   4.159  -0.620  1.00  0.00    -0.287 N
ATOM     25  H5  UNL     1     -11.758   5.259  -0.441  1.00  0.00     0.208 HD
ATOM     26  H6  UNL     1      -9.296   4.877  -0.472  1.00  0.00     0.188 HD
ENDBRANCH  18  19
ENDBRANCH  17  18
ENDBRANCH  15  17
ENDBRANCH   4  15
BRANCH   1  27
HETATM   27  N1  UNL     1      -4.760   2.213   3.163  1.00  0.00    -0.234 N
ATOM     28  H12 UNL     1      -3.763   2.172   2.951  1.00  0.00     0.174 HD
ATOM     29  H11 UNL     1      -5.258   1.606   3.814  1.00  0.00     0.174 HD
ENDBRANCH   1  27
TORSDOF 5
ENDMDL