MODEL 5
REMARK VINA RESULT: -6.178235583      2.271      2.560
REMARK  6 active torsions:
REMARK  status: ('A' for Active; 'I' for Inactive)
REMARK       I    between atoms: C2_2  and  N1_4
REMARK    1  A    between atoms: N1_4  and  N2_6
REMARK    2  A    between atoms: N2_6  and  C3_8
REMARK    3  A    between atoms: C3_8  and  O2_9
REMARK    4  A    between atoms: C3_8  and  C4_11
REMARK    5  A    between atoms: N4_14  and  N5_15
REMARK    6  A    between atoms: C7_21  and  N8_22
ROOT
HETATM    1  C4  UNL     1      -6.953   1.834   0.596  1.00  0.00     0.105 A
HETATM    2  C5  UNL     1      -6.460   1.347   1.817  1.00  0.00     0.174 A
HETATM    3  N3  UNL     1      -6.943   0.163   2.419  1.00  0.00    -0.078 NA
HETATM    4  N4  UNL     1      -5.510   2.168   2.269  1.00  0.00    -0.179 N
HETATM    5  N7  UNL     1      -5.354   3.154   1.424  1.00  0.00    -0.262 N
ATOM      6  H7  UNL     1      -4.692   3.924   1.526  1.00  0.00     0.191 HD
HETATM    7  C7  UNL     1      -6.241   2.982   0.360  1.00  0.00     0.133 A
ENDROOT
BRANCH   1   8
HETATM    8  C3  UNL     1      -7.975   1.237  -0.208  1.00  0.00     0.172 C
BRANCH   8   9
HETATM    9  N2  UNL     1      -9.267   0.827   0.098  1.00  0.00    -0.277 N
ATOM     10  H2  UNL     1      -9.456  -0.166   0.236  1.00  0.00     0.189 HD
BRANCH   9  11
HETATM   11  N1  UNL     1     -10.328   1.758   0.223  1.00  0.00    -0.268 N
HETATM   12  C2  UNL     1     -10.754   2.543  -0.886  1.00  0.00     0.232 C
HETATM   13  C1  UNL     1     -11.868   3.512  -0.736  1.00  0.00     0.119 C
HETATM   14  O1  UNL     1     -10.224   2.463  -2.024  1.00  0.00    -0.272 OA
ATOM     15  H1  UNL     1     -10.795   1.868   1.124  1.00  0.00     0.190 HD
ENDBRANCH   9  11
ENDBRANCH   8   9
BRANCH   8  16
HETATM   16  O2  UNL     1      -7.651   1.032  -1.456  1.00  0.00    -0.344 OA
ATOM     17  H2  UNL     1      -6.958   1.605  -1.763  1.00  0.00     0.219 HD
ENDBRANCH   8  16
ENDBRANCH   1   8
BRANCH   7  18
HETATM   18  N8  UNL     1      -6.252   3.835  -0.570  1.00  0.00    -0.384 N
ATOM     19  H82 UNL     1      -7.037   4.482  -0.636  1.00  0.00     0.157 HD
ATOM     20  H81 UNL     1      -5.613   4.045  -1.337  1.00  0.00     0.157 HD
ENDBRANCH   7  18
BRANCH   4  21
HETATM   21  N5  UNL     1      -4.821   1.966   3.475  1.00  0.00    -0.276 N
HETATM   22  C6  UNL     1      -4.547   2.964   4.257  1.00  0.00     0.208 C
HETATM   23  N6  UNL     1      -3.847   2.679   5.457  1.00  0.00    -0.095 NA
ATOM     24  H5  UNL     1      -4.533   1.024   3.740  1.00  0.00     0.189 HD
ENDBRANCH   4  21
TORSDOF 6
ENDMDL