MODEL 5
REMARK VINA RESULT: -6.272377316      2.555      3.249
REMARK  6 active torsions:
REMARK  status: ('A' for Active; 'I' for Inactive)
REMARK    1  A    between atoms: O1_2  and  C2_3
REMARK    2  A    between atoms: C3_6  and  N2_7
REMARK    3  A    between atoms: N2_7  and  N3_9
REMARK       I    between atoms: N3_9  and  C4_11
REMARK    4  A    between atoms: C4_11  and  C5_13
REMARK       I    between atoms: C5_13  and  N4_15
REMARK    5  A    between atoms: N4_15  and  N5_16
REMARK    6  A    between atoms: C6_21  and  N7_22
ROOT
HETATM    1  C2  UNL     1      -8.597   0.615   0.926  1.00  0.00     0.252 A
HETATM    2  N1  UNL     1      -7.419   1.159   1.212  1.00  0.00    -0.152 N
ATOM      3  H1  UNL     1      -6.902   0.822   2.024  1.00  0.00     0.188 HD
HETATM    4  C3  UNL     1      -6.888   2.147   0.457  1.00  0.00     0.714 A
HETATM    5  N6  UNL     1      -7.553   2.597  -0.615  1.00  0.00    -0.021 N
ATOM      6  H6  UNL     1      -7.168   3.343  -1.194  1.00  0.00     0.203 HD
HETATM    7  C6  UNL     1      -8.763   2.028  -0.913  1.00  0.00     0.693 A
HETATM    8  N8  UNL     1      -9.280   1.052  -0.154  1.00  0.00    -0.154 N
ATOM      9  H8  UNL     1     -10.182   0.641  -0.390  1.00  0.00     0.188 HD
ENDROOT
BRANCH   4  10
HETATM   10  N2  UNL     1      -5.698   2.656   0.715  1.00  0.00    -0.128 N
ATOM     11  H2  UNL     1      -5.087   2.981  -0.035  1.00  0.00     0.205 HD
BRANCH  10  12
HETATM   12  N3  UNL     1      -5.290   2.737   2.113  1.00  0.00    -0.246 N
HETATM   13  C4  UNL     1      -5.623   3.917   2.862  1.00  0.00     0.344 C
HETATM   14  O2  UNL     1      -6.147   4.884   2.851  1.00  0.00    -0.259 OA
ATOM     15  H3  UNL     1      -4.778   1.971   2.550  1.00  0.00     0.191 HD
BRANCH  13  16
HETATM   16  C5  UNL     1      -4.878   3.671   4.337  1.00  0.00     0.404 C
HETATM   17  O3  UNL     1      -3.733   4.020   4.233  1.00  0.00    -0.244 OA
HETATM   18  N4  UNL     1      -5.744   3.182   5.190  1.00  0.00    -0.284 NA
BRANCH  18  19
HETATM   19  N5  UNL     1      -6.620   2.687   6.053  1.00  0.00    -0.276 N
ATOM     20  H52 UNL     1      -5.955   3.073   5.382  1.00  0.00     0.191 HD
ATOM     21  H51 UNL     1      -7.294   2.306   6.717  1.00  0.00     0.191 HD
ENDBRANCH  18  19
ENDBRANCH  13  16
ENDBRANCH  10  12
ENDBRANCH   4  10
BRANCH   1  22
HETATM   22  O1  UNL     1      -9.227  -0.383   1.653  1.00  0.00    -0.326 OA
HETATM   23  C1  UNL     1      -9.963  -0.208   2.827  1.00  0.00     0.213 C
ENDBRANCH   1  22
BRANCH   7  24
HETATM   24  N7  UNL     1      -9.384   2.511  -1.970  1.00  0.00    -0.234 N
ATOM     25  H72 UNL     1      -9.193   3.440  -2.344  1.00  0.00     0.174 HD
ATOM     26  H71 UNL     1     -10.067   1.892  -2.408  1.00  0.00     0.174 HD
ENDBRANCH   7  24
TORSDOF 6
ENDMDL