MODEL 3
REMARK VINA RESULT: -6.073373270      2.246      3.142
REMARK  5 active torsions:
REMARK  status: ('A' for Active; 'I' for Inactive)
REMARK    1  A    between atoms: N1_1  and  C1_4
REMARK    2  A    between atoms: C2_7  and  N3_8
REMARK    3  A    between atoms: N5_18  and  C6_19
REMARK    4  A    between atoms: C6_19  and  C7_20
REMARK    5  A    between atoms: C7_20  and  N6_21
ROOT
HETATM    1  C1  UNL     1      -5.726   3.236   2.350  1.00  0.00     0.679 A
HETATM    2  N2  UNL     1      -5.505   3.412   1.057  1.00  0.00    -0.176 N
ATOM      3  H2  UNL     1      -4.745   4.018   0.745  1.00  0.00     0.186 HD
HETATM    4  C2  UNL     1      -6.310   2.769   0.127  1.00  0.00     0.134 A
HETATM    5  C3  UNL     1      -7.321   1.964   0.594  1.00  0.00     0.121 A
HETATM    6  C4  UNL     1      -8.150   1.317  -0.295  1.00  0.00     0.267 A
HETATM    7  O1  UNL     1      -8.006   1.433  -1.531  1.00  0.00    -0.267 OA
HETATM    8  N4  UNL     1      -9.140   0.541   0.212  1.00  0.00    -0.274 N
ATOM      9  H4  UNL     1      -9.760   0.058  -0.438  1.00  0.00     0.173 HD
HETATM   10  C5  UNL     1      -9.341   0.381   1.511  1.00  0.00     0.334 A
HETATM   11  O2  UNL     1     -10.270  -0.348   1.925  1.00  0.00    -0.246 OA
HETATM   12  N5  UNL     1      -8.552   0.995   2.444  1.00  0.00    -0.261 N
HETATM   13  C8  UNL     1      -7.564   1.771   1.975  1.00  0.00     0.150 A
HETATM   14  N7  UNL     1      -6.724   2.442   2.783  1.00  0.00    -0.175 N
ATOM     15  H7  UNL     1      -6.850   2.342   3.790  1.00  0.00     0.186 HD
ENDROOT
BRANCH  12  16
HETATM   16  C6  UNL     1      -8.765   0.831   3.824  1.00  0.00     0.103 C
BRANCH  16  17
HETATM   17  C7  UNL     1      -9.726   1.665   4.556  1.00  0.00     0.274 C
BRANCH  17  18
HETATM   18  N6  UNL     1     -11.097   1.278   4.530  1.00  0.00    -0.075 N
ATOM     19  H63 UNL     1     -11.680   2.092   4.724  1.00  0.00     0.274 HD
ATOM     20  H62 UNL     1     -11.369   1.072   3.568  1.00  0.00     0.274 HD
ATOM     21  H61 UNL     1     -11.386   0.507   5.133  1.00  0.00     0.274 HD
ENDBRANCH  17  18
ENDBRANCH  16  17
ENDBRANCH  12  16
BRANCH   4  22
HETATM   22  N3  UNL     1      -6.061   2.966  -1.061  1.00  0.00    -0.384 N
ATOM     23  H32 UNL     1      -5.131   2.927  -1.476  1.00  0.00     0.157 HD
ATOM     24  H31 UNL     1      -6.850   3.185  -1.671  1.00  0.00     0.157 HD
ENDBRANCH   4  22
BRANCH   1  25
HETATM   25  N1  UNL     1      -4.962   3.848   3.222  1.00  0.00    -0.234 N
ATOM     26  H12 UNL     1      -5.344   4.109   4.131  1.00  0.00     0.174 HD
ATOM     27  H11 UNL     1      -3.993   4.055   2.978  1.00  0.00     0.174 HD
ENDBRANCH   1  25
TORSDOF 5
ENDMDL