MODEL 5
REMARK VINA RESULT: -5.215154873      1.527      5.252
REMARK  4 active torsions:
REMARK  status: ('A' for Active; 'I' for Inactive)
REMARK    1  A    between atoms: N1_1  and  C1_4
REMARK    2  A    between atoms: N3_8  and  C3_10
REMARK    3  A    between atoms: C3_10  and  C4_11
REMARK    4  A    between atoms: C4_11  and  N4_12
REMARK       I    between atoms: N7_23  and  C8_24
REMARK       I    between atoms: C8_24  and  N8_25
REMARK       I    between atoms: C8_24  and  N9_29
ROOT
HETATM    1  C1  UNL     1      -6.872   2.980  -0.129  1.00  0.00     0.145 A
HETATM    2  N2  UNL     1      -8.161   2.839  -0.391  1.00  0.00    -0.175 N
ATOM      3  H2  UNL     1      -8.507   3.143  -1.301  1.00  0.00     0.186 HD
HETATM    4  C2  UNL     1      -9.029   2.318   0.475  1.00  0.00     0.681 A
HETATM    5  N3  UNL     1     -10.284   2.177   0.228  1.00  0.00    -0.224 N
ATOM      6  H3  UNL     1     -10.858   1.766   0.964  1.00  0.00     0.177 HD
HETATM    7  N5  UNL     1      -8.591   1.912   1.680  1.00  0.00    -0.174 N
ATOM      8  H5  UNL     1      -9.250   1.513   2.347  1.00  0.00     0.186 HD
HETATM    9  C5  UNL     1      -7.277   2.029   2.016  1.00  0.00     0.158 A
HETATM   10  C6  UNL     1      -6.391   2.570   1.106  1.00  0.00     0.123 A
HETATM   11  N6  UNL     1      -5.154   2.586   1.654  1.00  0.00    -0.346 N
ATOM     12  H6  UNL     1      -4.298   2.930   1.220  1.00  0.00     0.167 HD
HETATM   13  C7  UNL     1      -5.279   2.065   2.876  1.00  0.00     0.189 A
HETATM   14  N7  UNL     1      -6.560   1.726   3.101  1.00  0.00    -0.276 N
HETATM   15  C8  UNL     1      -7.049   1.135   4.320  1.00  0.00     0.489 C
HETATM   16  N8  UNL     1      -7.783   2.108   5.104  1.00  0.00    -0.032 N
ATOM     17  H81 UNL     1      -8.130   1.690   5.967  1.00  0.00     0.279 HD
ATOM     18  H82 UNL     1      -8.535   2.538   4.564  1.00  0.00     0.279 HD
ATOM     19  H83 UNL     1      -7.227   2.944   5.286  1.00  0.00     0.279 HD
HETATM   20  N9  UNL     1      -5.984   0.627   5.151  1.00  0.00    -0.032 N
ATOM     21  H91 UNL     1      -6.330   0.209   6.014  1.00  0.00     0.279 HD
ATOM     22  H92 UNL     1      -5.292   1.352   5.345  1.00  0.00     0.279 HD
ATOM     23  H93 UNL     1      -5.395  -0.027   4.635  1.00  0.00     0.279 HD
ENDROOT
BRANCH   1  24
HETATM   24  N1  UNL     1      -6.069   3.485  -0.989  1.00  0.00    -0.383 N
ATOM     25  H12 UNL     1      -5.070   3.289  -0.925  1.00  0.00     0.157 HD
ATOM     26  H11 UNL     1      -6.406   4.084  -1.742  1.00  0.00     0.157 HD
ENDBRANCH   1  24
BRANCH   5  27
HETATM   27  C3  UNL     1     -10.945   2.540  -0.979  1.00  0.00     0.165 C
BRANCH  27  28
HETATM   28  C4  UNL     1     -11.938   3.683  -0.730  1.00  0.00     0.249 C
BRANCH  28  29
HETATM   29  N4  UNL     1     -11.239   4.865  -0.306  1.00  0.00    -0.078 N
ATOM     30  H43 UNL     1     -11.230   4.958   0.710  1.00  0.00     0.274 HD
ATOM     31  H42 UNL     1     -10.233   4.788  -0.460  1.00  0.00     0.274 HD
ATOM     32  H41 UNL     1     -11.632   5.689  -0.760  1.00  0.00     0.274 HD
ENDBRANCH  28  29
ENDBRANCH  27  28
ENDBRANCH   5  27
TORSDOF 4
ENDMDL