MODEL 5
REMARK VINA RESULT: -5.776637328      1.665      3.190
REMARK  8 active torsions:
REMARK  status: ('A' for Active; 'I' for Inactive)
REMARK    1  A    between atoms: N1_2  and  N2_3
REMARK    2  A    between atoms: N2_3  and  C2_5
REMARK    3  A    between atoms: C2_5  and  O1_6
REMARK    4  A    between atoms: C2_5  and  C3_8
REMARK    5  A    between atoms: C3_8  and  N3_9
REMARK    6  A    between atoms: N3_9  and  N4_11
REMARK    7  A    between atoms: N4_11  and  C4_12
REMARK    8  A    between atoms: C5_15  and  N6_16
ROOT
HETATM    1  C4  UNL     1      -6.542   3.366   0.817  1.00  0.00     0.299 A
HETATM    2  N5  UNL     1      -7.292   4.557   0.898  1.00  0.00    -0.147 N
ATOM      3  H5  UNL     1      -7.970   4.766   0.165  1.00  0.00     0.188 HD
HETATM    4  C5  UNL     1      -7.132   5.442   1.934  1.00  0.00     0.683 A
HETATM    5  N7  UNL     1      -6.261   5.220   2.916  1.00  0.00    -0.141 N
ATOM      6  H7  UNL     1      -6.159   5.878   3.690  1.00  0.00     0.189 HD
HETATM    7  C6  UNL     1      -5.500   4.070   2.852  1.00  0.00     0.342 A
HETATM    8  O2  UNL     1      -4.619   3.774   3.686  1.00  0.00    -0.246 OA
HETATM    9  N8  UNL     1      -5.662   3.216   1.848  1.00  0.00    -0.266 N
ATOM     10  H8  UNL     1      -5.081   2.378   1.847  1.00  0.00     0.174 HD
ENDROOT
BRANCH   1  11
HETATM   11  N4  UNL     1      -6.779   2.588   0.016  1.00  0.00    -0.287 NA
BRANCH  11  12
HETATM   12  N3  UNL     1      -7.063   1.686  -0.907  1.00  0.00    -0.239 N
ATOM     13  H3  UNL     1      -6.410   1.106  -1.432  1.00  0.00     0.201 HD
BRANCH  12  14
HETATM   14  C3  UNL     1      -8.409   1.701  -1.002  1.00  0.00     0.177 C
BRANCH  14  15
HETATM   15  C2  UNL     1      -9.183   2.747  -1.465  1.00  0.00     0.170 C
BRANCH  15  16
HETATM   16  N2  UNL     1     -10.578   2.695  -1.233  1.00  0.00    -0.283 N
ATOM     17  H2  UNL     1     -11.379   2.150  -1.553  1.00  0.00     0.184 HD
BRANCH  16  18
HETATM   18  N1  UNL     1     -10.252   4.080  -0.080  1.00  0.00    -0.144 NA
HETATM   19  C1  UNL     1     -11.638   4.555  -0.161  1.00  0.00     0.159 C
ENDBRANCH  16  18
ENDBRANCH  15  16
BRANCH  15  20
HETATM   20  O1  UNL     1      -8.552   3.701  -2.099  1.00  0.00    -0.344 OA
ATOM     21  H1  UNL     1      -7.608   3.810  -2.137  1.00  0.00     0.219 HD
ENDBRANCH  15  20
ENDBRANCH  14  15
ENDBRANCH  12  14
ENDBRANCH  11  12
ENDBRANCH   1  11
BRANCH   4  22
HETATM   22  N6  UNL     1      -7.893   6.472   1.992  1.00  0.00    -0.234 N
ATOM     23  H62 UNL     1      -7.600   7.277   2.544  1.00  0.00     0.174 HD
ATOM     24  H61 UNL     1      -8.802   6.440   1.531  1.00  0.00     0.174 HD
ENDBRANCH   4  22
TORSDOF 8
ENDMDL