MODEL 4
REMARK VINA RESULT: -5.921922223      1.875      4.112
REMARK  4 active torsions:
REMARK  status: ('A' for Active; 'I' for Inactive)
REMARK    1  A    between atoms: C3_8  and  N4_9
REMARK    2  A    between atoms: N4_9  and  N5_11
REMARK    3  A    between atoms: N5_11  and  C4_13
REMARK    4  A    between atoms: N6_14  and  N7_16
REMARK       I    between atoms: N7_16  and  C5_18
ROOT
HETATM    1  N1  UNL     1      -4.117   1.921   6.782  1.00  0.00    -0.190 NA
HETATM    2  C1  UNL     1      -4.619   1.847   5.738  1.00  0.00     0.123 C
HETATM    3  C2  UNL     1      -5.258   1.766   4.443  1.00  0.00     0.173 A
HETATM    4  N2  UNL     1      -6.052   0.733   4.112  1.00  0.00    -0.273 N
ATOM      5  H2  UNL     1      -6.211  -0.014   4.788  1.00  0.00     0.188 HD
HETATM    6  N3  UNL     1      -6.630   0.670   2.925  1.00  0.00    -0.130 N
ATOM      7  H3  UNL     1      -7.225  -0.133   2.719  1.00  0.00     0.205 HD
HETATM    8  C3  UNL     1      -6.477   1.608   1.977  1.00  0.00     0.713 A
HETATM    9  N10 UNL     1      -5.693   2.656   2.265  1.00  0.00    -0.171 N
ATOM     10  H10 UNL     1      -5.551   3.390   1.571  1.00  0.00     0.186 HD
HETATM   11  C6  UNL     1      -5.082   2.744   3.486  1.00  0.00     0.154 A
HETATM   12  N11 UNL     1      -4.329   3.744   3.773  1.00  0.00    -0.383 N
ATOM     13 1H11 UNL     1      -4.199   4.467   3.066  1.00  0.00     0.157 HD
ATOM     14 2H11 UNL     1      -3.874   3.809   4.684  1.00  0.00     0.157 HD
ENDROOT
BRANCH   8  15
HETATM   15  N4  UNL     1      -7.074   1.495   0.816  1.00  0.00    -0.130 N
ATOM     16  H4  UNL     1      -6.850   0.728   0.182  1.00  0.00     0.205 HD
BRANCH  15  17
HETATM   17  N5  UNL     1      -8.029   2.457   0.470  1.00  0.00    -0.281 N
ATOM     18  H5  UNL     1      -8.938   2.422   0.930  1.00  0.00     0.188 HD
BRANCH  17  19
HETATM   19  C4  UNL     1      -7.799   3.478  -0.489  1.00  0.00     0.214 C
HETATM   20  N6  UNL     1      -7.806   4.693  -0.120  1.00  0.00    -0.293 N
ATOM     21  H6  UNL     1      -7.639   5.417  -0.818  1.00  0.00     0.187 HD
BRANCH  20  22
HETATM   22  N7  UNL     1      -8.034   5.080   1.205  1.00  0.00    -0.273 N
HETATM   23  C5  UNL     1      -7.215   6.086   1.784  1.00  0.00     0.200 C
HETATM   24  N8  UNL     1      -7.040   7.231   1.212  1.00  0.00    -0.372 N
HETATM   25  N9  UNL     1      -6.543   5.870   3.037  1.00  0.00    -0.062 NA
ATOM     26  H82 UNL     1      -7.516   7.384   0.323  1.00  0.00     0.158 HD
ATOM     27  H81 UNL     1      -6.452   7.953   1.628  1.00  0.00     0.158 HD
ATOM     28  H7  UNL     1      -8.779   4.644   1.748  1.00  0.00     0.189 HD
ENDBRANCH  20  22
ENDBRANCH  17  19
ENDBRANCH  15  17
ENDBRANCH   8  15
TORSDOF 4
ENDMDL