MODEL 2
REMARK VINA RESULT: -6.114688223      2.526      4.582
REMARK  5 active torsions:
REMARK  status: ('A' for Active; 'I' for Inactive)
REMARK    1  A    between atoms: N1_1  and  C1_4
REMARK    2  A    between atoms: C2_7  and  C3_8
REMARK    3  A    between atoms: N6_17  and  C5_18
REMARK    4  A    between atoms: C5_18  and  C6_19
REMARK    5  A    between atoms: C6_19  and  O2_20
ROOT
HETATM    1  C1  UNL     1      -7.125   0.806   2.365  1.00  0.00     0.681 A
HETATM    2  N2  UNL     1      -6.986   2.108   2.146  1.00  0.00    -0.172 N
ATOM      3  H2  UNL     1      -6.262   2.626   2.643  1.00  0.00     0.186 HD
HETATM    4  C2  UNL     1      -7.807   2.771   1.256  1.00  0.00     0.177 A
HETATM    5  N6  UNL     1      -8.750   2.073   0.617  1.00  0.00    -0.258 N
HETATM    6  C7  UNL     1      -8.874   0.725   0.860  1.00  0.00     0.346 A
HETATM    7  O3  UNL     1      -9.768   0.136   0.236  1.00  0.00    -0.246 OA
HETATM    8  N7  UNL     1      -8.085   0.092   1.714  1.00  0.00    -0.141 N
ATOM      9  H7  UNL     1      -8.193  -0.908   1.880  1.00  0.00     0.189 HD
ENDROOT
BRANCH   4  10
HETATM   10  C3  UNL     1      -7.523   4.188   1.134  1.00  0.00     0.170 A
HETATM   11  N3  UNL     1      -6.894   4.816   0.144  1.00  0.00    -0.278 N
HETATM   12  N4  UNL     1      -6.815   6.114   0.369  1.00  0.00    -0.250 N
ATOM     13  H3  UNL     1      -6.520   4.353  -0.684  1.00  0.00     0.189 HD
HETATM   14  C4  UNL     1      -7.408   6.362   1.543  1.00  0.00     0.340 A
ATOM     15  H4  UNL     1      -6.380   6.804  -0.243  1.00  0.00     0.192 HD
HETATM   16  O1  UNL     1      -7.514   7.495   2.064  1.00  0.00    -0.245 OA
HETATM   17  N5  UNL     1      -7.839   5.175   2.005  1.00  0.00    -0.289 N
ATOM     18  H5  UNL     1      -8.333   5.038   2.886  1.00  0.00     0.172 HD
ENDBRANCH   4  10
BRANCH   5  19
HETATM   19  C5  UNL     1      -9.604   2.703  -0.299  1.00  0.00     0.102 C
BRANCH  19  20
HETATM   20  C6  UNL     1      -9.344   2.676  -1.739  1.00  0.00     0.209 C
BRANCH  20  21
HETATM   21  O2  UNL     1      -8.697   3.892  -2.079  1.00  0.00    -0.396 OA
ATOM     22  H2  UNL     1      -8.097   3.707  -2.791  1.00  0.00     0.209 HD
ENDBRANCH  20  21
ENDBRANCH  19  20
ENDBRANCH   5  19
BRANCH   1  23
HETATM   23  N1  UNL     1      -6.364   0.155   3.198  1.00  0.00    -0.234 N
ATOM     24  H12 UNL     1      -6.698   0.059   4.157  1.00  0.00     0.174 HD
ATOM     25  H11 UNL     1      -5.469  -0.247   2.919  1.00  0.00     0.174 HD
ENDBRANCH   1  23
TORSDOF 5
ENDMDL