MODEL 5
REMARK VINA RESULT: -4.547214053      2.486      3.702
REMARK  5 active torsions:
REMARK  status: ('A' for Active; 'I' for Inactive)
REMARK    1  A    between atoms: N1_2  and  C3_4
REMARK    2  A    between atoms: C5_10  and  N4_11
REMARK    3  A    between atoms: C6_14  and  N5_15
REMARK    4  A    between atoms: N5_15  and  N6_16
REMARK    5  A    between atoms: N5_15  and  O1_19
ROOT
HETATM    1  C3  UNL     1     -14.094 -26.867 -25.440  1.00  0.00     0.133 A
HETATM    2  N2  UNL     1     -12.799 -26.831 -25.883  1.00  0.00    -0.337 N
ATOM      3  H2  UNL     1     -12.169 -26.121 -25.512  1.00  0.00     0.168 HD
HETATM    4  C4  UNL     1     -12.338 -27.701 -26.787  1.00  0.00     0.183 A
HETATM    5  N3  UNL     1     -13.170 -28.633 -27.268  1.00  0.00    -0.337 N
ATOM      6  H3  UNL     1     -12.816 -29.296 -27.958  1.00  0.00     0.168 HD
HETATM    7  C5  UNL     1     -14.484 -28.731 -26.870  1.00  0.00     0.129 A
HETATM    8  C6  UNL     1     -14.953 -27.841 -25.945  1.00  0.00     0.146 A
ENDROOT
BRANCH   8   9
HETATM    9  N5  UNL     1     -16.287 -27.888 -25.451  1.00  0.00    -0.070 NA
BRANCH   9  10
HETATM   10  N6  UNL     1     -17.166 -27.651 -26.505  1.00  0.00    -0.336 NA
ATOM     11  H62 UNL     1     -17.767 -26.869 -26.247  1.00  0.00     0.173 HD
ATOM     12  H61 UNL     1     -17.715 -28.494 -26.672  1.00  0.00     0.173 HD
ENDBRANCH   9  10
BRANCH   9  13
HETATM   13  O1  UNL     1     -16.574 -29.127 -24.925  1.00  0.00    -0.289 OA
ATOM     14  H1  UNL     1     -16.141 -29.250 -24.088  1.00  0.00     0.239 HD
ENDBRANCH   9  13
ENDBRANCH   8   9
BRANCH   1  15
HETATM   15  N1  UNL     1     -14.546 -25.899 -24.503  1.00  0.00    -0.374 N
HETATM   16  C1  UNL     1     -15.049 -24.630 -24.987  1.00  0.00     0.150 C
HETATM   17  C2  UNL     1     -14.525 -26.136 -23.079  1.00  0.00     0.150 C
ENDBRANCH   1  15
BRANCH   7  18
HETATM   18  N4  UNL     1     -15.228 -29.632 -27.370  1.00  0.00    -0.384 N
ATOM     19  H42 UNL     1     -15.344 -29.734 -28.378  1.00  0.00     0.157 HD
ATOM     20  H41 UNL     1     -15.722 -30.278 -26.755  1.00  0.00     0.157 HD
ENDBRANCH   7  18
TORSDOF 5
ENDMDL