MODEL 1
REMARK VINA RESULT: -6.724852100      0.000      0.000
REMARK  3 active torsions:
REMARK  status: ('A' for Active; 'I' for Inactive)
REMARK    1  A    between atoms: C2_5  and  C3_6
REMARK       I    between atoms: C3_6  and  N3_8
REMARK    2  A    between atoms: N3_8  and  N4_10
REMARK    3  A    between atoms: N4_10  and  C4_12
ROOT
HETATM    1  C3  UNL     1     -13.321 -29.154 -27.543  1.00  0.00     0.307 C
HETATM    2  O1  UNL     1     -12.718 -28.577 -28.494  1.00  0.00    -0.262 OA
HETATM    3  N3  UNL     1     -12.736 -30.283 -26.945  1.00  0.00    -0.249 N
ATOM      4  H3  UNL     1     -13.212 -30.757 -26.178  1.00  0.00     0.191 HD
ENDROOT
BRANCH   3   5
HETATM    5  N4  UNL     1     -11.506 -30.759 -27.399  1.00  0.00    -0.127 N
ATOM      6  H4  UNL     1     -11.485 -31.488 -28.112  1.00  0.00     0.206 HD
BRANCH   5   7
HETATM    7  C4  UNL     1     -10.386 -30.291 -26.934  1.00  0.00     0.725 A
HETATM    8  N5  UNL     1      -9.747 -30.745 -25.844  1.00  0.00    -0.112 N
HETATM    9  N6  UNL     1      -8.652 -30.000 -25.717  1.00  0.00     0.009 NA
ATOM     10  H5  UNL     1     -10.041 -31.508 -25.236  1.00  0.00     0.203 HD
HETATM   11  N7  UNL     1      -8.585 -29.103 -26.686  1.00  0.00    -0.211 N
HETATM   12  N8  UNL     1      -9.658 -29.289 -27.432  1.00  0.00    -0.117 N
ATOM     13  H7  UNL     1      -7.852 -28.408 -26.829  1.00  0.00     0.206 HD
ATOM     14  H8  UNL     1      -9.896 -28.748 -28.264  1.00  0.00     0.207 HD
ENDBRANCH   5   7
ENDBRANCH   3   5
BRANCH   1  15
HETATM   15  C2  UNL     1     -14.621 -28.651 -27.064  1.00  0.00     0.208 A
HETATM   16  N2  UNL     1     -15.890 -28.575 -27.503  1.00  0.00    -0.263 N
HETATM   17  N1  UNL     1     -16.299 -27.978 -26.397  1.00  0.00    -0.235 N
ATOM     18  H2  UNL     1     -16.357 -28.867 -28.361  1.00  0.00     0.190 HD
HETATM   19  C1  UNL     1     -17.552 -27.457 -25.857  1.00  0.00     0.200 C
HETATM   20  N9  UNL     1     -15.065 -28.043 -25.952  1.00  0.00    -0.263 N
ATOM     21  H9  UNL     1     -14.613 -27.745 -25.087  1.00  0.00     0.190 HD
ENDBRANCH   1  15
TORSDOF 3
ENDMDL