MODEL 4
REMARK VINA RESULT: -6.585826237      1.341      1.401
REMARK  3 active torsions:
REMARK  status: ('A' for Active; 'I' for Inactive)
REMARK    1  A    between atoms: N3_9  and  N4_11
REMARK    2  A    between atoms: N7_17  and  N8_18
REMARK    3  A    between atoms: N8_18  and  O1_20
ROOT
HETATM    1  N1  UNL     1     -10.289 -30.545 -26.298  1.00  0.00    -0.233 N
ATOM      2  H11 UNL     1      -9.664 -31.048 -26.927  1.00  0.00     0.174 HD
ATOM      3  H12 UNL     1     -10.170 -30.701 -25.297  1.00  0.00     0.174 HD
HETATM    4  C1  UNL     1     -11.176 -29.757 -26.794  1.00  0.00     0.690 C
HETATM    5  N2  UNL     1     -12.060 -29.044 -25.903  1.00  0.00    -0.220 N
ATOM      6  H2  UNL     1     -12.061 -29.218 -24.898  1.00  0.00     0.178 HD
HETATM    7  C2  UNL     1     -12.946 -28.072 -26.505  1.00  0.00     0.194 C
HETATM    8  C3  UNL     1     -13.498 -28.604 -27.756  1.00  0.00     0.042 C
HETATM    9  N3  UNL     1     -14.748 -28.650 -27.951  1.00  0.00    -0.303 N
ATOM     10  H3  UNL     1     -15.124 -29.022 -28.823  1.00  0.00     0.186 HD
HETATM   11  C5  UNL     1     -12.573 -29.088 -28.790  1.00  0.00     0.225 C
HETATM   12  N7  UNL     1     -11.341 -29.542 -28.174  1.00  0.00    -0.100 N
ENDROOT
BRANCH   9  13
HETATM   13  N4  UNL     1     -15.604 -28.184 -26.952  1.00  0.00    -0.276 N
HETATM   14  C4  UNL     1     -16.404 -28.970 -26.339  1.00  0.00     0.215 C
HETATM   15  N5  UNL     1     -16.452 -30.353 -26.654  1.00  0.00    -0.065 NA
HETATM   16  N6  UNL     1     -17.261 -28.483 -25.333  1.00  0.00    -0.065 NA
ATOM     17  H4  UNL     1     -15.590 -27.194 -26.705  1.00  0.00     0.189 HD
ENDBRANCH   9  13
BRANCH  12  18
HETATM   18  N8  UNL     1     -10.236 -29.786 -29.013  1.00  0.00    -0.193 N
ATOM     19  H8  UNL     1      -9.294 -29.660 -28.643  1.00  0.00     0.216 HD
BRANCH  18  20
HETATM   20  O1  UNL     1     -10.378 -30.151 -30.195  1.00  0.00    -0.274 OA
ATOM     21  H1  UNL     1      -9.880 -30.873 -30.558  1.00  0.00     0.246 HD
ENDBRANCH  18  20
ENDBRANCH  12  18
TORSDOF 3
ENDMDL