MODEL 3
REMARK VINA RESULT: -6.453626481      1.881      2.702
REMARK  4 active torsions:
REMARK  status: ('A' for Active; 'I' for Inactive)
REMARK    1  A    between atoms: N1_1  and  N2_4
REMARK    2  A    between atoms: N2_4  and  C1_6
REMARK    3  A    between atoms: C3_8  and  C4_9
REMARK       I    between atoms: C4_9  and  N3_11
REMARK    4  A    between atoms: N3_11  and  N4_13
ROOT
HETATM    1  C1  UNL     1     -10.063 -29.902 -26.172  1.00  0.00     0.137 A
HETATM    2  C2  UNL     1     -11.360 -30.203 -26.534  1.00  0.00     0.088 A
HETATM    3  C3  UNL     1     -12.261 -29.144 -26.554  1.00  0.00     0.122 A
HETATM    4  N5  UNL     1     -11.773 -27.941 -26.218  1.00  0.00    -0.281 N
ATOM      5  H5  UNL     1     -12.423 -27.154 -26.228  1.00  0.00     0.188 HD
HETATM    6  N6  UNL     1     -10.531 -27.690 -25.877  1.00  0.00    -0.241 N
ATOM      7  H6  UNL     1     -10.250 -26.739 -25.637  1.00  0.00     0.208 HD
HETATM    8  N7  UNL     1      -9.645 -28.670 -25.847  1.00  0.00    -0.270 N
ATOM      9  H7  UNL     1      -8.675 -28.495 -25.584  1.00  0.00     0.190 HD
ENDROOT
BRANCH   3  10
HETATM   10  C4  UNL     1     -13.659 -29.343 -26.923  1.00  0.00     0.287 C
HETATM   11  O1  UNL     1     -14.104 -30.514 -26.865  1.00  0.00    -0.264 OA
HETATM   12  N3  UNL     1     -14.504 -28.286 -27.332  1.00  0.00    -0.271 N
ATOM     13  H3  UNL     1     -14.150 -27.331 -27.382  1.00  0.00     0.189 HD
BRANCH  12  14
HETATM   14  N4  UNL     1     -15.830 -28.567 -27.668  1.00  0.00    -0.342 N
ATOM     15  H42 UNL     1     -16.409 -27.835 -28.081  1.00  0.00     0.176 HD
ATOM     16  H41 UNL     1     -16.197 -29.503 -27.495  1.00  0.00     0.176 HD
ENDBRANCH  12  14
ENDBRANCH   3  10
BRANCH   1  17
HETATM   17  N2  UNL     1      -9.204 -30.866 -26.145  1.00  0.00    -0.291 N
ATOM     18  H2  UNL     1      -8.679 -31.084 -26.992  1.00  0.00     0.188 HD
BRANCH  17  19
HETATM   19  N1  UNL     1      -8.971 -31.614 -24.999  1.00  0.00    -0.344 N
ATOM     20  H12 UNL     1      -8.273 -31.272 -24.338  1.00  0.00     0.176 HD
ATOM     21  H11 UNL     1      -9.473 -32.481 -24.808  1.00  0.00     0.176 HD
ENDBRANCH  17  19
ENDBRANCH   1  17
TORSDOF 4
ENDMDL