MODEL 3
REMARK VINA RESULT: -6.463817126      1.854      1.854
REMARK  4 active torsions:
REMARK  status: ('A' for Active; 'I' for Inactive)
REMARK    1  A    between atoms: N1_1  and  C1_4
REMARK    2  A    between atoms: C2_7  and  C3_8
REMARK       I    between atoms: C3_8  and  N3_10
REMARK    3  A    between atoms: N3_10  and  N4_12
REMARK    4  A    between atoms: N6_17  and  O2_18
ROOT
HETATM    1  C1  UNL     1     -10.144 -30.041 -26.776  1.00  0.00     0.695 A
HETATM    2  N2  UNL     1     -11.200 -29.300 -26.392  1.00  0.00    -0.169 N
ATOM      3  H2  UNL     1     -11.358 -29.160 -25.395  1.00  0.00     0.186 HD
HETATM    4  C2  UNL     1     -12.055 -28.738 -27.262  1.00  0.00     0.208 A
HETATM    5  N5  UNL     1     -11.816 -28.945 -28.566  1.00  0.00    -0.238 N
ATOM      6  H5  UNL     1     -12.442 -28.535 -29.259  1.00  0.00     0.193 HD
HETATM    7  N6  UNL     1     -10.787 -29.668 -28.972  1.00  0.00    -0.079 N
HETATM    8  N7  UNL     1      -9.954 -30.214 -28.097  1.00  0.00    -0.090 N
ATOM      9  H7  UNL     1      -9.164 -30.769 -28.427  1.00  0.00     0.210 HD
ENDROOT
BRANCH   4  10
HETATM   10  C3  UNL     1     -13.185 -27.943 -26.788  1.00  0.00     0.305 C
HETATM   11  O1  UNL     1     -14.330 -28.102 -27.231  1.00  0.00    -0.263 OA
HETATM   12  N3  UNL     1     -12.972 -26.962 -25.792  1.00  0.00    -0.270 N
ATOM     13  H3  UNL     1     -12.027 -26.835 -25.429  1.00  0.00     0.189 HD
BRANCH  12  14
HETATM   14  N4  UNL     1     -13.991 -26.162 -25.283  1.00  0.00    -0.342 N
ATOM     15  H42 UNL     1     -14.367 -25.436 -25.892  1.00  0.00     0.176 HD
ATOM     16  H41 UNL     1     -14.369 -26.273 -24.342  1.00  0.00     0.176 HD
ENDBRANCH  12  14
ENDBRANCH   4  10
BRANCH   1  17
HETATM   17  N1  UNL     1      -9.322 -30.581 -25.912  1.00  0.00    -0.233 N
ATOM     18  H12 UNL     1      -9.506 -31.511 -25.534  1.00  0.00     0.174 HD
ATOM     19  H11 UNL     1      -8.481 -30.101 -25.591  1.00  0.00     0.174 HD
ENDBRANCH   1  17
BRANCH   7  20
HETATM   20  O2  UNL     1     -10.546 -29.876 -30.327  1.00  0.00    -0.253 OA
ATOM     21  H2  UNL     1     -10.030 -30.616 -30.625  1.00  0.00     0.248 HD
ENDBRANCH   7  20
TORSDOF 4
ENDMDL