MODEL 1
REMARK VINA RESULT: -6.308610340      0.000      0.000
REMARK  2 active torsions:
REMARK  status: ('A' for Active; 'I' for Inactive)
REMARK    1  A    between atoms: C1_2  and  C2_4
REMARK    2  A    between atoms: N4_9  and  N5_10
ROOT
HETATM    1  C2  UNL     1     -10.825 -29.807 -27.061  1.00  0.00     0.143 A
HETATM    2  N2  UNL     1     -11.886 -30.291 -26.372  1.00  0.00    -0.321 N
ATOM      3  H2  UNL     1     -11.722 -30.932 -25.596  1.00  0.00     0.169 HD
HETATM    4  C3  UNL     1     -13.127 -29.954 -26.680  1.00  0.00     0.230 A
HETATM    5  N3  UNL     1     -14.271 -30.451 -25.968  1.00  0.00    -0.060 NA
HETATM    6  N4  UNL     1     -13.352 -29.108 -27.699  1.00  0.00    -0.170 N
HETATM    7  N6  UNL     1     -12.337 -28.620 -28.390  1.00  0.00    -0.262 N
ATOM      8  H6  UNL     1     -12.524 -27.979 -29.162  1.00  0.00     0.190 HD
HETATM    9  C4  UNL     1     -11.068 -28.943 -28.103  1.00  0.00     0.164 A
HETATM   10  N7  UNL     1      -9.986 -28.389 -28.880  1.00  0.00    -0.079 NA
ENDROOT
BRANCH   1  11
HETATM   11  C1  UNL     1      -9.460 -30.165 -26.740  1.00  0.00     0.284 C
HETATM   12  N1  UNL     1      -8.761 -29.483 -25.722  1.00  0.00    -0.056 NA
HETATM   13  O1  UNL     1      -8.888 -31.082 -27.362  1.00  0.00    -0.269 OA
ENDBRANCH   1  11
BRANCH   6  14
HETATM   14  N5  UNL     1     -14.667 -28.731 -28.050  1.00  0.00    -0.321 N
ATOM     15  H52 UNL     1     -15.434 -29.379 -27.870  1.00  0.00     0.179 HD
ATOM     16  H51 UNL     1     -14.854 -27.823 -28.476  1.00  0.00     0.179 HD
ENDBRANCH   6  14
TORSDOF 2
ENDMDL