MODEL 4
REMARK VINA RESULT: -6.669150352      2.081      3.165
REMARK  2 active torsions:
REMARK  status: ('A' for Active; 'I' for Inactive)
REMARK       I    between atoms: C1_4  and  N3_6
REMARK    1  A    between atoms: N3_6  and  C2_8
REMARK    2  A    between atoms: N7_14  and  N8_15
ROOT
HETATM    1  C2  UNL     1     -11.012 -29.436 -27.441  1.00  0.00     0.735 A
HETATM    2  N4  UNL     1     -10.269 -28.620 -28.236  1.00  0.00    -0.116 N
ATOM      3  H4  UNL     1      -9.263 -28.460 -28.178  1.00  0.00     0.207 HD
HETATM    4  N5  UNL     1     -11.107 -28.077 -29.096  1.00  0.00    -0.210 N
ATOM      5  H5  UNL     1     -10.846 -27.416 -29.827  1.00  0.00     0.206 HD
HETATM    6  N6  UNL     1     -12.334 -28.514 -28.876  1.00  0.00     0.034 NA
HETATM    7  N7  UNL     1     -12.284 -29.356 -27.853  1.00  0.00     0.013 N
ENDROOT
BRANCH   1   8
HETATM    8  N3  UNL     1     -10.558 -30.161 -26.459  1.00  0.00    -0.160 N
HETATM    9  C1  UNL     1      -9.178 -30.324 -26.252  1.00  0.00     0.200 C
HETATM   10  N1  UNL     1      -8.491 -31.299 -26.764  1.00  0.00    -0.373 N
HETATM   11  N2  UNL     1      -8.478 -29.382 -25.436  1.00  0.00    -0.063 NA
ATOM     12  H12 UNL     1      -7.488 -31.418 -26.614  1.00  0.00     0.158 HD
ATOM     13  H11 UNL     1      -8.990 -31.971 -27.347  1.00  0.00     0.158 HD
ATOM     14  H3  UNL     1     -11.217 -30.619 -25.828  1.00  0.00     0.187 HD
ENDBRANCH   1   8
BRANCH   7  15
HETATM   15  N8  UNL     1     -13.410 -30.012 -27.344  1.00  0.00    -0.095 N
HETATM   16  C3  UNL     1     -14.552 -29.430 -27.363  1.00  0.00     0.728 A
HETATM   17  N9  UNL     1     -15.858 -29.585 -27.033  1.00  0.00    -0.115 N
HETATM   18  N10 UNL     1     -15.454 -28.442 -27.605  1.00  0.00    -0.115 N
ATOM     19  H9  UNL     1     -16.605 -30.155 -26.638  1.00  0.00     0.206 HD
ATOM     20  H10 UNL     1     -15.669 -27.511 -27.961  1.00  0.00     0.206 HD
ATOM     21  H8  UNL     1     -13.321 -30.952 -26.958  1.00  0.00     0.208 HD
ENDBRANCH   7  15
TORSDOF 2
ENDMDL