MODEL 3
REMARK VINA RESULT: -6.113418004      1.837      4.714
REMARK  4 active torsions:
REMARK  status: ('A' for Active; 'I' for Inactive)
REMARK    1  A    between atoms: C2_7  and  C3_8
REMARK       I    between atoms: C3_8  and  N3_10
REMARK    2  A    between atoms: N3_10  and  N4_12
REMARK    3  A    between atoms: N5_15  and  O2_16
REMARK    4  A    between atoms: N6_19  and  O3_20
ROOT
HETATM    1  N1  UNL     1     -10.048 -28.128 -28.482  1.00  0.00    -0.232 N
ATOM      2  H11 UNL     1      -9.146 -28.572 -28.658  1.00  0.00     0.174 HD
ATOM      3  H12 UNL     1     -10.208 -27.163 -28.770  1.00  0.00     0.174 HD
HETATM    4  C1  UNL     1     -11.005 -28.763 -27.898  1.00  0.00     0.705 A
HETATM    5  N2  UNL     1     -12.208 -28.171 -27.665  1.00  0.00    -0.167 N
ATOM      6  H2  UNL     1     -12.347 -27.204 -27.961  1.00  0.00     0.186 HD
HETATM    7  C2  UNL     1     -13.220 -28.813 -27.057  1.00  0.00     0.218 A
HETATM    8  N5  UNL     1     -13.008 -30.090 -26.677  1.00  0.00    -0.195 N
HETATM    9  C4  UNL     1     -11.806 -30.668 -26.915  1.00  0.00     0.266 A
HETATM   10  N6  UNL     1     -10.795 -30.027 -27.521  1.00  0.00    -0.046 N
ENDROOT
BRANCH   7  11
HETATM   11  C3  UNL     1     -14.505 -28.175 -26.810  1.00  0.00     0.306 C
HETATM   12  O1  UNL     1     -14.628 -27.115 -26.149  1.00  0.00    -0.263 OA
HETATM   13  N3  UNL     1     -15.690 -28.761 -27.333  1.00  0.00    -0.270 N
ATOM     14  H3  UNL     1     -15.616 -29.622 -27.874  1.00  0.00     0.189 HD
BRANCH  13  15
HETATM   15  N4  UNL     1     -16.954 -28.198 -27.132  1.00  0.00    -0.342 N
ATOM     16  H42 UNL     1     -17.280 -28.090 -26.171  1.00  0.00     0.176 HD
ATOM     17  H41 UNL     1     -17.547 -27.897 -27.905  1.00  0.00     0.176 HD
ENDBRANCH  13  15
ENDBRANCH   7  11
BRANCH   8  18
HETATM   18  O2  UNL     1     -14.021 -30.774 -26.054  1.00  0.00    -0.280 OA
ATOM     19  H2  UNL     1     -13.801 -31.495 -25.475  1.00  0.00     0.245 HD
ENDBRANCH   8  18
BRANCH  10  20
HETATM   20  O3  UNL     1      -9.575 -30.624 -27.760  1.00  0.00    -0.269 OA
ATOM     21  H3  UNL     1      -9.314 -31.388 -27.259  1.00  0.00     0.246 HD
ENDBRANCH  10  20
TORSDOF 4
ENDMDL