MODEL 4
REMARK VINA RESULT: -6.028742157      2.387      4.729
REMARK  4 active torsions:
REMARK  status: ('A' for Active; 'I' for Inactive)
REMARK    1  A    between atoms: N2_5  and  O1_6
REMARK    2  A    between atoms: C3_8  and  C4_9
REMARK       I    between atoms: C4_9  and  N3_11
REMARK    3  A    between atoms: N3_11  and  N4_13
REMARK    4  A    between atoms: C5_16  and  N5_17
ROOT
HETATM    1  C1  UNL     1      -8.726 -29.381 -26.532  1.00  0.00     0.091 C
HETATM    2  C2  UNL     1     -10.229 -29.293 -26.680  1.00  0.00     0.095 A
HETATM    3  N1  UNL     1     -10.934 -30.281 -27.222  1.00  0.00    -0.263 N
ATOM      4  H1  UNL     1     -10.433 -31.110 -27.539  1.00  0.00     0.191 HD
HETATM    5  N2  UNL     1     -12.239 -30.252 -27.373  1.00  0.00    -0.153 N
HETATM    6  C3  UNL     1     -12.922 -29.146 -26.952  1.00  0.00     0.193 A
HETATM    7  C5  UNL     1     -12.224 -28.095 -26.381  1.00  0.00     0.137 A
HETATM    8  N6  UNL     1     -10.861 -28.212 -26.264  1.00  0.00    -0.330 N
ATOM      9  H6  UNL     1     -10.326 -27.449 -25.848  1.00  0.00     0.168 HD
ENDROOT
BRANCH   6  10
HETATM   10  C4  UNL     1     -14.367 -29.087 -27.057  1.00  0.00     0.294 C
HETATM   11  O2  UNL     1     -14.898 -28.278 -27.856  1.00  0.00    -0.264 OA
HETATM   12  N3  UNL     1     -15.218 -29.903 -26.290  1.00  0.00    -0.271 N
ATOM     13  H3  UNL     1     -14.822 -30.566 -25.625  1.00  0.00     0.189 HD
BRANCH  12  14
HETATM   14  N4  UNL     1     -16.638 -29.805 -26.440  1.00  0.00    -0.342 N
ATOM     15  H42 UNL     1     -17.066 -30.131 -27.307  1.00  0.00     0.176 HD
ATOM     16  H41 UNL     1     -17.208 -29.416 -25.689  1.00  0.00     0.176 HD
ENDBRANCH  12  14
ENDBRANCH   6  10
BRANCH   5  17
HETATM   17  O1  UNL     1     -12.929 -31.269 -27.963  1.00  0.00    -0.267 OA
ATOM     18  H1  UNL     1     -12.604 -31.727 -28.729  1.00  0.00     0.247 HD
ENDBRANCH   5  17
BRANCH   7  19
HETATM   19  N5  UNL     1     -12.733 -27.026 -25.917  1.00  0.00    -0.383 N
ATOM     20  H52 UNL     1     -12.888 -26.275 -26.591  1.00  0.00     0.157 HD
ATOM     21  H51 UNL     1     -12.973 -26.853 -24.942  1.00  0.00     0.157 HD
ENDBRANCH   7  19
TORSDOF 4
ENDMDL