MODEL 5
REMARK VINA RESULT: -6.288076462      1.637      1.753
REMARK  3 active torsions:
REMARK  status: ('A' for Active; 'I' for Inactive)
REMARK    1  A    between atoms: C2_5  and  C3_6
REMARK    2  A    between atoms: C4_9  and  N4_10
REMARK    3  A    between atoms: N4_10  and  N5_12
ROOT
HETATM    1  N5  UNL     1     -10.529 -30.442 -26.006  1.00  0.00    -0.235 N
ATOM      2  H5  UNL     1     -10.657 -29.778 -25.241  1.00  0.00     0.199 HD
HETATM    3  C5  UNL     1      -9.250 -30.924 -26.302  1.00  0.00     0.197 C
HETATM    4  N6  UNL     1      -8.183 -31.326 -26.530  1.00  0.00    -0.170 NA
ENDROOT
BRANCH   1   5
HETATM    5  N4  UNL     1     -11.631 -30.865 -26.752  1.00  0.00    -0.273 N
ATOM      6  H4  UNL     1     -11.718 -31.857 -26.969  1.00  0.00     0.189 HD
BRANCH   5   7
HETATM    7  C4  UNL     1     -12.541 -30.064 -27.178  1.00  0.00     0.170 A
HETATM    8  C2  UNL     1     -12.452 -29.192 -28.236  1.00  0.00     0.161 A
HETATM    9  N2  UNL     1     -13.647 -28.580 -28.287  1.00  0.00    -0.276 N
HETATM   10  N1  UNL     1     -14.445 -29.023 -27.334  1.00  0.00    -0.236 N
ATOM     11  H2  UNL     1     -13.903 -27.868 -28.971  1.00  0.00     0.189 HD
HETATM   12  C1  UNL     1     -15.805 -28.657 -27.008  1.00  0.00     0.200 C
HETATM   13  N7  UNL     1     -13.769 -29.932 -26.653  1.00  0.00    -0.266 N
ATOM     14  H7  UNL     1     -14.126 -30.453 -25.853  1.00  0.00     0.190 HD
BRANCH   8  15
HETATM   15  C3  UNL     1     -11.274 -29.028 -29.075  1.00  0.00     0.286 C
HETATM   16  N3  UNL     1     -10.067 -28.444 -28.568  1.00  0.00    -0.056 NA
HETATM   17  O1  UNL     1     -11.249 -29.387 -30.276  1.00  0.00    -0.269 OA
ENDBRANCH   8  15
ENDBRANCH   5   7
ENDBRANCH   1   5
TORSDOF 3
ENDMDL