MODEL 5
REMARK VINA RESULT: -7.658206127      2.170      6.341
REMARK  11 active torsions:
REMARK  status: ('A' for Active; 'I' for Inactive)
REMARK    1  A    between atoms: O1_2  and  C2_3
REMARK    2  A    between atoms: C4_5  and  O2_6
REMARK    3  A    between atoms: C5_8  and  C6_9
REMARK    4  A    between atoms: C6_9  and  C7_10
REMARK    5  A    between atoms: C7_10  and  C8_11
REMARK    6  A    between atoms: C8_11  and  C10_13
REMARK    7  A    between atoms: C10_13  and  C11_14
REMARK    8  A    between atoms: C11_14  and  C12_15
REMARK    9  A    between atoms: C13_18  and  C14_19
REMARK   10  A    between atoms: C14_19  and  O5_20
REMARK   11  A    between atoms: C19_26  and  O6_27
ROOT
HETATM    1  C2  UNL     1      34.177  36.057  60.003  1.00  0.00     0.071 A
HETATM    2  C3  UNL     1      34.383  34.718  60.220  1.00  0.00     0.073 A
HETATM    3  C4  UNL     1      35.159  34.044  59.313  1.00  0.00     0.075 A
HETATM    4  C5  UNL     1      35.752  34.650  58.176  1.00  0.00    -0.015 A
HETATM    5  C13 UNL     1      35.556  35.987  57.950  1.00  0.00    -0.012 A
HETATM    6  C24 UNL     1      34.745  36.646  58.915  1.00  0.00     0.047 A
ENDROOT
BRANCH   5   7
HETATM    7  C14 UNL     1      36.129  36.755  56.906  1.00  0.00     0.093 C
HETATM    8  C15 UNL     1      35.849  36.702  55.496  1.00  0.00     0.044 C
HETATM    9  C16 UNL     1      36.342  38.097  55.042  1.00  0.00     0.009 C
HETATM   10  C17 UNL     1      37.477  38.386  55.975  1.00  0.00    -0.001 C
HETATM   11  C18 UNL     1      38.723  38.692  55.246  1.00  0.00     0.037 C
HETATM   12  C22 UNL     1      37.586  37.190  56.951  1.00  0.00    -0.005 C
HETATM   13  C19 UNL     1      39.978  38.310  55.965  1.00  0.00     0.118 C
HETATM   14  C20 UNL     1      39.986  36.903  56.441  1.00  0.00     0.032 C
HETATM   15  C21 UNL     1      38.626  36.255  56.558  1.00  0.00     0.015 C
HETATM   16  C23 UNL     1      37.961  37.800  58.281  1.00  0.00     0.019 C
BRANCH   7  17
HETATM   17  O5  UNL     1      35.637  38.134  57.212  1.00  0.00    -0.384 OA
ATOM     18  H5  UNL     1      34.695  38.019  57.221  1.00  0.00     0.211 HD
ENDBRANCH   7  17
BRANCH  13  19
HETATM   19  O6  UNL     1      41.052  38.547  55.078  1.00  0.00    -0.396 OA
ATOM     20  H6  UNL     1      40.776  39.238  54.486  1.00  0.00     0.210 HD
ENDBRANCH  13  19
ENDBRANCH   5   7
BRANCH   4  21
HETATM   21  C6  UNL     1      36.400  33.763  57.252  1.00  0.00     0.042 C
BRANCH  21  22
HETATM   22  C7  UNL     1      35.637  33.212  56.083  1.00  0.00     0.009 C
BRANCH  22  23
HETATM   23  C8  UNL     1      36.581  32.461  55.131  1.00  0.00    -0.018 C
HETATM   24  C9  UNL     1      35.843  31.717  54.096  1.00  0.00     0.010 C
BRANCH  23  25
HETATM   25  C10 UNL     1      37.711  33.310  54.775  1.00  0.00     0.015 C
BRANCH  25  26
HETATM   26  C11 UNL     1      37.653  34.167  53.578  1.00  0.00     0.113 C
BRANCH  26  27
HETATM   27  C12 UNL     1      38.879  34.354  52.799  1.00  0.00     0.172 C
HETATM   28  O3  UNL     1      39.032  33.902  51.642  1.00  0.00    -0.648 OA
HETATM   29  O4  UNL     1      39.970  35.076  53.344  1.00  0.00    -0.648 OA
ENDBRANCH  26  27
ENDBRANCH  25  26
ENDBRANCH  23  25
ENDBRANCH  22  23
ENDBRANCH  21  22
ENDBRANCH   4  21
BRANCH   3  30
HETATM   30  O2  UNL     1      35.355  32.672  59.552  1.00  0.00    -0.360 OA
ATOM     31  H2  UNL     1      34.776  32.265  60.186  1.00  0.00     0.217 HD
ENDBRANCH   3  30
BRANCH   1  32
HETATM   32  O1  UNL     1      33.399  36.842  60.868  1.00  0.00    -0.356 OA
HETATM   33  C1  UNL     1      32.251  36.230  61.461  1.00  0.00     0.210 C
ENDBRANCH   1  32
TORSDOF 11
ENDMDL