MODEL 5
REMARK VINA RESULT: -6.594764964      3.017      7.434
REMARK  9 active torsions:
REMARK  status: ('A' for Active; 'I' for Inactive)
REMARK    1  A    between atoms: C2_2  and  S1_4
REMARK    2  A    between atoms: S1_4  and  C4_5
REMARK    3  A    between atoms: N1_7  and  O1_9
REMARK    4  A    between atoms: C10_15  and  C12_17
REMARK    5  A    between atoms: C12_17  and  C13_18
REMARK    6  A    between atoms: C13_18  and  N2_21
REMARK    7  A    between atoms: N2_21  and  C16_23
REMARK    8  A    between atoms: C16_23  and  C17_24
REMARK    9  A    between atoms: C18_27  and  O3_28
ROOT
HETATM    1  C4  UNL     1      35.522  36.077  59.022  1.00  0.00     0.104 C
HETATM    2  C5  UNL     1      35.637  34.648  59.243  1.00  0.00     0.024 C
HETATM    3  N1  UNL     1      35.611  34.107  60.412  1.00  0.00    -0.276 N
ATOM      4  H1  UNL     1      35.506  34.683  61.246  1.00  0.00     0.193 HD
HETATM    5  C6  UNL     1      35.790  33.769  58.067  1.00  0.00     0.056 C
HETATM    6  C7  UNL     1      36.918  34.453  57.301  1.00  0.00     0.016 C
HETATM    7  C8  UNL     1      36.430  35.784  56.710  1.00  0.00    -0.025 C
HETATM    8  C9  UNL     1      35.164  35.542  55.975  1.00  0.00     0.017 C
HETATM    9  C10 UNL     1      37.512  36.155  55.680  1.00  0.00    -0.008 C
HETATM   10  C11 UNL     1      37.465  37.620  55.291  1.00  0.00     0.019 C
HETATM   11  C18 UNL     1      38.847  36.060  56.400  1.00  0.00     0.127 C
HETATM   12  C19 UNL     1      38.858  36.907  57.648  1.00  0.00     0.033 C
HETATM   13  C20 UNL     1      37.669  36.966  58.470  1.00  0.00     0.014 C
HETATM   14  C21 UNL     1      36.322  36.683  57.878  1.00  0.00    -0.018 C
HETATM   15  C22 UNL     1      35.546  37.986  57.629  1.00  0.00     0.018 C
ENDROOT
BRANCH   9  16
HETATM   16  C12 UNL     1      37.298  35.328  54.512  1.00  0.00     0.042 C
BRANCH  16  17
HETATM   17  C13 UNL     1      38.175  34.304  53.919  1.00  0.00     0.023 C
HETATM   18  C14 UNL     1      37.407  33.966  52.605  1.00  0.00     0.038 C
HETATM   19  C15 UNL     1      38.153  32.944  54.602  1.00  0.00     0.038 C
BRANCH  17  20
HETATM   20  N2  UNL     1      39.475  34.609  53.579  1.00  0.00    -0.386 N
ATOM     21  H2  UNL     1      40.135  34.552  54.354  1.00  0.00     0.159 HD
BRANCH  20  22
HETATM   22  C16 UNL     1      40.039  34.976  52.388  1.00  0.00     0.155 C
BRANCH  22  23
HETATM   23  C17 UNL     1      40.060  36.316  51.849  1.00  0.00     0.269 C
HETATM   24  N3  UNL     1      40.141  37.397  52.805  1.00  0.00    -0.057 NA
HETATM   25  O2  UNL     1      40.018  36.628  50.669  1.00  0.00    -0.270 OA
ENDBRANCH  22  23
ENDBRANCH  20  22
ENDBRANCH  17  20
ENDBRANCH  16  17
ENDBRANCH   9  16
BRANCH  11  26
HETATM   26  O3  UNL     1      39.798  36.726  55.587  1.00  0.00    -0.395 OA
ATOM     27  H3  UNL     1      39.312  37.156  54.894  1.00  0.00     0.210 HD
ENDBRANCH  11  26
BRANCH   1  28
HETATM   28  S1  UNL     1      33.759  36.607  58.984  1.00  0.00    -0.153 SA
BRANCH  28  29
HETATM   29  C2  UNL     1      33.264  37.253  60.598  1.00  0.00     0.040 C
HETATM   30  C1  UNL     1      34.505  37.814  61.260  1.00  0.00     0.021 C
HETATM   31  C3  UNL     1      32.739  36.153  61.501  1.00  0.00     0.021 C
ENDBRANCH  28  29
ENDBRANCH   1  28
BRANCH   3  32
HETATM   32  O1  UNL     1      35.728  32.747  60.521  1.00  0.00    -0.290 OA
ATOM     33  H1  UNL     1      36.430  32.383  61.048  1.00  0.00     0.244 HD
ENDBRANCH   3  32
TORSDOF 9
ENDMDL