MODEL 1
REMARK VINA RESULT: -8.129596787      0.000      0.000
REMARK  12 active torsions:
REMARK  status: ('A' for Active; 'I' for Inactive)
REMARK    1  A    between atoms: C2_2  and  C3_3
REMARK    2  A    between atoms: C3_3  and  O1_4
REMARK    3  A    between atoms: C3_3  and  C4_6
REMARK    4  A    between atoms: C5_7  and  O2_8
REMARK    5  A    between atoms: C7_11  and  O3_12
REMARK    6  A    between atoms: C10_16  and  C11_17
REMARK    7  A    between atoms: C12_18  and  C13_19
REMARK    8  A    between atoms: C14_20  and  O4_21
REMARK    9  A    between atoms: C14_20  and  C15_23
REMARK   10  A    between atoms: C17_25  and  C18_26
REMARK   11  A    between atoms: C18_26  and  O5_27
REMARK   12  A    between atoms: O5_27  and  C19_28
ROOT
HETATM    1  C11 UNL     1      34.784  34.923  59.313  1.00  0.00    -0.017 C
HETATM    2  C12 UNL     1      34.811  35.066  58.018  1.00  0.00    -0.001 C
ENDROOT
BRANCH   1   3
HETATM    3  C10 UNL     1      33.683  35.094  60.253  1.00  0.00     0.048 C
HETATM    4  C4  UNL     1      33.698  36.357  61.010  1.00  0.00     0.059 C
HETATM    5  C5  UNL     1      32.897  36.367  62.291  1.00  0.00     0.128 C
HETATM    6  C6  UNL     1      32.833  35.083  63.025  1.00  0.00     0.068 C
HETATM    7  C7  UNL     1      32.410  33.938  62.112  1.00  0.00     0.149 C
HETATM    8  C8  UNL     1      33.472  33.859  61.089  1.00  0.00    -0.053 C
HETATM    9  C9  UNL     1      34.155  32.754  60.963  1.00  0.00     0.017 C
BRANCH   4  10
HETATM   10  C3  UNL     1      33.040  37.445  60.145  1.00  0.00     0.147 C
BRANCH  10  11
HETATM   11  C2  UNL     1      34.063  38.248  59.420  1.00  0.00    -0.005 C
HETATM   12  C1  UNL     1      35.208  38.619  59.963  1.00  0.00     0.009 C
ENDBRANCH  10  11
BRANCH  10  13
HETATM   13  O1  UNL     1      32.140  36.959  59.241  1.00  0.00    -0.391 OA
ATOM     14  H1  UNL     1      31.450  36.503  59.709  1.00  0.00     0.210 HD
ENDBRANCH  10  13
ENDBRANCH   4  10
BRANCH   5  15
HETATM   15  O2  UNL     1      33.487  37.329  63.126  1.00  0.00    -0.395 OA
ATOM     16  H2  UNL     1      33.556  36.935  63.988  1.00  0.00     0.210 HD
ENDBRANCH   5  15
BRANCH   7  17
HETATM   17  O3  UNL     1      32.277  32.792  62.857  1.00  0.00    -0.391 OA
ATOM     18  H3  UNL     1      31.551  32.893  63.461  1.00  0.00     0.210 HD
ENDBRANCH   7  17
ENDBRANCH   1   3
BRANCH   2  19
HETATM   19  C13 UNL     1      36.008  34.855  57.211  1.00  0.00     0.032 C
HETATM   20  C14 UNL     1      36.200  33.737  56.534  1.00  0.00     0.051 C
BRANCH  20  21
HETATM   21  O4  UNL     1      35.235  32.725  56.587  1.00  0.00    -0.364 OA
ATOM     22  H4  UNL     1      35.155  32.117  55.862  1.00  0.00     0.217 HD
ENDBRANCH  20  21
BRANCH  20  23
HETATM   23  C15 UNL     1      37.390  33.494  55.714  1.00  0.00     0.065 C
HETATM   24  C16 UNL     1      37.761  34.715  54.972  1.00  0.00    -0.010 C
HETATM   25  C17 UNL     1      38.426  34.720  53.835  1.00  0.00    -0.056 C
HETATM   26  C22 UNL     1      38.854  33.455  53.216  1.00  0.00     0.012 C
HETATM   27  C23 UNL     1      38.289  33.341  51.811  1.00  0.00     0.015 C
HETATM   28  C24 UNL     1      38.547  32.226  54.004  1.00  0.00     0.010 C
HETATM   29  C25 UNL     1      37.217  32.347  54.749  1.00  0.00     0.016 C
BRANCH  25  30
HETATM   30  C18 UNL     1      38.760  36.024  53.147  1.00  0.00     0.202 C
BRANCH  30  31
HETATM   31  O5  UNL     1      38.583  37.018  54.111  1.00  0.00    -0.382 OA
BRANCH  31  32
HETATM   32  C19 UNL     1      39.428  38.092  53.931  1.00  0.00     0.113 C
HETATM   33  C20 UNL     1      40.322  37.804  52.733  1.00  0.00     0.039 C
HETATM   34  C21 UNL     1      40.359  38.208  55.134  1.00  0.00     0.039 C
ENDBRANCH  31  32
ENDBRANCH  30  31
ENDBRANCH  25  30
ENDBRANCH  20  23
ENDBRANCH   2  19
TORSDOF 12
ENDMDL