MODEL 2
REMARK VINA RESULT: -8.210045516      1.386      2.011
REMARK  11 active torsions:
REMARK  status: ('A' for Active; 'I' for Inactive)
REMARK    1  A    between atoms: C2_2  and  O1_4
REMARK    2  A    between atoms: C2_2  and  C4_6
REMARK    3  A    between atoms: C4_6  and  C5_7
REMARK    4  A    between atoms: C5_7  and  C6_8
REMARK    5  A    between atoms: C7_9  and  C8_10
REMARK    6  A    between atoms: C8_10  and  C9_11
REMARK    7  A    between atoms: C9_11  and  C10_12
REMARK    8  A    between atoms: C10_12  and  C11_13
REMARK    9  A    between atoms: C19_22  and  O3_24
REMARK   10  A    between atoms: C23_28  and  O4_29
REMARK   11  A    between atoms: C24_31  and  O5_32
ROOT
HETATM    1  C8  UNL     1      38.341  37.610  55.404  1.00  0.00    -0.002 C
HETATM    2  C15 UNL     1      38.746  37.259  56.788  1.00  0.00    -0.016 C
HETATM    3  C16 UNL     1      38.261  37.833  57.852  1.00  0.00    -0.014 C
HETATM    4  C17 UNL     1      37.257  38.894  57.743  1.00  0.00     0.038 C
HETATM    5  C18 UNL     1      35.874  38.222  57.746  1.00  0.00     0.026 C
HETATM    6  C19 UNL     1      37.286  39.737  58.998  1.00  0.00     0.068 C
HETATM    7  C20 UNL     1      37.566  38.828  60.199  1.00  0.00     0.047 C
HETATM    8  C21 UNL     1      38.341  40.789  59.003  1.00  0.00     0.041 C
HETATM    9  C22 UNL     1      39.294  40.708  57.857  1.00  0.00     0.038 C
HETATM   10  C23 UNL     1      38.546  40.709  56.564  1.00  0.00     0.153 C
HETATM   11  C24 UNL     1      37.430  39.693  56.500  1.00  0.00     0.098 C
HETATM   12  C25 UNL     1      37.605  38.884  55.255  1.00  0.00     0.059 C
ENDROOT
BRANCH   1  13
HETATM   13  C7  UNL     1      39.627  37.722  54.637  1.00  0.00    -0.017 C
HETATM   14  C6  UNL     1      39.736  38.381  53.508  1.00  0.00    -0.029 C
BRANCH  14  15
HETATM   15  C5  UNL     1      41.036  38.448  52.806  1.00  0.00     0.030 C
BRANCH  15  16
HETATM   16  C4  UNL     1      42.046  39.122  53.674  1.00  0.00     0.040 C
BRANCH  16  17
HETATM   17  C2  UNL     1      42.449  40.485  53.152  1.00  0.00     0.051 C
HETATM   18  C1  UNL     1      41.478  41.556  53.524  1.00  0.00     0.045 C
HETATM   19  C3  UNL     1      43.827  40.882  53.646  1.00  0.00     0.045 C
BRANCH  17  20
HETATM   20  O1  UNL     1      42.519  40.431  51.761  1.00  0.00    -0.391 OA
ATOM     21  H1  UNL     1      41.670  40.160  51.434  1.00  0.00     0.210 HD
ENDBRANCH  17  20
ENDBRANCH  16  17
ENDBRANCH  15  16
ENDBRANCH  14  15
ENDBRANCH   1  13
BRANCH   1  22
HETATM   22  C9  UNL     1      37.587  36.438  54.808  1.00  0.00     0.022 C
BRANCH  22  23
HETATM   23  C10 UNL     1      38.167  35.100  55.110  1.00  0.00     0.042 C
BRANCH  23  24
HETATM   24  C11 UNL     1      38.227  34.366  53.810  1.00  0.00    -0.034 A
HETATM   25  C12 UNL     1      39.038  34.564  52.736  1.00  0.00     0.033 A
HETATM   26  C13 UNL     1      38.662  33.607  51.818  1.00  0.00     0.142 A
HETATM   27  O2  UNL     1      37.690  32.892  52.324  1.00  0.00    -0.334 OA
HETATM   28  C14 UNL     1      37.399  33.309  53.508  1.00  0.00     0.148 A
ENDBRANCH  23  24
ENDBRANCH  22  23
ENDBRANCH   1  22
BRANCH  11  29
HETATM   29  O5  UNL     1      36.238  40.445  56.333  1.00  0.00    -0.386 OA
ATOM     30  H5  UNL     1      36.477  41.359  56.442  1.00  0.00     0.210 HD
ENDBRANCH  11  29
BRANCH  10  31
HETATM   31  O4  UNL     1      38.111  42.000  56.282  1.00  0.00    -0.393 OA
ATOM     32  H4  UNL     1      37.235  42.121  56.628  1.00  0.00     0.210 HD
ENDBRANCH  10  31
BRANCH   6  33
HETATM   33  O3  UNL     1      36.067  40.361  59.255  1.00  0.00    -0.389 OA
ATOM     34  H3  UNL     1      35.774  40.240  60.150  1.00  0.00     0.210 HD
ENDBRANCH   6  33
TORSDOF 11
ENDMDL