MODEL 1
REMARK VINA RESULT: -8.352829109      0.000      0.000
REMARK  9 active torsions:
REMARK  status: ('A' for Active; 'I' for Inactive)
REMARK    1  A    between atoms: C11_11  and  O1_12
REMARK    2  A    between atoms: C12_14  and  O2_15
REMARK    3  A    between atoms: C20_24  and  N1_25
REMARK    4  A    between atoms: N1_25  and  C21_27
REMARK    5  A    between atoms: C21_27  and  C22_28
REMARK    6  A    between atoms: C22_28  and  N2_29
REMARK    7  A    between atoms: N2_29  and  C24_31
REMARK    8  A    between atoms: C24_31  and  C25_32
REMARK    9  A    between atoms: C25_32  and  O3_33
ROOT
HETATM    1  C1  UNL     1      35.581  37.545  59.091  1.00  0.00     0.016 C
HETATM    2  C2  UNL     1      36.358  36.633  58.550  1.00  0.00    -0.066 C
HETATM    3  C3  UNL     1      37.788  36.449  59.007  1.00  0.00     0.036 C
HETATM    4  C4  UNL     1      38.672  36.670  57.833  1.00  0.00     0.010 C
HETATM    5  C5  UNL     1      38.249  36.076  56.528  1.00  0.00     0.001 C
HETATM    6  C6  UNL     1      39.116  36.703  55.461  1.00  0.00    -0.001 C
HETATM    7  C7  UNL     1      39.645  35.714  54.440  1.00  0.00     0.010 C
HETATM    8  C8  UNL     1      39.932  36.344  53.097  1.00  0.00     0.039 C
HETATM    9  C9  UNL     1      40.258  37.799  53.174  1.00  0.00    -0.049 A
HETATM   10  C10 UNL     1      41.296  38.379  52.481  1.00  0.00     0.047 A
HETATM   11  C11 UNL     1      41.504  39.742  52.629  1.00  0.00     0.099 A
HETATM   12  C12 UNL     1      40.672  40.492  53.466  1.00  0.00     0.099 A
HETATM   13  C13 UNL     1      39.629  39.902  54.161  1.00  0.00     0.047 A
HETATM   14  C14 UNL     1      39.439  38.551  53.999  1.00  0.00    -0.044 A
HETATM   15  C15 UNL     1      38.378  37.757  54.652  1.00  0.00     0.024 C
HETATM   16  C16 UNL     1      37.355  38.479  55.424  1.00  0.00     0.010 C
HETATM   17  C17 UNL     1      36.294  37.469  55.809  1.00  0.00     0.012 C
HETATM   18  C18 UNL     1      36.810  36.141  56.220  1.00  0.00    -0.016 C
HETATM   19  C19 UNL     1      36.404  35.042  55.215  1.00  0.00     0.018 C
HETATM   20  C20 UNL     1      35.983  35.717  57.455  1.00  0.00     0.117 C
ENDROOT
BRANCH  20  21
HETATM   21  N1  UNL     1      36.144  34.373  57.775  1.00  0.00    -0.392 N
ATOM     22  H1  UNL     1      36.994  33.919  57.442  1.00  0.00     0.159 HD
BRANCH  21  23
HETATM   23  C21 UNL     1      35.263  33.594  58.503  1.00  0.00     0.086 C
BRANCH  23  24
HETATM   24  C22 UNL     1      35.251  33.590  60.001  1.00  0.00     0.316 C
BRANCH  24  25
HETATM   25  N2  UNL     1      34.092  32.980  60.568  1.00  0.00     0.090 N
HETATM   26  C23 UNL     1      34.438  31.733  61.182  1.00  0.00     0.310 C
BRANCH  25  27
HETATM   27  C24 UNL     1      33.290  33.853  61.325  1.00  0.00     0.298 C
BRANCH  27  28
HETATM   28  C25 UNL     1      32.265  33.087  62.180  1.00  0.00     0.194 C
BRANCH  28  29
HETATM   29  O3  UNL     1      32.271  33.700  63.453  1.00  0.00    -0.399 OA
ATOM     30  H3  UNL     1      31.711  33.169  64.008  1.00  0.00     0.209 HD
ENDBRANCH  28  29
ENDBRANCH  27  28
ENDBRANCH  25  27
ENDBRANCH  24  25
ENDBRANCH  23  24
ENDBRANCH  21  23
ENDBRANCH  20  21
BRANCH  12  31
HETATM   31  O2  UNL     1      40.941  41.828  53.558  1.00  0.00    -0.358 OA
ATOM     32  H2  UNL     1      40.995  42.309  52.741  1.00  0.00     0.217 HD
ENDBRANCH  12  31
BRANCH  11  33
HETATM   33  O1  UNL     1      42.539  40.318  51.936  1.00  0.00    -0.358 OA
ATOM     34  H1  UNL     1      42.328  40.910  51.224  1.00  0.00     0.217 HD
ENDBRANCH  11  33
TORSDOF 9
ENDMDL