MODEL 1
REMARK VINA RESULT: -8.410420733      0.000      0.000
REMARK  9 active torsions:
REMARK  status: ('A' for Active; 'I' for Inactive)
REMARK    1  A    between atoms: O1_2  and  N1_3
REMARK       I    between atoms: N1_3  and  C2_5
REMARK       I    between atoms: C2_5  and  N2_7
REMARK    2  A    between atoms: N2_7  and  C3_9
REMARK    3  A    between atoms: C3_9  and  C4_10
REMARK    4  A    between atoms: C4_10  and  C5_11
REMARK    5  A    between atoms: C5_11  and  C6_12
REMARK    6  A    between atoms: C6_12  and  C7_13
REMARK    7  A    between atoms: C6_12  and  C11_20
REMARK    8  A    between atoms: C10_17  and  O4_18
REMARK    9  A    between atoms: C22_31  and  O5_32
ROOT
HETATM    1  C6  UNL     1      36.113  35.199  57.443  1.00  0.00    -0.058 C
ENDROOT
BRANCH   1   2
HETATM    2  C5  UNL     1      35.123  34.372  58.227  1.00  0.00     0.037 C
BRANCH   2   3
HETATM    3  C4  UNL     1      35.180  34.319  59.689  1.00  0.00     0.024 C
BRANCH   3   4
HETATM    4  C3  UNL     1      34.771  33.099  60.433  1.00  0.00     0.125 C
BRANCH   4   5
HETATM    5  N2  UNL     1      33.339  32.828  60.348  1.00  0.00    -0.341 N
HETATM    6  C2  UNL     1      32.433  32.802  61.410  1.00  0.00     0.339 C
HETATM    7  N1  UNL     1      31.040  32.502  61.163  1.00  0.00    -0.217 N
HETATM    8  O2  UNL     1      32.750  33.021  62.608  1.00  0.00    -0.245 OA
ATOM      9  H1  UNL     1      30.742  32.319  60.206  1.00  0.00     0.199 HD
ATOM     10  H2  UNL     1      32.963  32.640  59.420  1.00  0.00     0.164 HD
BRANCH   7  11
HETATM   11  O1  UNL     1      30.126  32.454  62.138  1.00  0.00    -0.281 OA
HETATM   12  C1  UNL     1      29.256  33.519  62.057  1.00  0.00     0.237 C
ENDBRANCH   7  11
ENDBRANCH   4   5
ENDBRANCH   3   4
ENDBRANCH   2   3
ENDBRANCH   1   2
BRANCH   1  13
HETATM   13  C7  UNL     1      36.355  36.501  58.027  1.00  0.00     0.027 A
HETATM   14  C8  UNL     1      37.652  36.708  58.657  1.00  0.00     0.041 A
HETATM   15  C9  UNL     1      37.779  38.020  58.985  1.00  0.00     0.146 A
HETATM   16  O3  UNL     1      36.702  38.604  58.623  1.00  0.00    -0.300 OA
HETATM   17  C10 UNL     1      35.851  37.759  58.065  1.00  0.00     0.193 A
BRANCH  17  18
HETATM   18  O4  UNL     1      34.613  38.192  57.617  1.00  0.00    -0.340 OA
ATOM     19  H4  UNL     1      34.162  38.998  57.841  1.00  0.00     0.220 HD
ENDBRANCH  17  18
ENDBRANCH   1  13
BRANCH   1  20
HETATM   20  C11 UNL     1      36.243  34.872  55.997  1.00  0.00     0.045 C
HETATM   21  C12 UNL     1      37.379  35.516  55.303  1.00  0.00     0.017 C
HETATM   22  C13 UNL     1      37.427  35.110  53.857  1.00  0.00    -0.005 C
HETATM   23  C14 UNL     1      38.800  35.307  53.248  1.00  0.00    -0.014 C
HETATM   24  C18 UNL     1      36.933  33.773  53.498  1.00  0.00     0.000 C
HETATM   25  C15 UNL     1      39.858  35.673  54.260  1.00  0.00     0.010 C
HETATM   26  C16 UNL     1      39.127  34.018  52.519  1.00  0.00     0.005 C
HETATM   27  C17 UNL     1      37.790  33.331  52.326  1.00  0.00     0.006 C
HETATM   28  C19 UNL     1      36.888  32.793  54.613  1.00  0.00    -0.017 C
HETATM   29  C20 UNL     1      35.973  31.659  54.098  1.00  0.00     0.018 C
HETATM   30  C21 UNL     1      38.201  32.068  54.867  1.00  0.00     0.018 C
HETATM   31  C22 UNL     1      36.307  33.357  55.857  1.00  0.00     0.134 C
BRANCH  31  32
HETATM   32  O5  UNL     1      36.949  32.762  56.982  1.00  0.00    -0.394 OA
ATOM     33  H5  UNL     1      36.665  31.863  57.103  1.00  0.00     0.210 HD
ENDBRANCH  31  32
ENDBRANCH   1  20
TORSDOF 9
ENDMDL