MODEL 5
REMARK VINA RESULT: -7.996940762      3.357      5.732
REMARK  11 active torsions:
REMARK  status: ('A' for Active; 'I' for Inactive)
REMARK    1  A    between atoms: C2_2  and  C3_3
REMARK    2  A    between atoms: C2_2  and  C21_27
REMARK    3  A    between atoms: C3_3  and  C4_4
REMARK    4  A    between atoms: C4_4  and  C5_5
REMARK    5  A    between atoms: C5_5  and  C6_6
REMARK    6  A    between atoms: C8_8  and  O1_9
REMARK    7  A    between atoms: C16_18  and  O2_19
REMARK    8  A    between atoms: C18_22  and  O3_23
REMARK    9  A    between atoms: C21_27  and  C22_28
REMARK   10  A    between atoms: C22_28  and  C23_29
REMARK   11  A    between atoms: C23_29  and  O4_31
ROOT
HETATM    1  C23 UNL     1      42.756  40.928  53.506  1.00  0.00     0.142 C
HETATM    2  C24 UNL     1      41.416  41.594  53.672  1.00  0.00     0.062 C
HETATM    3  C25 UNL     1      43.490  41.014  54.771  1.00  0.00     0.097 C
HETATM    4  N1  UNL     1      44.063  41.100  55.771  1.00  0.00    -0.194 NA
ENDROOT
BRANCH   1   5
HETATM    5  C22 UNL     1      42.583  39.453  53.170  1.00  0.00     0.053 C
BRANCH   5   6
HETATM    6  C21 UNL     1      41.190  39.226  52.685  1.00  0.00     0.008 C
BRANCH   6   7
HETATM    7  C2  UNL     1      40.619  37.880  52.995  1.00  0.00    -0.019 C
HETATM    8  C1  UNL     1      40.077  37.229  51.749  1.00  0.00     0.010 C
BRANCH   7   9
HETATM    9  C3  UNL     1      39.527  38.063  54.021  1.00  0.00     0.004 C
BRANCH   9  10
HETATM   10  C4  UNL     1      40.060  37.878  55.433  1.00  0.00     0.005 C
BRANCH  10  11
HETATM   11  C5  UNL     1      39.705  36.456  55.874  1.00  0.00     0.035 C
BRANCH  11  12
HETATM   12  C6  UNL     1      38.439  36.366  56.625  1.00  0.00    -0.070 C
HETATM   13  C7  UNL     1      38.448  37.024  57.787  1.00  0.00     0.008 C
HETATM   14  C8  UNL     1      37.241  37.037  58.685  1.00  0.00     0.141 C
HETATM   15  C9  UNL     1      36.957  35.528  58.772  1.00  0.00     0.041 C
HETATM   16  C10 UNL     1      36.465  35.142  57.401  1.00  0.00     0.004 C
HETATM   17  C11 UNL     1      36.277  33.646  57.461  1.00  0.00     0.006 C
HETATM   18  C19 UNL     1      37.209  35.682  56.237  1.00  0.00     0.014 C
HETATM   19  C12 UNL     1      35.601  33.216  56.216  1.00  0.00     0.008 C
HETATM   20  C13 UNL     1      36.182  33.738  54.984  1.00  0.00     0.021 C
HETATM   21  C14 UNL     1      36.679  32.591  54.092  1.00  0.00     0.010 C
HETATM   22  C18 UNL     1      37.361  34.691  55.116  1.00  0.00     0.075 C
HETATM   23  C15 UNL     1      37.262  33.031  52.806  1.00  0.00     0.032 C
HETATM   24  C16 UNL     1      38.109  34.251  52.846  1.00  0.00     0.121 C
HETATM   25  C17 UNL     1      37.410  35.294  53.734  1.00  0.00     0.071 C
HETATM   26  C20 UNL     1      36.311  36.813  55.683  1.00  0.00     0.023 C
BRANCH  14  27
HETATM   27  O1  UNL     1      37.527  37.520  59.946  1.00  0.00    -0.392 OA
ATOM     28  H1  UNL     1      38.436  37.781  60.036  1.00  0.00     0.210 HD
ENDBRANCH  14  27
BRANCH  24  29
HETATM   29  O2  UNL     1      39.426  34.065  53.150  1.00  0.00    -0.395 OA
ATOM     30  H2  UNL     1      40.031  34.045  52.417  1.00  0.00     0.210 HD
ENDBRANCH  24  29
BRANCH  22  31
HETATM   31  O3  UNL     1      38.452  33.819  55.298  1.00  0.00    -0.388 OA
ATOM     32  H3  UNL     1      38.924  34.218  56.019  1.00  0.00     0.210 HD
ENDBRANCH  22  31
ENDBRANCH  11  12
ENDBRANCH  10  11
ENDBRANCH   9  10
ENDBRANCH   7   9
ENDBRANCH   6   7
ENDBRANCH   5   6
ENDBRANCH   1   5
BRANCH   1  33
HETATM   33  O4  UNL     1      43.499  41.503  52.476  1.00  0.00    -0.376 OA
ATOM     34  H4  UNL     1      43.909  40.793  51.995  1.00  0.00     0.211 HD
ENDBRANCH   1  33
TORSDOF 11
ENDMDL