MODEL 1
REMARK VINA RESULT: -6.361319282      0.000      0.000
REMARK  11 active torsions:
REMARK  status: ('A' for Active; 'I' for Inactive)
REMARK    1  A    between atoms: C2_2  and  C4_4
REMARK    2  A    between atoms: C4_4  and  O1_5
REMARK    3  A    between atoms: C5_7  and  C6_8
REMARK    4  A    between atoms: C6_8  and  C7_9
REMARK    5  A    between atoms: C7_9  and  C8_10
REMARK    6  A    between atoms: C8_10  and  O2_13
REMARK    7  A    between atoms: C18_22  and  C19_23
REMARK    8  A    between atoms: C20_25  and  C22_27
REMARK    9  A    between atoms: C22_27  and  C23_28
REMARK   10  A    between atoms: C23_28  and  O4_30
REMARK   11  A    between atoms: C23_28  and  O5_32
ROOT
HETATM    1  C4  UNL     1      37.309  38.829  57.162  1.00  0.00     0.092 C
HETATM    2  C5  UNL     1      38.148  38.339  55.953  1.00  0.00     0.025 C
HETATM    3  C11 UNL     1      39.510  38.899  56.130  1.00  0.00     0.009 C
HETATM    4  C12 UNL     1      39.432  39.456  57.530  1.00  0.00     0.014 C
HETATM    5  C13 UNL     1      38.025  40.042  57.640  1.00  0.00     0.007 C
HETATM    6  C14 UNL     1      37.887  41.041  56.515  1.00  0.00    -0.006 C
HETATM    7  C15 UNL     1      39.087  41.866  56.154  1.00  0.00     0.011 C
HETATM    8  C16 UNL     1      36.740  41.978  56.562  1.00  0.00     0.006 C
HETATM    9  C17 UNL     1      36.777  42.655  57.854  1.00  0.00     0.013 C
HETATM   10  C18 UNL     1      37.754  42.114  58.868  1.00  0.00     0.056 C
HETATM   11  C20 UNL     1      37.719  40.604  59.032  1.00  0.00    -0.018 C
HETATM   12  C21 UNL     1      36.337  40.305  59.517  1.00  0.00     0.017 C
ENDROOT
BRANCH   1  13
HETATM   13  C2  UNL     1      36.767  37.751  57.911  1.00  0.00    -0.058 C
HETATM   14  C1  UNL     1      37.229  36.905  58.805  1.00  0.00     0.017 C
HETATM   15  C3  UNL     1      35.291  37.330  57.673  1.00  0.00     0.046 C
ENDBRANCH   1  13
BRANCH   1  16
HETATM   16  O1  UNL     1      36.136  39.320  56.440  1.00  0.00    -0.384 OA
ATOM     17  H1  UNL     1      36.076  40.218  56.745  1.00  0.00     0.211 HD
ENDBRANCH   1  16
BRANCH  11  18
HETATM   18  C22 UNL     1      38.818  40.282  59.988  1.00  0.00     0.078 C
BRANCH  18  19
HETATM   19  C23 UNL     1      38.809  40.041  61.391  1.00  0.00     0.156 C
HETATM   20  C24 UNL     1      40.348  39.999  61.825  1.00  0.00     0.078 C
BRANCH  19  21
HETATM   21  O4  UNL     1      38.292  40.701  62.417  1.00  0.00    -0.366 OA
ATOM     22  H4  UNL     1      38.648  41.343  63.019  1.00  0.00     0.213 HD
ENDBRANCH  19  21
BRANCH  19  23
HETATM   23  O5  UNL     1      38.517  38.661  61.721  1.00  0.00    -0.366 OA
ATOM     24  H5  UNL     1      39.088  38.048  61.274  1.00  0.00     0.213 HD
ENDBRANCH  19  23
ENDBRANCH  18  19
ENDBRANCH  11  18
BRANCH   2  25
HETATM   25  C6  UNL     1      38.189  36.838  55.832  1.00  0.00     0.011 C
BRANCH  25  26
HETATM   26  C7  UNL     1      39.539  36.449  55.256  1.00  0.00     0.037 C
BRANCH  26  27
HETATM   27  C8  UNL     1      39.359  36.005  53.811  1.00  0.00     0.051 C
HETATM   28  C9  UNL     1      37.941  35.601  53.533  1.00  0.00     0.045 C
HETATM   29  C10 UNL     1      39.774  37.068  52.848  1.00  0.00     0.045 C
BRANCH  27  30
HETATM   30  O2  UNL     1      40.183  34.879  53.630  1.00  0.00    -0.391 OA
ATOM     31  H2  UNL     1      39.873  34.439  52.849  1.00  0.00     0.210 HD
ENDBRANCH  27  30
ENDBRANCH  26  27
ENDBRANCH  25  26
ENDBRANCH   2  25
BRANCH  10  32
HETATM   32  C19 UNL     1      37.530  43.009  60.006  1.00  0.00     0.236 C
HETATM   33  O3  UNL     1      37.055  44.134  60.007  1.00  0.00    -0.306 OA
ENDBRANCH  10  32
TORSDOF 11
ENDMDL