MODEL 5
REMARK VINA RESULT: -5.835331279      3.208      5.690
REMARK  11 active torsions:
REMARK  status: ('A' for Active; 'I' for Inactive)
REMARK    1  A    between atoms: C4_4  and  O1_5
REMARK    2  A    between atoms: C9_11  and  O2_12
REMARK    3  A    between atoms: C13_17  and  O3_18
REMARK    4  A    between atoms: C18_24  and  O4_25
REMARK    5  A    between atoms: O4_25  and  C19_26
REMARK    6  A    between atoms: C19_26  and  C20_27
REMARK    7  A    between atoms: C20_27  and  C21_28
REMARK    8  A    between atoms: C21_28  and  C22_29
REMARK    9  A    between atoms: C22_29  and  C23_30
REMARK   10  A    between atoms: C23_30  and  C24_31
REMARK   11  A    between atoms: C24_31  and  N1_32
ROOT
HETATM    1  C1  UNL     1      36.763  40.678  59.784  1.00  0.00     0.020 C
HETATM    2  C2  UNL     1      37.566  40.692  58.533  1.00  0.00     0.011 C
HETATM    3  C3  UNL     1      37.972  39.221  58.371  1.00  0.00     0.020 C
HETATM    4  C4  UNL     1      36.586  40.963  57.411  1.00  0.00     0.129 C
HETATM    5  C5  UNL     1      36.666  42.148  56.589  1.00  0.00     0.033 C
HETATM    6  C6  UNL     1      37.673  43.198  56.835  1.00  0.00     0.017 C
HETATM    7  C7  UNL     1      38.217  43.000  58.239  1.00  0.00     0.015 C
HETATM    8  C8  UNL     1      37.099  43.492  59.043  1.00  0.00     0.021 C
HETATM    9  C9  UNL     1      39.307  44.068  58.371  1.00  0.00     0.129 C
HETATM   10  C10 UNL     1      39.657  44.116  59.811  1.00  0.00     0.038 C
HETATM   11  C11 UNL     1      39.672  42.765  60.486  1.00  0.00     0.002 C
HETATM   12  C12 UNL     1      40.738  42.856  61.538  1.00  0.00     0.037 C
HETATM   13  C13 UNL     1      42.126  42.898  61.047  1.00  0.00     0.118 C
HETATM   14  C14 UNL     1      42.285  41.884  59.994  1.00  0.00     0.032 C
HETATM   15  C15 UNL     1      41.208  41.546  59.075  1.00  0.00     0.015 C
HETATM   16  C16 UNL     1      39.764  41.606  59.554  1.00  0.00    -0.007 C
HETATM   17  C17 UNL     1      39.731  40.375  60.438  1.00  0.00     0.019 C
HETATM   18  C18 UNL     1      38.773  41.609  58.402  1.00  0.00     0.087 C
ENDROOT
BRANCH  18  19
HETATM   19  O4  UNL     1      39.227  41.209  57.249  1.00  0.00    -0.378 OA
BRANCH  19  20
HETATM   20  C19 UNL     1      40.000  40.896  56.363  1.00  0.00     0.169 C
BRANCH  20  21
HETATM   21  C20 UNL     1      39.592  39.935  55.215  1.00  0.00     0.026 C
BRANCH  21  22
HETATM   22  C21 UNL     1      40.801  39.100  54.940  1.00  0.00     0.002 C
BRANCH  22  23
HETATM   23  C22 UNL     1      41.399  39.373  53.588  1.00  0.00     0.002 C
BRANCH  23  24
HETATM   24  C23 UNL     1      42.729  40.069  53.691  1.00  0.00     0.027 C
BRANCH  24  25
HETATM   25  C24 UNL     1      42.521  41.552  53.459  1.00  0.00     0.229 C
BRANCH  25  26
HETATM   26  N1  UNL     1      41.354  41.752  52.618  1.00  0.00    -0.079 N
ATOM     27  H13 UNL     1      41.471  41.342  51.691  1.00  0.00     0.274 HD
ATOM     28  H12 UNL     1      40.557  41.194  52.924  1.00  0.00     0.274 HD
ATOM     29  H11 UNL     1      41.132  42.747  52.573  1.00  0.00     0.274 HD
ENDBRANCH  25  26
ENDBRANCH  24  25
ENDBRANCH  23  24
ENDBRANCH  22  23
ENDBRANCH  21  22
ENDBRANCH  20  21
ENDBRANCH  19  20
ENDBRANCH  18  19
BRANCH   4  30
HETATM   30  O1  UNL     1      36.337  39.834  56.583  1.00  0.00    -0.395 OA
ATOM     31  H1  UNL     1      37.081  39.579  56.050  1.00  0.00     0.210 HD
ENDBRANCH   4  30
BRANCH   9  32
HETATM   32  O2  UNL     1      38.681  45.298  58.044  1.00  0.00    -0.395 OA
ATOM     33  H2  UNL     1      39.348  45.820  57.614  1.00  0.00     0.210 HD
ENDBRANCH   9  32
BRANCH  13  34
HETATM   34  O3  UNL     1      43.078  42.766  62.082  1.00  0.00    -0.396 OA
ATOM     35  H3  UNL     1      42.862  43.282  62.849  1.00  0.00     0.210 HD
ENDBRANCH  13  34
TORSDOF 11
ENDMDL