MODEL 4
REMARK VINA RESULT: -7.461228364      5.155      9.189
REMARK  11 active torsions:
REMARK  status: ('A' for Active; 'I' for Inactive)
REMARK    1  A    between atoms: C2_2  and  C3_3
REMARK    2  A    between atoms: C3_3  and  C5_5
REMARK    3  A    between atoms: C8_8  and  C9_9
REMARK    4  A    between atoms: C9_9  and  C10_10
REMARK    5  A    between atoms: C10_10  and  C11_11
REMARK    6  A    between atoms: C11_11  and  C12_12
REMARK    7  A    between atoms: N1_14  and  O1_16
REMARK    8  A    between atoms: C15_19  and  C16_20
REMARK    9  A    between atoms: C19_23  and  O2_24
REMARK   10  A    between atoms: C22_28  and  O3_29
REMARK   11  A    between atoms: C25_33  and  O4_34
ROOT
HETATM    1  C5  UNL     1      36.638  37.985  57.602  1.00  0.00     0.051 C
HETATM    2  C6  UNL     1      36.170  36.723  56.942  1.00  0.00    -0.074 C
HETATM    3  C7  UNL     1      35.602  36.794  55.771  1.00  0.00     0.015 C
HETATM    4  C8  UNL     1      36.340  35.449  57.669  1.00  0.00     0.043 C
HETATM    5  C14 UNL     1      35.493  35.568  58.910  1.00  0.00    -0.069 C
HETATM    6  C15 UNL     1      34.786  34.607  59.428  1.00  0.00     0.004 C
HETATM    7  C24 UNL     1      35.485  36.911  59.572  1.00  0.00     0.067 C
HETATM    8  C25 UNL     1      36.629  37.792  59.125  1.00  0.00     0.131 C
ENDROOT
BRANCH   4   9
HETATM    9  C9  UNL     1      36.141  34.195  56.952  1.00  0.00     0.014 C
BRANCH   9  10
HETATM   10  C10 UNL     1      37.211  33.790  55.970  1.00  0.00     0.007 C
BRANCH  10  11
HETATM   11  C11 UNL     1      36.594  33.262  54.678  1.00  0.00     0.054 C
BRANCH  11  12
HETATM   12  C12 UNL     1      37.456  33.694  53.542  1.00  0.00     0.006 C
HETATM   13  C13 UNL     1      38.172  34.983  53.529  1.00  0.00     0.065 C
HETATM   14  N1  UNL     1      37.571  32.898  52.539  1.00  0.00    -0.278 N
ATOM     15  H1  UNL     1      37.068  32.011  52.567  1.00  0.00     0.193 HD
BRANCH  14  16
HETATM   16  O1  UNL     1      38.327  33.172  51.439  1.00  0.00    -0.290 OA
ATOM     17  H1  UNL     1      39.277  33.181  51.442  1.00  0.00     0.244 HD
ENDBRANCH  14  16
ENDBRANCH  11  12
ENDBRANCH  10  11
ENDBRANCH   9  10
ENDBRANCH   4   9
BRANCH   6  18
HETATM   18  C16 UNL     1      33.991  34.822  60.641  1.00  0.00     0.003 C
HETATM   19  C17 UNL     1      33.367  33.812  61.237  1.00  0.00    -0.074 C
HETATM   20  C18 UNL     1      33.517  32.472  60.616  1.00  0.00     0.070 C
HETATM   21  C23 UNL     1      32.555  34.020  62.473  1.00  0.00     0.070 C
HETATM   22  C19 UNL     1      32.786  31.429  61.418  1.00  0.00     0.152 C
HETATM   23  C20 UNL     1      31.429  31.943  61.709  1.00  0.00    -0.032 C
HETATM   24  C21 UNL     1      30.357  31.254  61.336  1.00  0.00     0.019 C
HETATM   25  C22 UNL     1      31.265  33.230  62.420  1.00  0.00     0.152 C
BRANCH  22  26
HETATM   26  O2  UNL     1      33.479  31.087  62.577  1.00  0.00    -0.391 OA
ATOM     27  H2  UNL     1      33.469  31.791  63.216  1.00  0.00     0.210 HD
ENDBRANCH  22  26
BRANCH  25  28
HETATM   28  O3  UNL     1      30.257  33.983  61.776  1.00  0.00    -0.391 OA
ATOM     29  H3  UNL     1      30.098  34.775  62.276  1.00  0.00     0.210 HD
ENDBRANCH  25  28
ENDBRANCH   6  18
BRANCH   8  30
HETATM   30  O4  UNL     1      37.856  37.310  59.573  1.00  0.00    -0.395 OA
ATOM     31  H4  UNL     1      38.238  37.896  60.217  1.00  0.00     0.210 HD
ENDBRANCH   8  30
BRANCH   1  32
HETATM   32  C3  UNL     1      38.043  38.356  57.223  1.00  0.00     0.014 C
HETATM   33  C4  UNL     1      37.965  39.749  56.588  1.00  0.00     0.015 C
BRANCH  32  34
HETATM   34  C2  UNL     1      38.627  37.447  56.216  1.00  0.00    -0.032 C
HETATM   35  C1  UNL     1      39.758  36.788  56.419  1.00  0.00     0.007 C
ENDBRANCH  32  34
ENDBRANCH   1  32
TORSDOF 11
ENDMDL