MODEL 3
REMARK VINA RESULT: -4.192346504      9.814     10.779
REMARK  0 active torsions:
REMARK  status: ('A' for Active; 'I' for Inactive)
ROOT
HETATM    1  F1  UNL     1       0.166  -7.840  26.400  1.00  0.00    -0.165 F
HETATM    2  C1  UNL     1       0.792  -8.230  25.224  1.00  0.00     0.513 C
HETATM    3 CL1  UNL     1       2.530  -7.922  25.266  1.00  0.00    -0.022 Cl
HETATM    4  N1  UNL     1       0.455  -9.593  24.816  1.00  0.00     0.037 N
ATOM      5  H11 UNL     1       0.168 -10.274  25.519  1.00  0.00     0.288 HD
ATOM      6  H12 UNL     1       1.193 -10.222  24.498  1.00  0.00     0.288 HD
HETATM    7  C2  UNL     1      -0.529  -9.084  23.854  1.00  0.00     0.301 C
HETATM    8  C3  UNL     1      -1.898  -9.183  24.432  1.00  0.00     0.070 C
HETATM    9  C4  UNL     1      -2.863  -8.600  23.401  1.00  0.00     0.004 C
HETATM   10  C5  UNL     1      -2.835  -9.598  22.247  1.00  0.00     0.000 C
HETATM   11  C6  UNL     1      -1.500  -9.725  21.619  1.00  0.00     0.004 C
HETATM   12  C7  UNL     1      -0.340  -9.720  22.535  1.00  0.00     0.070 C
HETATM   13  N2  UNL     1       0.117  -7.780  24.014  1.00  0.00     0.037 N
ATOM     14  H21 UNL     1       0.666  -7.394  23.247  1.00  0.00     0.288 HD
ATOM     15  H22 UNL     1      -0.456  -6.936  24.043  1.00  0.00     0.288 HD
ENDROOT
TORSDOF 0
ENDMDL