MODEL 1
REMARK VINA RESULT: -4.359218991      0.000      0.000
REMARK  2 active torsions:
REMARK  status: ('A' for Active; 'I' for Inactive)
REMARK    1  A    between atoms: C3_3  and  C4_4
REMARK    2  A    between atoms: N1_9  and  O1_11
ROOT
HETATM    1  C1  UNL     1      -2.307  -8.779  23.906  1.00  0.00     0.112 C
HETATM    2  C2  UNL     1      -0.942  -8.563  24.422  1.00  0.00    -0.108 C
HETATM    3  C3  UNL     1       0.178  -8.408  24.842  1.00  0.00    -0.063 C
ENDROOT
BRANCH   3   4
HETATM    4  C4  UNL     1       1.559  -8.237  25.346  1.00  0.00     0.166 C
HETATM    5  F1  UNL     1       1.880  -6.908  25.142  1.00  0.00    -0.229 F
HETATM    6  C5  UNL     1       2.503  -9.154  24.562  1.00  0.00     0.063 C
HETATM    7  C6  UNL     1       3.912  -8.842  24.947  1.00  0.00     0.058 C
HETATM    8  C7  UNL     1       4.026  -9.016  26.426  1.00  0.00     0.010 C
HETATM    9  N1  UNL     1       5.172  -8.809  26.999  1.00  0.00    -0.277 N
HETATM   10  C8  UNL     1       2.829  -9.418  27.165  1.00  0.00     0.058 C
ATOM     11  H1  UNL     1       5.260  -8.927  28.008  1.00  0.00     0.193 HD
HETATM   12  C9  UNL     1       1.613  -8.596  26.796  1.00  0.00     0.063 C
BRANCH   9  13
HETATM   13  O1  UNL     1       6.259  -8.436  26.264  1.00  0.00    -0.290 OA
ATOM     14  H1  UNL     1       6.342  -7.548  25.938  1.00  0.00     0.244 HD
ENDBRANCH   9  13
ENDBRANCH   3   4
TORSDOF 2
ENDMDL