MODEL 5
REMARK VINA RESULT: -4.210928723      2.716      3.525
REMARK  2 active torsions:
REMARK  status: ('A' for Active; 'I' for Inactive)
REMARK    1  A    between atoms: C1_4  and  C2_6
REMARK    2  A    between atoms: C7_11  and  O1_12
ROOT
HETATM    1  C2  UNL     1       2.447  -1.905  20.286  1.00  0.00     0.076 C
HETATM    2  C3  UNL     1       3.683  -1.506  19.571  1.00  0.00     0.014 C
HETATM    3  C4  UNL     1       4.500  -0.456  20.219  1.00  0.00     0.001 C
HETATM    4  C5  UNL     1       3.752   0.734  20.704  1.00  0.00     0.002 C
HETATM    5  C6  UNL     1       2.315   0.501  20.993  1.00  0.00     0.032 C
HETATM    6  C7  UNL     1       1.977  -0.923  21.323  1.00  0.00     0.129 C
ENDROOT
BRANCH   1   7
HETATM    7  C1  UNL     1       1.394  -2.199  19.275  1.00  0.00     0.080 C
HETATM    8  N1  UNL     1       1.629  -2.609  18.098  1.00  0.00    -0.393 N
ATOM      9  H12 UNL     1       0.907  -2.810  17.406  1.00  0.00     0.156 HD
ATOM     10  H11 UNL     1       2.598  -2.750  17.816  1.00  0.00     0.156 HD
HETATM   11 CL1  UNL     1      -0.270  -1.956  19.760  1.00  0.00    -0.069 Cl
ENDBRANCH   1   7
BRANCH   6  12
HETATM   12  O1  UNL     1       2.509  -1.197  22.582  1.00  0.00    -0.395 OA
ATOM     13  H1  UNL     1       2.225  -0.567  23.233  1.00  0.00     0.210 HD
ENDBRANCH   6  12
TORSDOF 2
ENDMDL