MODEL 3
REMARK VINA RESULT: -4.765598404      0.992      1.252
REMARK  2 active torsions:
REMARK  status: ('A' for Active; 'I' for Inactive)
REMARK    1  A    between atoms: C2_2  and  C3_3
REMARK    2  A    between atoms: C8_11  and  O1_12
ROOT
HETATM    1  C1  UNL     1       1.668  -3.585  19.823  1.00  0.00     0.027 C
HETATM    2  C2  UNL     1       1.597  -2.144  20.350  1.00  0.00     0.080 C
HETATM    3  C4  UNL     1       1.630  -2.232  21.842  1.00  0.00     0.021 C
HETATM    4  C5  UNL     1       1.975  -0.947  22.527  1.00  0.00     0.001 C
HETATM    5  C6  UNL     1       3.183  -0.267  21.943  1.00  0.00     0.002 C
HETATM    6  C7  UNL     1       3.048  -0.092  20.461  1.00  0.00     0.033 C
HETATM    7  C8  UNL     1       2.815  -1.442  19.847  1.00  0.00     0.135 C
ENDROOT
BRANCH   2   8
HETATM    8  C3  UNL     1       0.311  -1.569  19.819  1.00  0.00     0.397 C
HETATM    9  F1  UNL     1      -0.722  -2.283  20.441  1.00  0.00    -0.170 F
HETATM   10  F2  UNL     1       0.239  -1.813  18.473  1.00  0.00    -0.170 F
HETATM   11  F3  UNL     1       0.118  -0.254  20.152  1.00  0.00    -0.170 F
ENDBRANCH   2   8
BRANCH   7  12
HETATM   12  O1  UNL     1       2.855  -1.410  18.457  1.00  0.00    -0.395 OA
ATOM     13  H1  UNL     1       3.462  -0.753  18.137  1.00  0.00     0.210 HD
ENDBRANCH   7  12
TORSDOF 2
ENDMDL