MODEL 3
REMARK VINA RESULT: -4.084605846      1.146      2.100
REMARK  1 active torsions:
REMARK  status: ('A' for Active; 'I' for Inactive)
REMARK    1  A    between atoms: C2_2  and  C3_5
ROOT
HETATM    1  C3  UNL     1       2.256  -1.230  20.666  1.00  0.00     0.171 A
HETATM    2  N1  UNL     1       1.062  -1.895  20.659  1.00  0.00    -0.282 N
ATOM      3  H1  UNL     1       0.327  -1.791  21.360  1.00  0.00     0.188 HD
HETATM    4  N2  UNL     1       1.005  -2.694  19.608  1.00  0.00    -0.275 N
ATOM      5  H2  UNL     1       0.221  -3.301  19.370  1.00  0.00     0.189 HD
HETATM    6  C4  UNL     1       2.132  -2.581  18.909  1.00  0.00     0.192 A
HETATM    7  S1  UNL     1       2.570  -3.347  17.533  1.00  0.00    -0.039 SA
HETATM    8  N3  UNL     1       2.897  -1.673  19.571  1.00  0.00    -0.316 N
ATOM      9  H3  UNL     1       3.826  -1.371  19.279  1.00  0.00     0.169 HD
ENDROOT
BRANCH   1  10
HETATM   10  C2  UNL     1       2.654  -0.250  21.706  1.00  0.00     0.298 C
HETATM   11  C1  UNL     1       4.132   0.099  21.561  1.00  0.00     0.099 C
HETATM   12  F1  UNL     1       1.884   0.903  21.657  1.00  0.00    -0.198 F
HETATM   13  F2  UNL     1       2.509  -0.775  22.984  1.00  0.00    -0.198 F
ENDBRANCH   1  10
TORSDOF 1
ENDMDL