MODEL 4
REMARK VINA RESULT: -4.653542115      3.539      4.136
REMARK  1 active torsions:
REMARK  status: ('A' for Active; 'I' for Inactive)
REMARK    1  A    between atoms: C1_2  and  C2_5
ROOT
HETATM    1  C2  UNL     1       2.945  -1.908  19.126  1.00  0.00     0.207 A
HETATM    2  N1  UNL     1       4.239  -1.544  19.128  1.00  0.00    -0.279 N
ATOM      3  H1  UNL     1       4.944  -1.886  18.475  1.00  0.00     0.188 HD
HETATM    4  N2  UNL     1       4.465  -0.669  20.110  1.00  0.00    -0.275 N
ATOM      5  H2  UNL     1       5.359  -0.233  20.335  1.00  0.00     0.189 HD
HETATM    6  C3  UNL     1       3.303  -0.467  20.747  1.00  0.00     0.192 A
HETATM    7  S1  UNL     1       3.078   0.538  22.036  1.00  0.00    -0.039 SA
HETATM    8  N3  UNL     1       2.391  -1.221  20.143  1.00  0.00    -0.313 N
ATOM      9  H3  UNL     1       1.408  -1.272  20.413  1.00  0.00     0.170 HD
ENDROOT
BRANCH   1  10
HETATM   10  C1  UNL     1       2.292  -2.857  18.190  1.00  0.00     0.450 C
HETATM   11  F1  UNL     1       1.305  -3.550  18.869  1.00  0.00    -0.163 F
HETATM   12  F2  UNL     1       3.193  -3.793  17.733  1.00  0.00    -0.163 F
HETATM   13  F3  UNL     1       1.675  -2.185  17.133  1.00  0.00    -0.163 F
ENDBRANCH   1  10
TORSDOF 1
ENDMDL