MODEL 1
REMARK VINA RESULT: -4.423779957      0.000      0.000
REMARK  1 active torsions:
REMARK  status: ('A' for Active; 'I' for Inactive)
REMARK    1  A    between atoms: N1_2  and  C2_4
ROOT
HETATM    1  C2  UNL     1      -4.854  -8.095  14.377  1.00  0.00     0.268 C
HETATM    2  F1  UNL     1      -5.125  -9.410  13.985  1.00  0.00    -0.200 F
HETATM    3  S1  UNL     1      -5.255  -7.072  12.906  1.00  0.00    -0.023 SA
HETATM    4  C3  UNL     1      -3.527  -6.824  12.476  1.00  0.00     0.143 C
HETATM    5  N2  UNL     1      -3.002  -6.333  11.411  1.00  0.00    -0.380 N
ATOM      6  H21 UNL     1      -2.021  -6.193  11.168  1.00  0.00     0.158 HD
ATOM      7  H22 UNL     1      -3.526  -5.993  10.605  1.00  0.00     0.158 HD
HETATM    8  N3  UNL     1      -2.813  -7.288  13.571  1.00  0.00    -0.339 N
ATOM      9  H3  UNL     1      -1.806  -7.135  13.626  1.00  0.00     0.167 HD
HETATM   10  C4  UNL     1      -3.397  -7.883  14.477  1.00  0.00     0.056 C
HETATM   11  C5  UNL     1      -2.691  -8.408  15.705  1.00  0.00     0.070 C
ENDROOT
BRANCH   1  12
HETATM   12  N1  UNL     1      -5.609  -7.694  15.489  1.00  0.00    -0.378 N
HETATM   13  C1  UNL     1      -6.257  -8.686  16.266  1.00  0.00     0.144 C
ATOM     14  H1  UNL     1      -5.690  -6.707  15.733  1.00  0.00     0.157 HD
ENDBRANCH   1  12
TORSDOF 1
ENDMDL