MODEL 3
REMARK VINA RESULT: -5.030958492      2.375      3.334
REMARK  2 active torsions:
REMARK  status: ('A' for Active; 'I' for Inactive)
REMARK    1  A    between atoms: C7_10  and  O1_11
REMARK    2  A    between atoms: C7_10  and  C8_13
ROOT
HETATM    1  N1  UNL     1       0.077  -1.229  20.348  1.00  0.00    -0.403 N
ATOM      2  H11 UNL     1      -0.041  -0.233  20.535  1.00  0.00     0.155 HD
ATOM      3  H12 UNL     1      -0.598  -1.954  20.104  1.00  0.00     0.155 HD
HETATM    4  C1  UNL     1       1.323  -1.587  20.455  1.00  0.00     0.020 C
HETATM    5  C2  UNL     1       1.494  -3.041  20.183  1.00  0.00     0.055 C
HETATM    6  C3  UNL     1       1.825  -3.132  18.707  1.00  0.00     0.006 C
HETATM    7  C4  UNL     1       2.971  -2.239  18.318  1.00  0.00     0.000 C
HETATM    8  C5  UNL     1       3.901  -1.911  19.428  1.00  0.00     0.004 C
HETATM    9  C6  UNL     1       3.600  -0.627  20.134  1.00  0.00     0.050 C
HETATM   10  C7  UNL     1       2.292  -0.546  20.805  1.00  0.00     0.154 C
ENDROOT
BRANCH  10  11
HETATM   11  O1  UNL     1       1.699   0.691  20.461  1.00  0.00    -0.378 OA
ATOM     12  H1  UNL     1       1.952   1.310  21.135  1.00  0.00     0.211 HD
ENDBRANCH  10  11
BRANCH  10  13
HETATM   13  C8  UNL     1       2.408  -0.548  22.336  1.00  0.00     0.392 C
HETATM   14  F1  UNL     1       3.729  -0.397  22.715  1.00  0.00    -0.211 F
HETATM   15  F2  UNL     1       1.963  -1.757  22.824  1.00  0.00    -0.211 F
ENDBRANCH  10  13
TORSDOF 2
ENDMDL