MODEL 4
REMARK VINA RESULT: -3.606764856      2.910      3.528
REMARK  2 active torsions:
REMARK  status: ('A' for Active; 'I' for Inactive)
REMARK    1  A    between atoms: O1_1  and  C1_3
REMARK    2  A    between atoms: C4_6  and  C5_8
ROOT
HETATM    1  C1  UNL     1       2.469  -2.954  18.662  1.00  0.00     0.118 C
HETATM    2  C2  UNL     1       1.436  -3.212  19.703  1.00  0.00     0.033 C
HETATM    3  C3  UNL     1       1.581  -2.401  20.953  1.00  0.00     0.033 C
HETATM    4  C4  UNL     1       2.066  -1.007  20.754  1.00  0.00     0.116 C
HETATM    5  S1  UNL     1       0.661   0.077  20.374  1.00  0.00    -0.077 SA
HETATM    6  C6  UNL     1       3.083  -0.848  19.661  1.00  0.00     0.033 C
HETATM    7  C7  UNL     1       3.656  -2.187  19.215  1.00  0.00     0.033 C
ENDROOT
BRANCH   4   8
HETATM    8  C5  UNL     1       2.702  -0.500  22.042  1.00  0.00     0.405 C
HETATM    9  F1  UNL     1       2.403   0.833  22.264  1.00  0.00    -0.169 F
HETATM   10  F2  UNL     1       4.082  -0.587  21.982  1.00  0.00    -0.169 F
HETATM   11  F3  UNL     1       2.261  -1.207  23.140  1.00  0.00    -0.169 F
ENDBRANCH   4   8
BRANCH   1  12
HETATM   12  O1  UNL     1       1.924  -2.242  17.578  1.00  0.00    -0.396 OA
ATOM     13  H1  UNL     1       2.482  -2.309  16.813  1.00  0.00     0.210 HD
ENDBRANCH   1  12
TORSDOF 2
ENDMDL