MODEL 5
REMARK VINA RESULT: -3.649459119      2.250      2.436
REMARK  2 active torsions:
REMARK  status: ('A' for Active; 'I' for Inactive)
REMARK    1  A    between atoms: N1_2  and  C2_4
REMARK    2  A    between atoms: C2_4  and  C3_8
ROOT
HETATM    1  C2  UNL     1       1.967  -2.084  19.263  1.00  0.00     0.144 C
HETATM    2  N2  UNL     1       2.169  -2.432  18.046  1.00  0.00    -0.383 N
ATOM      3  H21 UNL     1       3.033  -2.142  17.589  1.00  0.00     0.157 HD
ATOM      4  H22 UNL     1       1.455  -2.988  17.575  1.00  0.00     0.157 HD
ENDROOT
BRANCH   1   5
HETATM    5  N1  UNL     1       0.768  -2.486  19.898  1.00  0.00    -0.278 N
HETATM    6  C1  UNL     1       0.661  -3.674  20.709  1.00  0.00     0.173 C
HETATM    7 CL1  UNL     1      -0.639  -1.488  19.678  1.00  0.00     0.014 Cl
ENDBRANCH   1   5
BRANCH   1   8
HETATM    8  C3  UNL     1       2.985  -1.291  19.936  1.00  0.00     0.145 C
HETATM    9  S1  UNL     1       2.590  -0.319  21.214  1.00  0.00    -0.063 SA
HETATM   10 CL2  UNL     1       4.659  -1.303  19.460  1.00  0.00    -0.067 Cl
ENDBRANCH   1   8
TORSDOF 2
ENDMDL