MODEL 1
REMARK VINA RESULT: -4.356558593      0.000      0.000
REMARK  1 active torsions:
REMARK  status: ('A' for Active; 'I' for Inactive)
REMARK    1  A    between atoms: C2_2  and  C3_5
ROOT
HETATM    1  C3  UNL     1       1.299  -1.816  20.406  1.00  0.00     0.038 C
HETATM    2  C4  UNL     1       1.161  -3.298  20.769  1.00  0.00     0.023 C
HETATM    3  C5  UNL     1       1.968  -1.749  19.075  1.00  0.00     0.024 C
HETATM    4  C6  UNL     1       3.460  -2.005  19.277  1.00  0.00     0.074 C
HETATM    5  C7  UNL     1       3.958  -0.800  20.026  1.00  0.00     0.088 C
HETATM    6  N1  UNL     1       5.144  -0.162  19.617  1.00  0.00    -0.088 NA
HETATM    7  N2  UNL     1       3.247  -0.423  21.014  1.00  0.00    -0.381 N
ATOM      8  H2  UNL     1       3.567   0.394  21.534  1.00  0.00     0.160 HD
HETATM    9  C8  UNL     1       2.027  -1.053  21.460  1.00  0.00     0.135 C
ENDROOT
BRANCH   1  10
HETATM   10  C2  UNL     1      -0.129  -1.280  20.341  1.00  0.00     0.248 C
HETATM   11  C1  UNL     1      -0.184   0.132  20.809  1.00  0.00     0.091 C
HETATM   12  F1  UNL     1      -0.537  -1.331  19.030  1.00  0.00    -0.206 F
HETATM   13  F2  UNL     1      -0.958  -2.065  21.087  1.00  0.00    -0.206 F
ENDBRANCH   1  10
TORSDOF 1
ENDMDL