MODEL 1
REMARK VINA RESULT: -4.233649589      0.000      0.000
REMARK  1 active torsions:
REMARK  status: ('A' for Active; 'I' for Inactive)
REMARK    1  A    between atoms: C3_3  and  C4_4
ROOT
HETATM    1  C1  UNL     1       3.670  -0.042  21.885  1.00  0.00     0.068 C
HETATM    2  C2  UNL     1       2.845  -0.875  20.954  1.00  0.00     0.018 A
HETATM    3  C3  UNL     1       3.354  -1.394  19.871  1.00  0.00     0.068 A
HETATM    4  C5  UNL     1       2.488  -2.211  18.984  1.00  0.00     0.127 A
HETATM    5  N1  UNL     1       3.059  -2.769  17.808  1.00  0.00    -0.082 NA
HETATM    6  N2  UNL     1       1.261  -2.395  19.289  1.00  0.00    -0.352 N
ATOM      7  H2  UNL     1       0.707  -2.964  18.648  1.00  0.00     0.163 HD
HETATM    8  C6  UNL     1       0.592  -1.880  20.443  1.00  0.00     0.097 A
HETATM    9  C7  UNL     1       0.142  -3.074  21.272  1.00  0.00     0.062 C
HETATM   10  C8  UNL     1      -0.598  -1.073  19.964  1.00  0.00     0.062 C
HETATM   11  N3  UNL     1       1.457  -1.091  21.286  1.00  0.00    -0.367 N
ATOM     12  H3  UNL     1       1.079  -0.676  22.138  1.00  0.00     0.162 HD
ENDROOT
BRANCH   3  13
HETATM   13  C4  UNL     1       4.750  -1.229  19.452  1.00  0.00     0.392 C
HETATM   14  F1  UNL     1       5.639  -2.176  19.828  1.00  0.00    -0.209 F
HETATM   15  F2  UNL     1       5.238  -0.010  19.949  1.00  0.00    -0.209 F
ENDBRANCH   3  13
TORSDOF 1
ENDMDL