MODEL 2
REMARK VINA RESULT: -3.830887573      2.326      3.315
REMARK  1 active torsions:
REMARK  status: ('A' for Active; 'I' for Inactive)
REMARK    1  A    between atoms: C5_11  and  C6_12
ROOT
HETATM    1  C1  UNL     1      -6.389  -7.589  15.901  1.00  0.00     0.029 C
HETATM    2  C2  UNL     1      -5.556  -8.125  14.774  1.00  0.00     0.034 C
HETATM    3  C3  UNL     1      -6.422  -8.821  13.784  1.00  0.00     0.029 C
HETATM    4  S1  UNL     1      -4.366  -9.323  15.510  1.00  0.00    -0.083 SA
HETATM    5  C4  UNL     1      -3.013  -8.178  15.611  1.00  0.00     0.135 C
HETATM    6  N1  UNL     1      -1.907  -8.428  16.149  1.00  0.00    -0.380 N
ATOM      7  H11 UNL     1      -1.129  -7.770  16.208  1.00  0.00     0.158 HD
ATOM      8  H12 UNL     1      -1.596  -9.287  16.603  1.00  0.00     0.158 HD
HETATM    9  N2  UNL     1      -3.439  -6.998  14.988  1.00  0.00    -0.360 N
ATOM     10  H2  UNL     1      -2.929  -6.118  15.075  1.00  0.00     0.162 HD
HETATM   11  C5  UNL     1      -4.627  -7.113  14.229  1.00  0.00     0.166 C
ENDROOT
BRANCH  11  12
HETATM   12  C6  UNL     1      -4.299  -7.306  12.767  1.00  0.00     0.377 C
HETATM   13  F1  UNL     1      -3.105  -6.605  12.547  1.00  0.00    -0.212 F
HETATM   14  F2  UNL     1      -5.231  -6.670  11.941  1.00  0.00    -0.212 F
ENDBRANCH  11  12
TORSDOF 1
ENDMDL