MODEL 1
REMARK VINA RESULT: -4.468841981      0.000      0.000
REMARK  2 active torsions:
REMARK  status: ('A' for Active; 'I' for Inactive)
REMARK    1  A    between atoms: C6_6  and  O1_7
REMARK    2  A    between atoms: O1_7  and  O2_8
ROOT
HETATM    1  C1  UNL     1       7.061  -7.170  26.685  1.00  0.00     0.018 C
HETATM    2  C2  UNL     1       8.508  -7.272  26.965  1.00  0.00    -0.012 C
HETATM    3  C3  UNL     1       8.953  -8.710  27.078  1.00  0.00     0.018 C
HETATM    4  C4  UNL     1       9.048  -6.444  28.112  1.00  0.00     0.074 C
HETATM    5  C5  UNL     1       8.400  -5.085  28.183  1.00  0.00     0.068 C
HETATM    6  C6  UNL     1       8.319  -4.416  26.853  1.00  0.00     0.255 C
HETATM    7  N1  UNL     1       8.773  -5.200  25.753  1.00  0.00    -0.384 N
ATOM      8  H1  UNL     1       8.640  -4.902  24.787  1.00  0.00     0.156 HD
HETATM    9  C7  UNL     1       9.419  -6.415  26.077  1.00  0.00     0.160 C
HETATM   10  C8  UNL     1      10.333  -6.322  27.280  1.00  0.00     0.268 C
HETATM   11  F1  UNL     1      11.010  -5.156  27.436  1.00  0.00    -0.204 F
HETATM   12  F2  UNL     1      11.187  -7.388  27.406  1.00  0.00    -0.204 F
ENDROOT
BRANCH   6  13
HETATM   13  O1  UNL     1       8.959  -3.178  26.817  1.00  0.00    -0.217 OA
BRANCH  13  14
HETATM   14  O2  UNL     1       8.162  -2.174  26.678  1.00  0.00    -0.248 OA
ATOM     15  H2  UNL     1       8.148  -1.807  25.802  1.00  0.00     0.253 HD
ENDBRANCH  13  14
ENDBRANCH   6  13
TORSDOF 2
ENDMDL