MODEL 3
REMARK VINA RESULT: -3.515221960      9.515     10.589
REMARK  1 active torsions:
REMARK  status: ('A' for Active; 'I' for Inactive)
REMARK    1  A    between atoms: C2_2  and  C4_4
ROOT
HETATM    1  C4  UNL     1      -3.747  -8.270  15.265  1.00  0.00     0.086 C
HETATM    2  C5  UNL     1      -4.436  -9.324  14.449  1.00  0.00     0.032 C
HETATM    3  C6  UNL     1      -4.971  -8.826  13.140  1.00  0.00     0.089 C
HETATM    4  C7  UNL     1      -4.658  -7.398  12.843  1.00  0.00     0.298 C
HETATM    5  F1  UNL     1      -4.672  -7.170  11.480  1.00  0.00    -0.198 F
HETATM    6  F2  UNL     1      -5.677  -6.590  13.367  1.00  0.00    -0.198 F
HETATM    7  C8  UNL     1      -3.398  -6.910  13.387  1.00  0.00     0.161 C
HETATM    8  N1  UNL     1      -2.649  -5.951  12.609  1.00  0.00    -0.081 NA
HETATM    9  N2  UNL     1      -2.987  -7.327  14.519  1.00  0.00    -0.372 N
ATOM     10  H2  UNL     1      -2.103  -6.982  14.894  1.00  0.00     0.161 HD
ENDROOT
BRANCH   1  11
HETATM   11  C2  UNL     1      -2.897  -8.943  16.350  1.00  0.00     0.000 C
HETATM   12  C1  UNL     1      -3.054  -8.264  17.672  1.00  0.00     0.011 C
HETATM   13  C3  UNL     1      -1.435  -8.941  15.963  1.00  0.00     0.011 C
ENDBRANCH   1  11
TORSDOF 1
ENDMDL