MODEL 3
REMARK VINA RESULT: -4.145633199      1.221      1.632
REMARK  4 active torsions:
REMARK  status: ('A' for Active; 'I' for Inactive)
REMARK    1  A    between atoms: N1_2  and  N2_3
REMARK    2  A    between atoms: N1_2  and  C2_7
REMARK    3  A    between atoms: N2_3  and  N3_4
REMARK    4  A    between atoms: C2_7  and  C3_11
ROOT
HETATM    1  C2  UNL     1       2.508  -1.220  20.260  1.00  0.00     0.144 C
HETATM    2  N4  UNL     1       2.939  -0.065  20.609  1.00  0.00    -0.384 N
ATOM      3  H41 UNL     1       2.484   0.488  21.336  1.00  0.00     0.157 HD
ATOM      4  H42 UNL     1       3.764   0.312  20.144  1.00  0.00     0.157 HD
ENDROOT
BRANCH   1   5
HETATM    5  N1  UNL     1       3.145  -1.995  19.242  1.00  0.00    -0.198 N
HETATM    6  C1  UNL     1       2.407  -2.285  18.033  1.00  0.00     0.197 C
BRANCH   5   7
HETATM    7  N2  UNL     1       4.405  -2.458  19.382  1.00  0.00    -0.240 NA
BRANCH   7   8
HETATM    8  N3  UNL     1       5.466  -2.849  19.518  1.00  0.00    -0.260 N
ATOM      9  H32 UNL     1       4.573  -3.152  19.132  1.00  0.00     0.193 HD
ATOM     10  H31 UNL     1       6.421  -3.185  19.649  1.00  0.00     0.193 HD
ENDBRANCH   7   8
ENDBRANCH   5   7
ENDBRANCH   1   5
BRANCH   1  11
HETATM   11  C3  UNL     1       1.311  -1.767  20.933  1.00  0.00     0.169 C
HETATM   12  C4  UNL     1       1.216  -3.251  20.767  1.00  0.00     0.059 C
HETATM   13 CL1  UNL     1      -0.157  -0.965  20.337  1.00  0.00    -0.093 Cl
HETATM   14 CL2  UNL     1       1.525  -1.449  22.686  1.00  0.00    -0.093 Cl
ENDBRANCH   1  11
TORSDOF 4
ENDMDL