MODEL 5
REMARK VINA RESULT: -2.813775759      3.101      4.021
REMARK  3 active torsions:
REMARK  status: ('A' for Active; 'I' for Inactive)
REMARK    1  A    between atoms: C2_2  and  S1_5
REMARK    2  A    between atoms: S1_5  and  C5_6
REMARK    3  A    between atoms: C5_6  and  N1_7
ROOT
HETATM    1  C5  UNL     1       1.782  -0.286  21.542  1.00  0.00     0.389 C
HETATM    2  F1  UNL     1       1.775   1.008  21.963  1.00  0.00    -0.180 F
HETATM    3 CL1  UNL     1       0.184  -0.551  20.773  1.00  0.00    -0.041 Cl
ENDROOT
BRANCH   1   4
HETATM    4  S1  UNL     1       3.026  -0.763  20.393  1.00  0.00    -0.072 SA
BRANCH   4   5
HETATM    5  C2  UNL     1       2.744  -2.106  19.303  1.00  0.00     0.003 C
HETATM    6  C1  UNL     1       2.227  -1.818  17.940  1.00  0.00     0.026 C
HETATM    7  C3  UNL     1       4.087  -2.806  19.083  1.00  0.00     0.026 C
HETATM    8  C4  UNL     1       1.840  -3.123  19.978  1.00  0.00     0.026 C
ENDBRANCH   4   5
ENDBRANCH   1   4
BRANCH   1   9
HETATM    9  N1  UNL     1       1.813  -1.227  22.661  1.00  0.00    -0.018 N
ATOM     10  H13 UNL     1       1.311  -0.883  23.480  1.00  0.00     0.280 HD
ATOM     11  H12 UNL     1       1.247  -2.059  22.493  1.00  0.00     0.280 HD
ATOM     12  H11 UNL     1       2.789  -1.449  22.861  1.00  0.00     0.280 HD
ENDBRANCH   1   9
TORSDOF 3
ENDMDL