MODEL 5
REMARK VINA RESULT: -3.408370042      2.725      3.868
REMARK  1 active torsions:
REMARK  status: ('A' for Active; 'I' for Inactive)
REMARK    1  A    between atoms: N1_10  and  O1_12
ROOT
HETATM    1  C1  UNL     1       2.556  -2.553  17.427  1.00  0.00     0.015 C
HETATM    2  C2  UNL     1       2.866  -2.439  18.928  1.00  0.00    -0.042 C
HETATM    3  C3  UNL     1       4.287  -3.005  19.068  1.00  0.00     0.015 C
HETATM    4  C4  UNL     1       1.975  -3.297  19.745  1.00  0.00     0.015 C
HETATM    5  C5  UNL     1       0.784  -2.624  20.331  1.00  0.00     0.086 C
HETATM    6  C6  UNL     1       1.092  -1.370  21.090  1.00  0.00     0.283 C
HETATM    7  F1  UNL     1      -0.032  -0.559  21.029  1.00  0.00    -0.200 F
HETATM    8  F2  UNL     1       1.326  -1.646  22.443  1.00  0.00    -0.200 F
HETATM    9  C7  UNL     1       2.264  -0.655  20.558  1.00  0.00     0.081 C
HETATM   10  N1  UNL     1       2.760   0.301  21.273  1.00  0.00    -0.271 N
ATOM     11  H1  UNL     1       3.572   0.805  20.919  1.00  0.00     0.193 HD
HETATM   12  C8  UNL     1       2.867  -0.996  19.270  1.00  0.00     0.069 C
ENDROOT
BRANCH  10  13
HETATM   13  O1  UNL     1       2.236   0.666  22.492  1.00  0.00    -0.290 OA
ATOM     14  H1  UNL     1       2.760   1.060  23.179  1.00  0.00     0.244 HD
ENDBRANCH  10  13
TORSDOF 1
ENDMDL