MODEL 5
REMARK VINA RESULT: -3.760421309      2.150      2.672
REMARK  0 active torsions:
REMARK  status: ('A' for Active; 'I' for Inactive)
ROOT
HETATM    1  C1  UNL     1      -0.588  -1.295  20.404  1.00  0.00     0.017 C
HETATM    2  C2  UNL     1       0.853  -0.842  20.254  1.00  0.00     0.069 C
HETATM    3  C3  UNL     1       1.260  -0.222  21.530  1.00  0.00     0.093 C
HETATM    4  S1  UNL     1       3.019  -0.028  21.771  1.00  0.00    -0.094 SA
HETATM    5  C4  UNL     1       3.827  -0.787  20.361  1.00  0.00     0.137 C
HETATM    6  N1  UNL     1       5.022  -0.456  20.002  1.00  0.00    -0.380 N
ATOM      7  H11 UNL     1       5.482  -0.888  19.200  1.00  0.00     0.158 HD
ATOM      8  H12 UNL     1       5.566   0.249  20.500  1.00  0.00     0.158 HD
HETATM    9  N2  UNL     1       3.078  -1.760  19.674  1.00  0.00    -0.322 N
ATOM     10  H2  UNL     1       3.603  -2.407  19.085  1.00  0.00     0.166 HD
HETATM   11  C5  UNL     1       1.667  -1.941  19.713  1.00  0.00     0.260 C
HETATM   12  F1  UNL     1       1.266  -2.148  18.380  1.00  0.00    -0.200 F
HETATM   13 CL1  UNL     1       1.368  -3.509  20.511  1.00  0.00    -0.059 Cl
ENDROOT
TORSDOF 0
ENDMDL