MODEL 2
REMARK VINA RESULT: -4.804439417      2.315      2.867
REMARK  1 active torsions:
REMARK  status: ('A' for Active; 'I' for Inactive)
REMARK    1  A    between atoms: N1_8  and  O1_10
ROOT
HETATM    1  C1  UNL     1       1.945   1.049  21.634  1.00  0.00     0.053 C
HETATM    2  C2  UNL     1       1.982  -0.462  21.441  1.00  0.00     0.115 C
HETATM    3  F1  UNL     1       1.834  -1.108  22.642  1.00  0.00    -0.242 F
HETATM    4  C3  UNL     1       0.852  -0.837  20.549  1.00  0.00     0.045 C
HETATM    5  C4  UNL     1       0.351  -2.239  20.854  1.00  0.00     0.011 C
HETATM    6  C5  UNL     1       1.368  -3.269  20.385  1.00  0.00     0.078 C
HETATM    7  C6  UNL     1       2.243  -2.595  19.390  1.00  0.00     0.097 C
HETATM    8  N1  UNL     1       2.233  -3.043  18.176  1.00  0.00    -0.257 N
ATOM      9  H1  UNL     1       1.627  -3.835  17.961  1.00  0.00     0.195 HD
HETATM   10  N2  UNL     1       3.110  -1.493  19.617  1.00  0.00    -0.375 N
ATOM     11  H2  UNL     1       3.624  -1.143  18.808  1.00  0.00     0.160 HD
HETATM   12  C7  UNL     1       3.343  -0.812  20.881  1.00  0.00     0.164 C
ENDROOT
BRANCH   8  13
HETATM   13  O1  UNL     1       2.980  -2.523  17.174  1.00  0.00    -0.288 OA
ATOM     14  H1  UNL     1       3.350  -3.038  16.467  1.00  0.00     0.244 HD
ENDBRANCH   8  13
TORSDOF 1
ENDMDL