MODEL 5
REMARK VINA RESULT: -8.261077370      2.262      4.333
REMARK  11 active torsions:
REMARK  status: ('A' for Active; 'I' for Inactive)
REMARK    1  A    between atoms: C4_4  and  O1_5
REMARK    2  A    between atoms: C6_8  and  O2_9
REMARK    3  A    between atoms: C12_16  and  C13_17
REMARK    4  A    between atoms: C13_17  and  C14_18
REMARK    5  A    between atoms: C14_18  and  C15_19
REMARK    6  A    between atoms: C15_19  and  C16_20
REMARK    7  A    between atoms: C16_20  and  C17_21
REMARK    8  A    between atoms: C17_21  and  C18_22
REMARK    9  A    between atoms: C18_22  and  C20_24
REMARK   10  A    between atoms: C24_29  and  O4_30
REMARK   11  A    between atoms: C25_32  and  O5_33
ROOT
HETATM    1  C1  UNL     1      13.937  -5.100  40.423  1.00  0.00     0.017 C
HETATM    2  C2  UNL     1      12.885  -4.974  41.207  1.00  0.00    -0.052 C
HETATM    3  C3  UNL     1      12.860  -5.270  42.658  1.00  0.00     0.068 C
HETATM    4  C4  UNL     1      11.954  -4.139  43.165  1.00  0.00     0.132 C
HETATM    5  C5  UNL     1      10.868  -4.069  42.109  1.00  0.00     0.088 C
HETATM    6  C6  UNL     1      11.527  -4.520  40.831  1.00  0.00     0.090 C
HETATM    7  C7  UNL     1      10.825  -5.651  40.144  1.00  0.00     0.048 C
HETATM    8  C8  UNL     1       9.325  -5.447  40.120  1.00  0.00    -0.009 C
HETATM    9  C9  UNL     1       8.720  -6.684  39.491  1.00  0.00     0.010 C
HETATM   10  C10 UNL     1       8.740  -5.221  41.456  1.00  0.00     0.025 C
HETATM   11  C11 UNL     1       8.174  -3.828  41.751  1.00  0.00     0.015 C
HETATM   12  C12 UNL     1       8.595  -4.093  43.160  1.00  0.00     0.021 C
HETATM   13  C25 UNL     1       9.738  -4.925  42.543  1.00  0.00     0.074 C
ENDROOT
BRANCH  12  14
HETATM   14  C13 UNL     1       9.003  -3.032  44.075  1.00  0.00     0.007 C
BRANCH  14  15
HETATM   15  C14 UNL     1       8.299  -3.023  45.384  1.00  0.00     0.000 C
BRANCH  15  16
HETATM   16  C15 UNL     1       7.353  -1.920  45.672  1.00  0.00     0.000 C
BRANCH  16  17
HETATM   17  C16 UNL     1       5.976  -2.559  45.994  1.00  0.00     0.001 C
BRANCH  17  18
HETATM   18  C17 UNL     1       5.423  -3.231  44.769  1.00  0.00     0.011 C
BRANCH  18  19
HETATM   19  C18 UNL     1       4.448  -2.230  44.139  1.00  0.00     0.042 C
HETATM   20  C19 UNL     1       3.741  -1.429  45.194  1.00  0.00     0.017 C
BRANCH  19  21
HETATM   21  C20 UNL     1       3.422  -2.962  43.337  1.00  0.00     0.090 A
HETATM   22  O3  UNL     1       2.280  -3.432  43.763  1.00  0.00    -0.323 OA
HETATM   23  C21 UNL     1       1.638  -4.013  42.787  1.00  0.00     0.151 A
HETATM   24  C22 UNL     1       2.387  -3.931  41.633  1.00  0.00    -0.004 A
HETATM   25  C23 UNL     1       2.017  -4.464  40.303  1.00  0.00     0.053 C
HETATM   26  C24 UNL     1       3.544  -3.246  42.001  1.00  0.00     0.103 A
BRANCH  26  27
HETATM   27  O4  UNL     1       4.541  -2.971  41.104  1.00  0.00    -0.358 OA
ATOM     28  H4  UNL     1       4.942  -3.503  40.426  1.00  0.00     0.217 HD
ENDBRANCH  26  27
ENDBRANCH  19  21
ENDBRANCH  18  19
ENDBRANCH  17  18
ENDBRANCH  16  17
ENDBRANCH  15  16
ENDBRANCH  14  15
ENDBRANCH  12  14
BRANCH  13  29
HETATM   29  O5  UNL     1      10.044  -6.072  43.262  1.00  0.00    -0.388 OA
ATOM     30  H5  UNL     1       9.342  -6.692  43.417  1.00  0.00     0.210 HD
ENDBRANCH  13  29
BRANCH   4  31
HETATM   31  O1  UNL     1      12.745  -2.992  43.165  1.00  0.00    -0.395 OA
ATOM     32  H1  UNL     1      12.867  -2.763  42.251  1.00  0.00     0.210 HD
ENDBRANCH   4  31
BRANCH   6  33
HETATM   33  O2  UNL     1      11.695  -3.449  39.921  1.00  0.00    -0.385 OA
ATOM     34  H2  UNL     1      12.282  -3.759  39.242  1.00  0.00     0.211 HD
ENDBRANCH   6  33
TORSDOF 11
ENDMDL