MODEL 5
REMARK VINA RESULT: -8.565236623      3.572      8.151
REMARK  9 active torsions:
REMARK  status: ('A' for Active; 'I' for Inactive)
REMARK    1  A    between atoms: C6_8  and  O1_9
REMARK    2  A    between atoms: C7_11  and  C8_12
REMARK    3  A    between atoms: C12_16  and  C13_17
REMARK    4  A    between atoms: C13_17  and  C15_19
REMARK    5  A    between atoms: C15_19  and  O2_20
REMARK    6  A    between atoms: C15_19  and  C16_22
REMARK    7  A    between atoms: C16_22  and  C17_23
REMARK    8  A    between atoms: C16_22  and  C19_25
REMARK    9  A    between atoms: C19_25  and  C21_27
ROOT
HETATM    1  C1  UNL     1       8.698  -5.527  42.872  1.00  0.00     0.018 C
HETATM    2  C2  UNL     1       9.620  -5.292  42.161  1.00  0.00    -0.075 C
HETATM    3  C3  UNL     1      10.716  -5.013  41.290  1.00  0.00     0.050 A
HETATM    4  C4  UNL     1      10.642  -5.183  39.925  1.00  0.00     0.026 A
HETATM    5  C5  UNL     1       9.451  -5.670  39.165  1.00  0.00     0.070 C
HETATM    6  N1  UNL     1      11.810  -4.844  39.357  1.00  0.00    -0.339 N
ATOM      7  H1  UNL     1      12.025  -4.876  38.360  1.00  0.00     0.168 HD
HETATM    8  C6  UNL     1      12.646  -4.456  40.334  1.00  0.00     0.148 A
HETATM    9  C7  UNL     1      11.987  -4.549  41.566  1.00  0.00     0.018 A
ENDROOT
BRANCH   9  10
HETATM   10  C8  UNL     1      12.597  -4.265  42.883  1.00  0.00     0.034 C
HETATM   11  C9  UNL     1      11.970  -2.923  43.328  1.00  0.00     0.079 C
HETATM   12  C10 UNL     1      11.685  -2.985  44.786  1.00  0.00     0.187 C
HETATM   13  C11 UNL     1      11.788  -4.407  45.186  1.00  0.00     0.075 C
HETATM   14  O3  UNL     1      10.420  -2.445  45.182  1.00  0.00    -0.259 OA
HETATM   15  O5  UNL     1      12.217  -2.004  45.624  1.00  0.00    -0.259 OA
HETATM   16  C12 UNL     1      12.449  -5.100  44.026  1.00  0.00     0.009 C
HETATM   17  C24 UNL     1      11.032  -2.041  46.362  1.00  0.00     0.412 C
HETATM   18  O4  UNL     1      10.646  -1.820  47.544  1.00  0.00    -0.229 OA
BRANCH  16  19
HETATM   19  C13 UNL     1      13.627  -5.847  44.621  1.00  0.00     0.043 C
HETATM   20  C14 UNL     1      13.093  -6.310  45.983  1.00  0.00     0.017 C
BRANCH  19  21
HETATM   21  C15 UNL     1      14.894  -5.149  44.804  1.00  0.00     0.050 C
BRANCH  21  22
HETATM   22  O2  UNL     1      14.863  -3.964  45.494  1.00  0.00    -0.364 OA
ATOM     23  H2  UNL     1      14.870  -4.012  46.443  1.00  0.00     0.217 HD
ENDBRANCH  21  22
BRANCH  21  24
HETATM   24  C16 UNL     1      16.185  -5.847  44.984  1.00  0.00    -0.047 C
BRANCH  24  25
HETATM   25  C17 UNL     1      16.279  -6.460  46.386  1.00  0.00     0.033 C
HETATM   26  C18 UNL     1      15.999  -7.862  46.604  1.00  0.00     0.010 C
ENDBRANCH  24  25
BRANCH  24  27
HETATM   27  C19 UNL     1      16.913  -6.574  43.961  1.00  0.00     0.016 C
HETATM   28  C20 UNL     1      16.371  -6.104  42.574  1.00  0.00     0.015 C
BRANCH  27  29
HETATM   29  C21 UNL     1      18.352  -6.646  43.752  1.00  0.00    -0.015 C
HETATM   30  C22 UNL     1      18.543  -6.572  42.194  1.00  0.00     0.010 C
HETATM   31  C23 UNL     1      19.225  -5.497  44.180  1.00  0.00     0.010 C
ENDBRANCH  27  29
ENDBRANCH  24  27
ENDBRANCH  21  24
ENDBRANCH  19  21
ENDBRANCH  16  19
ENDBRANCH   9  10
BRANCH   8  32
HETATM   32  O1  UNL     1      13.951  -4.050  40.035  1.00  0.00    -0.346 OA
ATOM     33  H1  UNL     1      14.306  -4.170  39.162  1.00  0.00     0.219 HD
ENDBRANCH   8  32
TORSDOF 9
ENDMDL