MODEL 2
REMARK VINA RESULT: -8.673518562      2.000      4.374
REMARK  7 active torsions:
REMARK  status: ('A' for Active; 'I' for Inactive)
REMARK    1  A    between atoms: C2_2  and  C3_3
REMARK    2  A    between atoms: C3_3  and  C4_4
REMARK       I    between atoms: C4_4  and  N1_6
REMARK    3  A    between atoms: N1_6  and  C5_8
REMARK    4  A    between atoms: C7_10  and  N2_11
REMARK    5  A    between atoms: C13_17  and  N3_18
REMARK       I    between atoms: N3_18  and  C14_20
REMARK       I    between atoms: C14_20  and  N4_22
REMARK    6  A    between atoms: N4_22  and  C15_24
REMARK    7  A    between atoms: C22_31  and  O3_32
ROOT
HETATM    1  C5  UNL     1      12.683  -4.216  43.952  1.00  0.00     0.070 A
HETATM    2  C6  UNL     1      12.091  -4.849  42.886  1.00  0.00     0.064 A
HETATM    3  C7  UNL     1      10.825  -4.569  42.425  1.00  0.00     0.059 A
HETATM    4  C13 UNL     1      10.101  -3.569  43.101  1.00  0.00     0.065 A
HETATM    5  C21 UNL     1      10.698  -2.935  44.171  1.00  0.00     0.071 A
HETATM    6  C22 UNL     1      11.963  -3.213  44.633  1.00  0.00     0.097 A
ENDROOT
BRANCH   4   7
HETATM    7  N3  UNL     1       8.806  -3.310  42.648  1.00  0.00    -0.307 N
HETATM    8  C14 UNL     1       7.602  -3.830  43.137  1.00  0.00     0.321 C
HETATM    9  O2  UNL     1       7.555  -4.624  44.084  1.00  0.00    -0.247 OA
HETATM   10  N4  UNL     1       6.345  -3.425  42.507  1.00  0.00    -0.338 N
ATOM     11  H4  UNL     1       6.359  -2.771  41.724  1.00  0.00     0.164 HD
ATOM     12  H3  UNL     1       8.727  -2.661  41.864  1.00  0.00     0.170 HD
BRANCH  10  13
HETATM   13  C15 UNL     1       5.075  -3.947  42.992  1.00  0.00     0.086 C
HETATM   14  C16 UNL     1       4.625  -3.167  44.200  1.00  0.00     0.025 C
HETATM   15  C17 UNL     1       3.669  -2.066  43.921  1.00  0.00     0.002 C
HETATM   16  C18 UNL     1       2.547  -2.451  42.988  1.00  0.00     0.000 C
HETATM   17  C19 UNL     1       2.689  -3.864  42.479  1.00  0.00     0.002 C
HETATM   18  C20 UNL     1       4.066  -4.016  41.895  1.00  0.00     0.025 C
ENDBRANCH  10  13
ENDBRANCH   4   7
BRANCH   3  19
HETATM   19  N2  UNL     1      10.275  -5.231  41.297  1.00  0.00    -0.379 N
HETATM   20  C8  UNL     1      10.573  -4.831  39.914  1.00  0.00     0.123 C
HETATM   21  C9  UNL     1      11.335  -6.013  39.307  1.00  0.00     0.020 C
HETATM   22  C10 UNL     1      10.427  -7.200  39.285  1.00  0.00     0.003 C
HETATM   23  C11 UNL     1       9.173  -7.009  40.079  1.00  0.00     0.020 C
HETATM   24  C12 UNL     1       9.363  -6.369  41.412  1.00  0.00     0.123 C
ENDBRANCH   3  19
BRANCH   6  25
HETATM   25  O3  UNL     1      12.520  -2.548  45.712  1.00  0.00    -0.354 OA
HETATM   26  C23 UNL     1      11.871  -1.469  46.357  1.00  0.00     0.210 C
ENDBRANCH   6  25
BRANCH   1  27
HETATM   27  N1  UNL     1      13.971  -4.483  44.443  1.00  0.00    -0.324 N
HETATM   28  C4  UNL     1      14.364  -5.527  45.274  1.00  0.00     0.225 C
HETATM   29  O1  UNL     1      13.586  -6.394  45.709  1.00  0.00    -0.273 OA
ATOM     30  H1  UNL     1      14.705  -3.835  44.156  1.00  0.00     0.169 HD
BRANCH  28  31
HETATM   31  C3  UNL     1      15.796  -5.683  45.719  1.00  0.00     0.129 C
BRANCH  31  32
HETATM   32  C2  UNL     1      15.936  -6.566  46.884  1.00  0.00    -0.028 C
HETATM   33  C1  UNL     1      15.983  -7.886  46.746  1.00  0.00     0.007 C
ENDBRANCH  31  32
ENDBRANCH  28  31
ENDBRANCH   1  27
TORSDOF 7
ENDMDL