MODEL 4
REMARK VINA RESULT: -6.962906142      4.251      6.840
REMARK  11 active torsions:
REMARK  status: ('A' for Active; 'I' for Inactive)
REMARK    1  A    between atoms: C2_2  and  C3_3
REMARK    2  A    between atoms: C3_3  and  O1_4
REMARK    3  A    between atoms: C5_7  and  C7_9
REMARK    4  A    between atoms: C7_9  and  C8_10
REMARK    5  A    between atoms: C8_10  and  O2_11
REMARK    6  A    between atoms: C8_10  and  C9_13
REMARK    7  A    between atoms: C9_13  and  O3_14
REMARK    8  A    between atoms: C9_13  and  C10_16
REMARK    9  A    between atoms: C10_16  and  C11_17
REMARK   10  A    between atoms: C17_24  and  O5_25
REMARK   11  A    between atoms: C18_27  and  C20_29
ROOT
HETATM    1  C3  UNL     1      12.980  -4.572  42.096  1.00  0.00     0.066 C
HETATM    2  C4  UNL     1      12.192  -3.918  43.240  1.00  0.00     0.056 C
HETATM    3  C5  UNL     1      11.879  -4.778  44.395  1.00  0.00     0.026 C
HETATM    4  C6  UNL     1      10.599  -5.564  44.247  1.00  0.00     0.024 C
HETATM    5  C14 UNL     1      12.964  -5.803  44.631  1.00  0.00     0.164 C
HETATM    6  O4  UNL     1      12.803  -6.735  45.461  1.00  0.00    -0.292 OA
HETATM    7  C15 UNL     1      14.187  -5.722  43.909  1.00  0.00    -0.006 C
HETATM    8  C16 UNL     1      15.303  -6.205  44.406  1.00  0.00     0.016 C
HETATM    9  C17 UNL     1      16.595  -6.132  43.670  1.00  0.00     0.150 C
HETATM   10  C18 UNL     1      16.460  -6.137  42.191  1.00  0.00    -0.011 C
HETATM   11  C19 UNL     1      17.160  -4.944  41.590  1.00  0.00     0.018 C
HETATM   12  C23 UNL     1      15.001  -6.078  41.700  1.00  0.00     0.025 C
HETATM   13  C24 UNL     1      14.280  -5.086  42.549  1.00  0.00     0.057 C
ENDROOT
BRANCH   3  14
HETATM   14  C7  UNL     1      11.872  -3.942  45.654  1.00  0.00     0.051 C
BRANCH  14  15
HETATM   15  C8  UNL     1      11.347  -2.561  45.531  1.00  0.00     0.148 C
BRANCH  15  16
HETATM   16  O2  UNL     1      12.231  -1.567  45.919  1.00  0.00    -0.393 OA
ATOM     17  H2  UNL     1      11.838  -0.713  46.048  1.00  0.00     0.210 HD
ENDBRANCH  15  16
BRANCH  15  18
HETATM   18  C9  UNL     1      10.086  -2.399  46.381  1.00  0.00     0.147 C
BRANCH  18  19
HETATM   19  O3  UNL     1      10.379  -1.719  47.549  1.00  0.00    -0.393 OA
ATOM     20  H3  UNL     1      10.011  -2.175  48.297  1.00  0.00     0.210 HD
ENDBRANCH  18  19
BRANCH  18  21
HETATM   21  C10 UNL     1       8.895  -1.937  45.646  1.00  0.00     0.038 C
BRANCH  21  22
HETATM   22  C11 UNL     1       8.067  -2.946  44.942  1.00  0.00    -0.020 C
HETATM   23  C12 UNL     1       8.193  -2.914  43.448  1.00  0.00     0.009 C
HETATM   24  C13 UNL     1       6.602  -2.595  45.275  1.00  0.00     0.009 C
ENDBRANCH  21  22
ENDBRANCH  18  21
ENDBRANCH  15  18
ENDBRANCH  14  15
ENDBRANCH   3  14
BRANCH   1  25
HETATM   25  C2  UNL     1      12.076  -5.474  41.324  1.00  0.00     0.034 C
HETATM   26  C1  UNL     1      10.985  -4.841  40.541  1.00  0.00     0.008 C
ENDBRANCH   1  25
BRANCH   1  27
HETATM   27  O1  UNL     1      13.225  -3.447  41.264  1.00  0.00    -0.389 OA
ATOM     28  H1  UNL     1      13.798  -2.871  41.756  1.00  0.00     0.210 HD
ENDBRANCH   1  27
BRANCH   9  29
HETATM   29  O5  UNL     1      17.394  -7.183  44.109  1.00  0.00    -0.391 OA
ATOM     30  H5  UNL     1      18.066  -7.328  43.455  1.00  0.00     0.210 HD
ENDBRANCH   9  29
BRANCH  10  31
HETATM   31  C20 UNL     1      17.065  -7.369  41.550  1.00  0.00    -0.012 C
HETATM   32  C21 UNL     1      18.310  -7.070  40.776  1.00  0.00     0.010 C
HETATM   33  C22 UNL     1      16.091  -8.083  40.666  1.00  0.00     0.010 C
ENDBRANCH  10  31
TORSDOF 11
ENDMDL