MODEL 1
REMARK VINA RESULT: -8.684281802      0.000      0.000
REMARK  8 active torsions:
REMARK  status: ('A' for Active; 'I' for Inactive)
REMARK    1  A    between atoms: C2_2  and  C3_3
REMARK    2  A    between atoms: C3_3  and  C4_4
REMARK    3  A    between atoms: C4_4  and  C5_5
REMARK    4  A    between atoms: C5_5  and  C6_6
REMARK    5  A    between atoms: C6_6  and  N1_7
REMARK    6  A    between atoms: N1_7  and  C7_10
REMARK    7  A    between atoms: C18_21  and  O1_22
REMARK    8  A    between atoms: O1_22  and  C19_23
ROOT
HETATM    1  C7  UNL     1       3.779  -3.527  43.341  1.00  0.00     0.186 C
HETATM    2  C8  UNL     1       4.968  -3.759  42.429  1.00  0.00     0.034 C
HETATM    3  C9  UNL     1       6.132  -2.917  42.787  1.00  0.00     0.012 C
HETATM    4  C10 UNL     1       6.610  -3.202  44.233  1.00  0.00    -0.036 C
HETATM    5  C11 UNL     1       6.988  -4.694  44.118  1.00  0.00     0.016 C
HETATM    6  C12 UNL     1       5.407  -3.120  45.086  1.00  0.00    -0.004 C
HETATM    7  C13 UNL     1       5.563  -2.364  46.376  1.00  0.00     0.006 C
HETATM    8  C14 UNL     1       7.042  -2.417  46.797  1.00  0.00     0.006 C
HETATM    9  C15 UNL     1       7.726  -1.546  45.816  1.00  0.00    -0.002 C
HETATM   10  C16 UNL     1       7.755  -2.316  44.483  1.00  0.00     0.001 C
HETATM   11  C17 UNL     1       9.101  -2.913  44.214  1.00  0.00     0.040 C
HETATM   12  C18 UNL     1       9.934  -3.272  45.416  1.00  0.00     0.158 C
HETATM   13  C21 UNL     1      10.052  -2.236  46.439  1.00  0.00     0.075 C
HETATM   14  C22 UNL     1       9.882  -2.685  47.856  1.00  0.00     0.038 C
HETATM   15  N2  UNL     1      11.246  -1.419  46.405  1.00  0.00    -0.135 NA
HETATM   16  N3  UNL     1      10.870  -0.362  47.264  1.00  0.00    -0.147 NA
HETATM   17  C23 UNL     1       9.444  -0.099  47.015  1.00  0.00     0.137 C
HETATM   18  C24 UNL     1       9.090  -1.118  46.044  1.00  0.00     0.034 C
HETATM   19  C25 UNL     1       4.177  -2.563  44.394  1.00  0.00     0.038 C
ENDROOT
BRANCH   1  20
HETATM   20  N1  UNL     1       2.617  -3.105  42.541  1.00  0.00    -0.071 N
ATOM     21  H12 UNL     1       2.896  -2.832  41.600  1.00  0.00     0.277 HD
ATOM     22  H11 UNL     1       2.249  -2.212  42.867  1.00  0.00     0.277 HD
BRANCH  20  23
HETATM   23  C6  UNL     1       1.607  -4.095  42.509  1.00  0.00     0.232 C
BRANCH  23  24
HETATM   24  C5  UNL     1       1.693  -5.032  41.371  1.00  0.00     0.027 C
BRANCH  24  25
HETATM   25  C4  UNL     1       1.740  -4.548  39.993  1.00  0.00     0.002 C
BRANCH  25  26
HETATM   26  C3  UNL     1       3.039  -4.463  39.284  1.00  0.00    -0.000 C
BRANCH  26  27
HETATM   27  C2  UNL     1       3.781  -5.782  39.207  1.00  0.00    -0.005 C
HETATM   28  C1  UNL     1       4.425  -6.032  37.875  1.00  0.00     0.005 C
ENDBRANCH  26  27
ENDBRANCH  25  26
ENDBRANCH  24  25
ENDBRANCH  23  24
ENDBRANCH  20  23
ENDBRANCH   1  20
BRANCH  12  29
HETATM   29  O1  UNL     1      11.239  -3.550  44.894  1.00  0.00    -0.314 OA
BRANCH  29  30
HETATM   30  C19 UNL     1      11.643  -4.827  44.530  1.00  0.00     0.255 C
HETATM   31  C20 UNL     1      12.428  -5.641  45.478  1.00  0.00     0.126 C
HETATM   32  O2  UNL     1      11.331  -5.250  43.407  1.00  0.00    -0.266 OA
ENDBRANCH  29  30
ENDBRANCH  12  29
TORSDOF 8
ENDMDL