MODEL 2
REMARK VINA RESULT: -7.932101395      2.965      4.655
REMARK  10 active torsions:
REMARK  status: ('A' for Active; 'I' for Inactive)
REMARK    1  A    between atoms: C2_2  and  C3_3
REMARK    2  A    between atoms: C3_3  and  C4_4
REMARK    3  A    between atoms: C4_4  and  O1_5
REMARK    4  A    between atoms: C5_8  and  C6_9
REMARK    5  A    between atoms: C7_10  and  C8_11
REMARK    6  A    between atoms: C8_11  and  O3_12
REMARK    7  A    between atoms: C8_11  and  C9_14
REMARK    8  A    between atoms: C9_14  and  C10_15
REMARK    9  A    between atoms: C10_15  and  C11_16
REMARK   10  A    between atoms: C18_23  and  O4_24
ROOT
HETATM    1  C8  UNL     1       8.462  -4.700  41.659  1.00  0.00     0.140 C
ENDROOT
BRANCH   1   2
HETATM    2  C7  UNL     1       7.169  -4.978  42.321  1.00  0.00     0.003 C
HETATM    3  C6  UNL     1       6.501  -3.982  42.883  1.00  0.00     0.004 C
BRANCH   3   4
HETATM    4  C5  UNL     1       5.174  -4.229  43.569  1.00  0.00     0.151 C
HETATM    5  O2  UNL     1       4.219  -4.582  42.658  1.00  0.00    -0.345 OA
HETATM    6  C4  UNL     1       3.639  -3.540  41.959  1.00  0.00     0.165 C
HETATM    7  C23 UNL     1       2.928  -2.637  42.935  1.00  0.00     0.044 C
HETATM    8  C22 UNL     1       3.851  -2.118  44.007  1.00  0.00     0.016 C
HETATM    9  C24 UNL     1       1.802  -3.361  43.643  1.00  0.00     0.015 C
HETATM   10  C20 UNL     1       4.837  -3.115  44.497  1.00  0.00     0.015 C
HETATM   11  C21 UNL     1       6.091  -2.360  44.960  1.00  0.00     0.012 C
BRANCH   6  12
HETATM   12  C3  UNL     1       2.629  -4.145  41.011  1.00  0.00     0.068 C
BRANCH  12  13
HETATM   13  C2  UNL     1       3.073  -4.152  39.579  1.00  0.00     0.001 C
HETATM   14  C1  UNL     1       3.573  -5.484  39.095  1.00  0.00     0.005 C
ENDBRANCH  12  13
ENDBRANCH   6  12
BRANCH   6  15
HETATM   15  O1  UNL     1       4.528  -2.808  41.214  1.00  0.00    -0.365 OA
ATOM     16  H1  UNL     1       4.896  -2.137  41.778  1.00  0.00     0.213 HD
ENDBRANCH   6  15
ENDBRANCH   3   4
ENDBRANCH   1   2
BRANCH   1  17
HETATM   17  O3  UNL     1       8.256  -4.692  40.284  1.00  0.00    -0.392 OA
ATOM     18  H3  UNL     1       8.115  -5.587  39.998  1.00  0.00     0.210 HD
ENDBRANCH   1  17
BRANCH   1  19
HETATM   19  C9  UNL     1       9.480  -5.778  42.051  1.00  0.00     0.037 C
BRANCH  19  20
HETATM   20  C10 UNL     1      10.015  -5.482  43.420  1.00  0.00     0.027 C
BRANCH  20  21
HETATM   21  C11 UNL     1      11.033  -4.384  43.456  1.00  0.00     0.064 C
HETATM   22  C12 UNL     1      10.488  -3.056  42.997  1.00  0.00     0.024 C
HETATM   23  C13 UNL     1       9.668  -2.322  43.995  1.00  0.00     0.005 C
HETATM   24  C14 UNL     1       9.676  -2.885  45.369  1.00  0.00     0.027 C
HETATM   25  C15 UNL     1      10.902  -3.598  45.734  1.00  0.00    -0.023 C
HETATM   26  C16 UNL     1      11.559  -4.315  44.836  1.00  0.00    -0.062 C
HETATM   27  C17 UNL     1      12.790  -5.019  45.264  1.00  0.00     0.088 C
HETATM   28  C18 UNL     1      13.824  -5.176  44.200  1.00  0.00     0.224 C
HETATM   29  N1  UNL     1      13.255  -5.468  42.903  1.00  0.00    -0.334 N
HETATM   30  C19 UNL     1      12.107  -4.758  42.479  1.00  0.00     0.232 C
ATOM     31  H1  UNL     1      13.676  -6.176  42.301  1.00  0.00     0.165 HD
HETATM   32  O5  UNL     1      11.969  -4.427  41.254  1.00  0.00    -0.272 OA
BRANCH  28  33
HETATM   33  O4  UNL     1      14.667  -6.221  44.555  1.00  0.00    -0.377 OA
ATOM     34  H4  UNL     1      15.154  -5.966  45.330  1.00  0.00     0.212 HD
ENDBRANCH  28  33
ENDBRANCH  20  21
ENDBRANCH  19  20
ENDBRANCH   1  19
TORSDOF 10
ENDMDL