MODEL 4
REMARK VINA RESULT: -7.893342583      2.356      6.058
REMARK  11 active torsions:
REMARK  status: ('A' for Active; 'I' for Inactive)
REMARK    1  A    between atoms: C2_2  and  C9_14
REMARK    2  A    between atoms: C3_3  and  C4_4
REMARK    3  A    between atoms: C4_4  and  O1_5
REMARK    4  A    between atoms: O1_5  and  C5_6
REMARK    5  A    between atoms: C5_6  and  C6_7
REMARK    6  A    between atoms: C6_7  and  O2_8
REMARK    7  A    between atoms: C6_7  and  C7_10
REMARK    8  A    between atoms: C7_10  and  O3_12
REMARK    9  A    between atoms: C9_14  and  C10_15
REMARK   10  A    between atoms: C10_15  and  C11_16
REMARK   11  A    between atoms: C14_19  and  O4_20
ROOT
HETATM    1  C11 UNL     1       9.103  -2.845  43.992  1.00  0.00    -0.003 C
HETATM    2  C12 UNL     1      10.268  -3.353  44.766  1.00  0.00     0.008 C
HETATM    3  C13 UNL     1      10.915  -4.430  43.879  1.00  0.00     0.039 C
HETATM    4  C14 UNL     1      10.132  -4.361  42.615  1.00  0.00     0.069 C
HETATM    5  C15 UNL     1      10.129  -5.566  41.775  1.00  0.00     0.025 C
HETATM    6  C16 UNL     1      11.292  -5.457  40.781  1.00  0.00     0.009 C
HETATM    7  C17 UNL     1      10.602  -5.237  39.458  1.00  0.00     0.010 C
HETATM    8  C18 UNL     1       9.401  -6.150  39.579  1.00  0.00    -0.044 C
HETATM    9  C19 UNL     1       8.363  -5.846  38.526  1.00  0.00     0.015 C
HETATM   10  C20 UNL     1       9.762  -7.599  39.471  1.00  0.00     0.015 C
HETATM   11  C21 UNL     1       8.899  -5.807  40.979  1.00  0.00     0.000 C
HETATM   12  C22 UNL     1       7.943  -4.692  40.870  1.00  0.00     0.007 C
HETATM   13  C23 UNL     1       7.880  -3.726  41.980  1.00  0.00     0.013 C
HETATM   14  C24 UNL     1       8.729  -4.041  43.166  1.00  0.00    -0.009 C
HETATM   15  C25 UNL     1       8.264  -5.227  43.960  1.00  0.00     0.019 C
ENDROOT
BRANCH   1  16
HETATM   16  C10 UNL     1       8.046  -2.158  44.718  1.00  0.00     0.010 C
BRANCH  16  17
HETATM   17  C9  UNL     1       8.142  -2.013  46.190  1.00  0.00     0.034 C
BRANCH  17  18
HETATM   18  C2  UNL     1       6.793  -1.492  46.656  1.00  0.00    -0.086 C
HETATM   19  C1  UNL     1       6.819  -0.502  47.748  1.00  0.00     0.043 C
HETATM   20  C3  UNL     1       5.693  -1.916  46.100  1.00  0.00     0.001 C
BRANCH  20  21
HETATM   21  C4  UNL     1       4.319  -1.506  46.443  1.00  0.00     0.195 C
BRANCH  21  22
HETATM   22  O1  UNL     1       3.468  -1.484  45.374  1.00  0.00    -0.385 OA
BRANCH  22  23
HETATM   23  C5  UNL     1       3.936  -1.093  44.167  1.00  0.00     0.202 C
BRANCH  23  24
HETATM   24  C6  UNL     1       3.397  -1.794  42.965  1.00  0.00     0.170 C
BRANCH  24  25
HETATM   25  O2  UNL     1       2.315  -2.603  43.386  1.00  0.00    -0.391 OA
ATOM     26  H2  UNL     1       2.535  -3.506  43.191  1.00  0.00     0.210 HD
ENDBRANCH  24  25
BRANCH  24  27
HETATM   27  C7  UNL     1       4.450  -2.726  42.346  1.00  0.00     0.145 C
HETATM   28  C8  UNL     1       4.337  -4.059  43.039  1.00  0.00     0.042 C
BRANCH  27  29
HETATM   29  O3  UNL     1       4.183  -2.880  41.009  1.00  0.00    -0.393 OA
ATOM     30  H3  UNL     1       4.901  -3.350  40.601  1.00  0.00     0.210 HD
ENDBRANCH  27  29
ENDBRANCH  24  27
ENDBRANCH  23  24
ENDBRANCH  22  23
ENDBRANCH  21  22
ENDBRANCH  20  21
ENDBRANCH  17  18
ENDBRANCH  16  17
ENDBRANCH   1  16
BRANCH   4  31
HETATM   31  O4  UNL     1      10.548  -3.242  41.879  1.00  0.00    -0.389 OA
ATOM     32  H4  UNL     1      10.237  -3.325  40.985  1.00  0.00     0.210 HD
ENDBRANCH   4  31
TORSDOF 11
ENDMDL