MODEL 2
REMARK VINA RESULT: -8.656477578      1.085      1.678
REMARK  11 active torsions:
REMARK  status: ('A' for Active; 'I' for Inactive)
REMARK    1  A    between atoms: C2_2  and  C3_3
REMARK    2  A    between atoms: C2_2  and  C14_21
REMARK    3  A    between atoms: C3_3  and  C4_4
REMARK    4  A    between atoms: C4_4  and  C5_5
REMARK    5  A    between atoms: C5_5  and  C6_6
REMARK    6  A    between atoms: C6_6  and  C7_7
REMARK    7  A    between atoms: C7_7  and  N1_8
REMARK       I    between atoms: N1_8  and  C8_10
REMARK    8  A    between atoms: C8_10  and  O2_12
REMARK    9  A    between atoms: O2_12  and  C9_13
REMARK   10  A    between atoms: C12_16  and  O3_17
REMARK   11  A    between atoms: C18_25  and  O5_27
ROOT
HETATM    1  C4  UNL     1      11.358  -2.847  45.743  1.00  0.00     0.005 C
ENDROOT
BRANCH   1   2
HETATM    2  C3  UNL     1       9.961  -3.056  46.267  1.00  0.00     0.034 C
BRANCH   2   3
HETATM    3  C2  UNL     1       9.095  -1.839  46.079  1.00  0.00    -0.081 C
HETATM    4  C1  UNL     1       9.538  -0.742  46.667  1.00  0.00     0.015 C
BRANCH   3   5
HETATM    5  C14 UNL     1       7.917  -2.021  45.285  1.00  0.00     0.045 C
HETATM    6  C15 UNL     1       6.684  -2.480  45.994  1.00  0.00    -0.020 C
HETATM    7  C16 UNL     1       5.826  -2.902  45.070  1.00  0.00    -0.022 C
HETATM    8  C17 UNL     1       6.459  -2.739  43.708  1.00  0.00     0.051 C
HETATM    9  C18 UNL     1       5.956  -3.653  42.680  1.00  0.00     0.062 C
HETATM   10  C23 UNL     1       7.936  -2.897  44.087  1.00  0.00    -0.024 C
HETATM   11  C19 UNL     1       4.468  -3.947  42.794  1.00  0.00     0.046 C
HETATM   12  C20 UNL     1       6.674  -4.957  42.550  1.00  0.00     0.038 C
HETATM   13  C21 UNL     1       7.283  -5.331  43.880  1.00  0.00     0.004 C
HETATM   14  C22 UNL     1       8.298  -4.320  44.346  1.00  0.00     0.011 C
HETATM   15  C24 UNL     1       8.830  -2.279  43.042  1.00  0.00     0.017 C
BRANCH   9  16
HETATM   16  O5  UNL     1       6.096  -3.003  41.427  1.00  0.00    -0.390 OA
ATOM     17  H5  UNL     1       5.785  -3.602  40.759  1.00  0.00     0.210 HD
ENDBRANCH   9  16
ENDBRANCH   3   5
ENDBRANCH   2   3
ENDBRANCH   1   2
BRANCH   1  18
HETATM   18  C5  UNL     1      11.983  -4.181  45.343  1.00  0.00     0.005 C
BRANCH  18  19
HETATM   19  C6  UNL     1      13.282  -4.063  44.670  1.00  0.00     0.044 C
BRANCH  19  20
HETATM   20  C7  UNL     1      14.344  -4.995  45.055  1.00  0.00     0.066 C
BRANCH  20  21
HETATM   21  N1  UNL     1      15.702  -4.658  45.113  1.00  0.00    -0.316 N
HETATM   22  C8  UNL     1      16.652  -4.772  46.099  1.00  0.00     0.366 C
HETATM   23  O1  UNL     1      16.587  -5.230  47.259  1.00  0.00    -0.238 OA
ATOM     24  H1  UNL     1      16.057  -4.247  44.250  1.00  0.00     0.170 HD
BRANCH  22  25
HETATM   25  O2  UNL     1      17.957  -4.293  45.784  1.00  0.00    -0.272 OA
BRANCH  25  26
HETATM   26  C9  UNL     1      18.744  -4.879  44.759  1.00  0.00     0.271 C
HETATM   27  C10 UNL     1      18.948  -3.831  43.701  1.00  0.00     0.064 C
HETATM   28  C11 UNL     1      19.298  -4.374  42.359  1.00  0.00     0.038 C
HETATM   29  C12 UNL     1      18.321  -5.509  42.043  1.00  0.00     0.142 C
HETATM   30  C13 UNL     1      18.557  -6.540  43.155  1.00  0.00     0.202 C
HETATM   31  O4  UNL     1      18.047  -5.988  44.306  1.00  0.00    -0.358 OA
BRANCH  29  32
HETATM   32  O3  UNL     1      17.041  -4.980  42.173  1.00  0.00    -0.393 OA
ATOM     33  H3  UNL     1      16.589  -5.156  41.356  1.00  0.00     0.210 HD
ENDBRANCH  29  32
ENDBRANCH  25  26
ENDBRANCH  22  25
ENDBRANCH  20  21
ENDBRANCH  19  20
ENDBRANCH  18  19
ENDBRANCH   1  18
TORSDOF 11
ENDMDL