MODEL 4
REMARK VINA RESULT: -7.916172473      1.186      1.484
REMARK  11 active torsions:
REMARK  status: ('A' for Active; 'I' for Inactive)
REMARK    1  A    between atoms: C2_2  and  C3_3
REMARK    2  A    between atoms: C3_3  and  C4_4
REMARK    3  A    between atoms: C4_4  and  O1_5
REMARK    4  A    between atoms: C12_14  and  O2_15
REMARK    5  A    between atoms: O2_15  and  C13_16
REMARK    6  A    between atoms: C13_16  and  C14_17
REMARK    7  A    between atoms: C14_17  and  O3_18
REMARK    8  A    between atoms: C14_17  and  C15_20
REMARK    9  A    between atoms: C15_20  and  N1_21
REMARK   10  A    between atoms: N1_21  and  C16_24
REMARK   11  A    between atoms: C20_28  and  O4_29
ROOT
HETATM    1  C4  UNL     1      10.802  -3.764  43.286  1.00  0.00     0.068 C
HETATM    2  C5  UNL     1      10.484  -5.261  43.354  1.00  0.00     0.017 C
HETATM    3  C6  UNL     1      11.251  -5.977  44.422  1.00  0.00     0.013 C
HETATM    4  C7  UNL     1       9.022  -5.554  43.318  1.00  0.00     0.008 C
HETATM    5  C8  UNL     1       8.187  -4.344  43.719  1.00  0.00     0.010 C
HETATM    6  C9  UNL     1       8.914  -3.702  44.870  1.00  0.00     0.026 C
HETATM    7  C10 UNL     1       8.092  -2.743  45.613  1.00  0.00    -0.044 A
HETATM    8  C11 UNL     1       6.749  -2.522  45.461  1.00  0.00     0.047 A
HETATM    9  C12 UNL     1       6.088  -1.595  46.232  1.00  0.00     0.102 A
HETATM   10  C20 UNL     1       6.837  -0.870  47.187  1.00  0.00     0.099 A
HETATM   11  C21 UNL     1       8.183  -1.082  47.348  1.00  0.00     0.047 A
HETATM   12  C22 UNL     1       8.802  -2.014  46.566  1.00  0.00    -0.049 A
HETATM   13  C23 UNL     1      10.258  -2.268  46.745  1.00  0.00     0.040 C
HETATM   14  C24 UNL     1      10.956  -2.457  45.428  1.00  0.00     0.013 C
HETATM   15  C25 UNL     1      10.113  -2.958  44.314  1.00  0.00     0.029 C
ENDROOT
BRANCH   9  16
HETATM   16  O2  UNL     1       4.764  -1.346  46.122  1.00  0.00    -0.346 OA
BRANCH  16  17
HETATM   17  C13 UNL     1       3.892  -1.236  45.076  1.00  0.00     0.209 C
BRANCH  17  18
HETATM   18  C14 UNL     1       3.577  -2.502  44.320  1.00  0.00     0.168 C
BRANCH  18  19
HETATM   19  O3  UNL     1       2.214  -2.815  44.493  1.00  0.00    -0.392 OA
ATOM     20  H3  UNL     1       1.690  -2.056  44.266  1.00  0.00     0.210 HD
ENDBRANCH  18  19
BRANCH  18  21
HETATM   21  C15 UNL     1       3.867  -2.291  42.838  1.00  0.00     0.267 C
BRANCH  21  22
HETATM   22  N1  UNL     1       2.857  -2.851  41.985  1.00  0.00    -0.065 N
ATOM     23  H12 UNL     1       1.984  -2.983  42.497  1.00  0.00     0.278 HD
ATOM     24  H11 UNL     1       2.547  -2.165  41.296  1.00  0.00     0.278 HD
BRANCH  22  25
HETATM   25  C16 UNL     1       3.256  -4.065  41.345  1.00  0.00     0.115 C
HETATM   26  C17 UNL     1       4.742  -4.349  41.562  1.00  0.00     0.045 C
HETATM   27  C18 UNL     1       2.391  -5.197  41.797  1.00  0.00     0.045 C
HETATM   28  C19 UNL     1       3.105  -3.954  39.824  1.00  0.00     0.045 C
ENDBRANCH  22  25
ENDBRANCH  21  22
ENDBRANCH  18  21
ENDBRANCH  17  18
ENDBRANCH  16  17
ENDBRANCH   9  16
BRANCH  10  29
HETATM   29  O4  UNL     1       6.131   0.069  47.949  1.00  0.00    -0.358 OA
ATOM     30  H4  UNL     1       6.365   0.128  48.868  1.00  0.00     0.217 HD
ENDBRANCH  10  29
BRANCH   1  31
HETATM   31  C3  UNL     1      12.274  -3.660  43.164  1.00  0.00     0.065 C
BRANCH  31  32
HETATM   32  C2  UNL     1      12.865  -4.077  41.869  1.00  0.00    -0.034 C
HETATM   33  C1  UNL     1      13.660  -5.173  41.809  1.00  0.00     0.007 C
ENDBRANCH  31  32
ENDBRANCH   1  31
BRANCH   1  34
HETATM   34  O1  UNL     1      10.272  -3.398  42.018  1.00  0.00    -0.389 OA
ATOM     35  H1  UNL     1      11.010  -3.366  41.421  1.00  0.00     0.210 HD
ENDBRANCH   1  34
TORSDOF 11
ENDMDL