MODEL 2
REMARK VINA RESULT: -9.023426540      0.742      3.208
REMARK  11 active torsions:
REMARK  status: ('A' for Active; 'I' for Inactive)
REMARK    1  A    between atoms: C2_2  and  C3_3
REMARK    2  A    between atoms: C3_3  and  C6_6
REMARK    3  A    between atoms: C7_7  and  C8_8
REMARK    4  A    between atoms: C8_8  and  C9_9
REMARK    5  A    between atoms: C13_13  and  O1_14
REMARK    6  A    between atoms: C14_16  and  C15_17
REMARK    7  A    between atoms: C15_17  and  O2_18
REMARK    8  A    between atoms: O2_18  and  C16_19
REMARK    9  A    between atoms: C20_23  and  O3_24
REMARK   10  A    between atoms: C24_29  and  O4_30
REMARK   11  A    between atoms: C25_32  and  O5_33
ROOT
HETATM    1  C6  UNL     1       8.366  -3.083  44.288  1.00  0.00    -0.006 A
HETATM    2  C7  UNL     1       8.415  -2.494  45.501  1.00  0.00    -0.045 A
HETATM    3  C12 UNL     1       9.682  -2.175  46.034  1.00  0.00     0.045 A
HETATM    4  C13 UNL     1      10.853  -2.429  45.385  1.00  0.00     0.077 A
HETATM    5  C14 UNL     1      10.821  -3.037  44.119  1.00  0.00     0.032 A
HETATM    6  C25 UNL     1       9.588  -3.346  43.607  1.00  0.00     0.084 A
ENDROOT
BRANCH   5   7
HETATM    7  C15 UNL     1      12.109  -3.266  43.484  1.00  0.00     0.212 C
BRANCH   7   8
HETATM    8  O2  UNL     1      12.405  -4.453  42.918  1.00  0.00    -0.378 OA
BRANCH   8   9
HETATM    9  C16 UNL     1      12.848  -5.363  43.854  1.00  0.00     0.154 C
HETATM   10  C17 UNL     1      13.963  -4.729  44.698  1.00  0.00     0.069 C
HETATM   11  C18 UNL     1      14.485  -5.777  45.612  1.00  0.00    -0.074 C
HETATM   12  C19 UNL     1      15.687  -6.299  45.772  1.00  0.00     0.008 C
HETATM   13  C22 UNL     1      13.519  -6.402  46.554  1.00  0.00     0.019 C
HETATM   14  C20 UNL     1      15.677  -7.342  46.845  1.00  0.00     0.142 C
HETATM   15  C21 UNL     1      14.219  -7.595  47.151  1.00  0.00     0.045 C
HETATM   16  C23 UNL     1      12.370  -6.904  45.714  1.00  0.00     0.043 C
HETATM   17  C24 UNL     1      11.796  -5.835  44.808  1.00  0.00     0.148 C
BRANCH  14  18
HETATM   18  O3  UNL     1      16.231  -8.543  46.383  1.00  0.00    -0.392 OA
ATOM     19  H3  UNL     1      16.455  -8.482  45.461  1.00  0.00     0.210 HD
ENDBRANCH  14  18
BRANCH  17  20
HETATM   20  O4  UNL     1      10.709  -6.426  44.143  1.00  0.00    -0.393 OA
ATOM     21  H4  UNL     1      10.235  -7.030  44.702  1.00  0.00     0.210 HD
ENDBRANCH  17  20
ENDBRANCH   8   9
ENDBRANCH   7   8
ENDBRANCH   5   7
BRANCH   4  22
HETATM   22  O1  UNL     1      12.084  -2.114  45.923  1.00  0.00    -0.360 OA
ATOM     23  H1  UNL     1      12.829  -1.868  45.386  1.00  0.00     0.217 HD
ENDBRANCH   4  22
BRANCH   6  24
HETATM   24  O5  UNL     1       9.553  -3.930  42.380  1.00  0.00    -0.359 OA
ATOM     25  H5  UNL     1       9.742  -3.407  41.610  1.00  0.00     0.217 HD
ENDBRANCH   6  24
BRANCH   1  26
HETATM   26  C3  UNL     1       7.100  -3.536  43.743  1.00  0.00    -0.000 C
HETATM   27  C4  UNL     1       6.995  -5.082  43.913  1.00  0.00     0.024 C
HETATM   28  C5  UNL     1       7.018  -3.352  42.246  1.00  0.00     0.024 C
BRANCH  26  29
HETATM   29  C2  UNL     1       5.859  -2.917  44.253  1.00  0.00    -0.023 C
HETATM   30  C1  UNL     1       4.670  -3.302  43.829  1.00  0.00     0.008 C
ENDBRANCH  26  29
ENDBRANCH   1  26
BRANCH   2  31
HETATM   31  C8  UNL     1       7.331  -2.017  46.376  1.00  0.00     0.044 C
BRANCH  31  32
HETATM   32  C9  UNL     1       7.851  -1.231  47.543  1.00  0.00    -0.010 A
HETATM   33  C10 UNL     1       6.901  -0.240  48.188  1.00  0.00     0.005 A
HETATM   34  C11 UNL     1       8.192   0.180  47.609  1.00  0.00     0.005 A
ENDBRANCH  31  32
ENDBRANCH   2  31
TORSDOF 11
ENDMDL