MODEL 2
REMARK VINA RESULT: -7.507963285      2.160      6.439
REMARK  9 active torsions:
REMARK  status: ('A' for Active; 'I' for Inactive)
REMARK    1  A    between atoms: O1_2  and  C2_3
REMARK    2  A    between atoms: C2_3  and  C3_4
REMARK    3  A    between atoms: C2_3  and  C10_13
REMARK    4  A    between atoms: C3_4  and  N1_5
REMARK    5  A    between atoms: N1_5  and  C4_7
REMARK    6  A    between atoms: C11_14  and  O2_15
REMARK    7  A    between atoms: C12_17  and  C13_18
REMARK    8  A    between atoms: C13_18  and  C14_19
REMARK    9  A    between atoms: C19_27  and  O3_28
ROOT
HETATM    1  C10 UNL     1       8.559  -3.962  43.563  1.00  0.00     0.020 A
HETATM    2  C11 UNL     1       9.693  -4.784  43.397  1.00  0.00     0.098 A
HETATM    3  C12 UNL     1      10.823  -4.482  44.103  1.00  0.00     0.044 A
HETATM    4  N2  UNL     1      10.869  -3.448  44.934  1.00  0.00    -0.355 N
ATOM      5  H2  UNL     1      11.732  -3.258  45.443  1.00  0.00     0.166 HD
HETATM    6  C17 UNL     1       9.785  -2.627  45.129  1.00  0.00     0.064 A
HETATM    7  C18 UNL     1       9.881  -1.608  46.037  1.00  0.00     0.071 A
HETATM    8 BR1  UNL     1      11.524  -1.313  46.958  1.00  0.00    -0.046 Br
HETATM    9  C19 UNL     1       8.785  -0.810  46.264  1.00  0.00     0.085 A
HETATM   10  C20 UNL     1       7.629  -1.080  45.564  1.00  0.00     0.039 A
HETATM   11  C21 UNL     1       7.494  -2.071  44.666  1.00  0.00     0.017 A
HETATM   12  C22 UNL     1       8.606  -2.904  44.415  1.00  0.00     0.004 A
ENDROOT
BRANCH   1  13
HETATM   13  C2  UNL     1       7.322  -4.375  42.866  1.00  0.00     0.174 C
BRANCH  13  14
HETATM   14  O1  UNL     1       7.510  -4.740  41.579  1.00  0.00    -0.384 OA
HETATM   15  C1  UNL     1       6.605  -5.431  40.866  1.00  0.00     0.202 C
ENDBRANCH  13  14
BRANCH  13  16
HETATM   16  C3  UNL     1       6.568  -5.501  43.598  1.00  0.00     0.151 C
BRANCH  16  17
HETATM   17  N1  UNL     1       5.499  -4.863  44.321  1.00  0.00    -0.414 N
ATOM     18  H1  UNL     1       5.396  -5.037  45.322  1.00  0.00     0.153 HD
BRANCH  17  19
HETATM   19  C4  UNL     1       4.610  -4.019  43.683  1.00  0.00     0.076 C
HETATM   20  C5  UNL     1       3.380  -4.389  43.003  1.00  0.00     0.024 C
HETATM   21  C6  UNL     1       3.054  -3.223  42.019  1.00  0.00     0.002 C
HETATM   22  C7  UNL     1       3.604  -1.917  42.490  1.00  0.00     0.000 C
HETATM   23  C8  UNL     1       3.480  -1.787  43.967  1.00  0.00     0.002 C
HETATM   24  C9  UNL     1       4.249  -2.861  44.654  1.00  0.00     0.024 C
ENDBRANCH  17  19
ENDBRANCH  16  17
ENDBRANCH  13  16
ENDBRANCH   1  13
BRANCH   2  25
HETATM   25  O2  UNL     1       9.606  -5.857  42.524  1.00  0.00    -0.358 OA
ATOM     26  H2  UNL     1      10.368  -6.074  41.998  1.00  0.00     0.217 HD
ENDBRANCH   2  25
BRANCH   3  27
HETATM   27  C13 UNL     1      12.016  -5.355  43.778  1.00  0.00     0.064 C
BRANCH  27  28
HETATM   28  C14 UNL     1      12.948  -5.590  44.902  1.00  0.00    -0.017 C
HETATM   29  C15 UNL     1      12.420  -6.658  45.810  1.00  0.00     0.010 C
HETATM   30  C16 UNL     1      14.398  -5.688  44.564  1.00  0.00     0.010 C
ENDBRANCH  27  28
ENDBRANCH   3  27
BRANCH   9  31
HETATM   31  O3  UNL     1       8.799   0.273  47.187  1.00  0.00    -0.359 OA
ATOM     32  H3  UNL     1       8.339   0.246  48.017  1.00  0.00     0.217 HD
ENDBRANCH   9  31
TORSDOF 9
ENDMDL