MODEL 2
REMARK VINA RESULT: -8.080104138      1.262      1.395
REMARK  11 active torsions:
REMARK  status: ('A' for Active; 'I' for Inactive)
REMARK    1  A    between atoms: C2_2  and  C3_3
REMARK    2  A    between atoms: C3_3  and  C4_4
REMARK    3  A    between atoms: C5_5  and  C6_6
REMARK    4  A    between atoms: C6_6  and  C7_7
REMARK    5  A    between atoms: C7_7  and  C8_8
REMARK    6  A    between atoms: C8_8  and  C9_9
REMARK    7  A    between atoms: C9_9  and  C10_10
REMARK    8  A    between atoms: C10_10  and  O1_11
REMARK    9  A    between atoms: N1_13  and  O2_15
REMARK   10  A    between atoms: C17_24  and  O4_25
REMARK   11  A    between atoms: C22_32  and  O5_33
ROOT
HETATM    1  C4  UNL     1       6.464  -2.568  45.402  1.00  0.00    -0.010 C
HETATM    2  C5  UNL     1       6.616  -3.067  44.184  1.00  0.00    -0.070 C
HETATM    3  C11 UNL     1       7.930  -3.102  43.455  1.00  0.00     0.041 C
HETATM    4  C12 UNL     1       9.040  -3.794  44.240  1.00  0.00     0.012 C
HETATM    5  C13 UNL     1       9.659  -3.030  45.306  1.00  0.00    -0.006 C
HETATM    6  C14 UNL     1       9.695  -3.895  46.586  1.00  0.00     0.018 C
HETATM    7  C15 UNL     1       8.933  -1.745  45.750  1.00  0.00     0.095 C
HETATM    8  C16 UNL     1       7.564  -2.073  46.262  1.00  0.00     0.156 C
HETATM    9  O3  UNL     1       7.318  -1.928  47.490  1.00  0.00    -0.293 OA
HETATM   10  C17 UNL     1      11.082  -2.564  45.172  1.00  0.00     0.127 C
HETATM   11  C18 UNL     1      12.093  -3.684  45.259  1.00  0.00     0.036 C
HETATM   12  C19 UNL     1      12.306  -4.077  43.837  1.00  0.00     0.047 C
HETATM   13  C20 UNL     1      11.202  -4.900  43.364  1.00  0.00     0.113 C
HETATM   14  F1  UNL     1      11.263  -6.128  44.044  1.00  0.00    -0.242 F
HETATM   15  C21 UNL     1      11.613  -5.276  41.919  1.00  0.00     0.076 C
HETATM   16  C22 UNL     1      11.198  -4.039  41.199  1.00  0.00     0.122 C
HETATM   17  C23 UNL     1       9.883  -3.694  41.862  1.00  0.00     0.044 C
HETATM   18  C24 UNL     1       9.849  -4.470  43.188  1.00  0.00    -0.001 C
HETATM   19  C25 UNL     1       9.069  -5.758  42.818  1.00  0.00     0.019 C
ENDROOT
BRANCH   2  20
HETATM   20  C6  UNL     1       5.504  -3.597  43.428  1.00  0.00     0.035 C
BRANCH  20  21
HETATM   21  C7  UNL     1       5.684  -3.420  41.905  1.00  0.00     0.005 C
BRANCH  21  22
HETATM   22  C8  UNL     1       5.001  -4.624  41.277  1.00  0.00     0.008 C
BRANCH  22  23
HETATM   23  C9  UNL     1       5.972  -5.588  40.685  1.00  0.00     0.086 C
BRANCH  23  24
HETATM   24  C10 UNL     1       5.227  -6.410  39.664  1.00  0.00     0.135 C
HETATM   25  N1  UNL     1       4.532  -7.429  40.020  1.00  0.00    -0.251 N
ATOM     26  H1  UNL     1       4.475  -7.696  41.003  1.00  0.00     0.196 HD
BRANCH  24  27
HETATM   27  O1  UNL     1       5.276  -6.081  38.318  1.00  0.00    -0.348 OA
ATOM     28  H1  UNL     1       4.676  -5.442  37.951  1.00  0.00     0.219 HD
ENDBRANCH  24  27
BRANCH  25  29
HETATM   29  O2  UNL     1       3.868  -8.154  39.069  1.00  0.00    -0.288 OA
ATOM     30  H2  UNL     1       4.291  -8.911  38.681  1.00  0.00     0.244 HD
ENDBRANCH  25  29
ENDBRANCH  23  24
ENDBRANCH  22  23
ENDBRANCH  21  22
ENDBRANCH  20  21
ENDBRANCH   2  20
BRANCH   1  31
HETATM   31  C3  UNL     1       5.117  -2.581  45.936  1.00  0.00     0.042 C
BRANCH  31  32
HETATM   32  C2  UNL     1       4.302  -1.338  45.805  1.00  0.00     0.000 C
HETATM   33  C1  UNL     1       3.619  -1.104  44.493  1.00  0.00     0.005 C
ENDBRANCH  31  32
ENDBRANCH   1  31
BRANCH  10  34
HETATM   34  O4  UNL     1      11.350  -1.728  44.137  1.00  0.00    -0.395 OA
ATOM     35  H4  UNL     1      12.102  -1.157  44.237  1.00  0.00     0.210 HD
ENDBRANCH  10  34
BRANCH  16  36
HETATM   36  O5  UNL     1      11.044  -4.272  39.813  1.00  0.00    -0.395 OA
ATOM     37  H5  UNL     1      11.882  -4.297  39.367  1.00  0.00     0.210 HD
ENDBRANCH  16  36
TORSDOF 11
ENDMDL