MODEL 4
REMARK VINA RESULT: -7.443707306      3.966      8.387
REMARK  10 active torsions:
REMARK  status: ('A' for Active; 'I' for Inactive)
REMARK    1  A    between atoms: S1_2  and  C2_3
REMARK    2  A    between atoms: C7_9  and  N1_10
REMARK       I    between atoms: N1_10  and  C8_12
REMARK       I    between atoms: C8_12  and  N4_28
REMARK    3  A    between atoms: N2_13  and  C9_15
REMARK    4  A    between atoms: C9_15  and  C10_16
REMARK    5  A    between atoms: C10_16  and  C11_17
REMARK    6  A    between atoms: C11_17  and  C12_18
REMARK    7  A    between atoms: C12_18  and  N3_19
REMARK       I    between atoms: N3_19  and  C13_21
REMARK    8  A    between atoms: C13_21  and  O2_23
REMARK    9  A    between atoms: O2_23  and  C14_24
REMARK   10  A    between atoms: N4_28  and  C18_30
ROOT
HETATM    1  N1  UNL     1       9.537  -4.616  43.296  1.00  0.00    -0.191 N
ATOM      2  H1  UNL     1       8.798  -5.298  43.126  1.00  0.00     0.184 HD
HETATM    3  C8  UNL     1      10.781  -4.789  42.635  1.00  0.00     0.680 C
HETATM    4  N2  UNL     1      11.689  -5.485  43.196  1.00  0.00    -0.226 N
ATOM      5  H2  UNL     1      12.571  -5.589  42.694  1.00  0.00     0.177 HD
HETATM    6  N4  UNL     1      11.031  -4.196  41.354  1.00  0.00    -0.175 N
ATOM      7  H4  UNL     1      11.028  -3.181  41.260  1.00  0.00     0.185 HD
ENDROOT
BRANCH   1   8
HETATM    8  C7  UNL     1       9.270  -3.542  44.181  1.00  0.00     0.066 A
HETATM    9  C2  UNL     1       7.992  -3.007  44.173  1.00  0.00     0.030 A
HETATM   10  C3  UNL     1       7.733  -1.964  45.032  1.00  0.00     0.063 A
HETATM   11  C4  UNL     1       8.682  -1.443  45.884  1.00  0.00     0.117 A
HETATM   12  F1  UNL     1       8.410  -0.415  46.722  1.00  0.00    -0.206 F
HETATM   13  C5  UNL     1       9.947  -2.011  45.855  1.00  0.00     0.044 A
HETATM   14  C6  UNL     1      10.256  -3.050  45.019  1.00  0.00     0.034 A
BRANCH   9  15
HETATM   15  S1  UNL     1       6.715  -3.652  43.080  1.00  0.00    -0.132 SA
HETATM   16  C1  UNL     1       5.402  -4.315  44.168  1.00  0.00     0.095 C
ENDBRANCH   9  15
ENDBRANCH   1   8
BRANCH   4  17
HETATM   17  C9  UNL     1      11.580  -6.139  44.479  1.00  0.00     0.138 C
BRANCH  17  18
HETATM   18  C10 UNL     1      12.822  -5.836  45.267  1.00  0.00     0.022 C
BRANCH  18  19
HETATM   19  C11 UNL     1      13.179  -6.963  46.221  1.00  0.00     0.021 C
BRANCH  19  20
HETATM   20  C12 UNL     1      14.688  -7.079  46.229  1.00  0.00     0.125 C
BRANCH  20  21
HETATM   21  N3  UNL     1      15.342  -6.364  45.183  1.00  0.00    -0.337 N
HETATM   22  C13 UNL     1      16.315  -5.378  45.448  1.00  0.00     0.361 C
HETATM   23  O1  UNL     1      16.629  -5.108  46.609  1.00  0.00    -0.238 OA
ATOM     24  H3  UNL     1      15.098  -6.571  44.214  1.00  0.00     0.164 HD
BRANCH  22  25
HETATM   25  O2  UNL     1      16.964  -4.668  44.454  1.00  0.00    -0.294 OA
BRANCH  25  26
HETATM   26  C14 UNL     1      18.141  -5.037  43.815  1.00  0.00     0.061 C
HETATM   27  C15 UNL     1      18.141  -4.415  42.428  1.00  0.00     0.046 C
HETATM   28  C16 UNL     1      19.399  -4.581  44.499  1.00  0.00     0.046 C
HETATM   29  C17 UNL     1      18.243  -6.538  43.609  1.00  0.00     0.046 C
ENDBRANCH  25  26
ENDBRANCH  22  25
ENDBRANCH  20  21
ENDBRANCH  19  20
ENDBRANCH  18  19
ENDBRANCH  17  18
ENDBRANCH   4  17
BRANCH   6  30
HETATM   30  C18 UNL     1      11.280  -4.997  40.223  1.00  0.00     0.164 C
HETATM   31  S2  UNL     1      10.060  -5.818  39.539  1.00  0.00    -0.051 SA
HETATM   32  S3  UNL     1      12.909  -5.114  39.540  1.00  0.00    -0.020 SA
ENDBRANCH   6  30
TORSDOF 10
ENDMDL