MODEL 1
REMARK VINA RESULT: -8.794268052      0.000      0.000
REMARK  7 active torsions:
REMARK  status: ('A' for Active; 'I' for Inactive)
REMARK    1  A    between atoms: C11_15  and  C12_16
REMARK    2  A    between atoms: C12_16  and  C13_17
REMARK    3  A    between atoms: C13_17  and  C14_18
REMARK    4  A    between atoms: C14_18  and  C15_19
REMARK    5  A    between atoms: C15_19  and  C16_20
REMARK    6  A    between atoms: C16_20  and  C17_21
REMARK    7  A    between atoms: C17_21  and  N3_22
REMARK       I    between atoms: N3_22  and  C18_24
ROOT
HETATM    1  C1  UNL     1       7.469  -1.229  46.614  1.00  0.00     0.157 C
HETATM    2  N1  UNL     1       7.329  -2.209  45.577  1.00  0.00    -0.342 N
HETATM    3  C2  UNL     1       6.072  -2.512  45.021  1.00  0.00     0.062 A
HETATM    4  C3  UNL     1       4.936  -1.850  45.490  1.00  0.00     0.033 A
HETATM    5  C4  UNL     1       3.715  -2.143  44.957  1.00  0.00     0.021 A
HETATM    6  C5  UNL     1       3.643  -3.084  43.975  1.00  0.00     0.013 A
HETATM    7 BR1  UNL     1       1.934  -3.485  43.239  1.00  0.00    -0.051 Br
HETATM    8  C6  UNL     1       4.768  -3.732  43.519  1.00  0.00     0.051 A
HETATM    9  C7  UNL     1       6.021  -3.446  44.050  1.00  0.00     0.063 A
HETATM   10  N2  UNL     1       7.190  -4.135  43.565  1.00  0.00    -0.346 N
HETATM   11  C8  UNL     1       6.933  -5.091  42.513  1.00  0.00     0.156 C
HETATM   12  C9  UNL     1       8.494  -3.850  44.113  1.00  0.00     0.094 A
HETATM   13  C10 UNL     1       8.483  -2.890  45.098  1.00  0.00     0.106 A
HETATM   14  S1  UNL     1      10.136  -2.772  45.545  1.00  0.00    -0.072 SA
HETATM   15  C11 UNL     1      10.784  -3.931  44.479  1.00  0.00     0.011 A
HETATM   16  C19 UNL     1       9.699  -4.379  43.804  1.00  0.00     0.089 A
HETATM   17  N6  UNL     1       9.940  -5.408  42.804  1.00  0.00    -0.099 NA
ENDROOT
BRANCH  15  18
HETATM   18  C12 UNL     1      12.229  -4.248  44.432  1.00  0.00     0.048 C
BRANCH  18  19
HETATM   19  C13 UNL     1      12.657  -5.517  45.047  1.00  0.00     0.005 C
BRANCH  19  20
HETATM   20  C14 UNL     1      14.102  -5.796  44.700  1.00  0.00     0.000 C
BRANCH  20  21
HETATM   21  C15 UNL     1      14.802  -6.523  45.788  1.00  0.00     0.002 C
BRANCH  21  22
HETATM   22  C16 UNL     1      16.245  -6.058  45.875  1.00  0.00     0.020 C
BRANCH  22  23
HETATM   23  C17 UNL     1      16.658  -5.397  44.603  1.00  0.00     0.122 C
BRANCH  23  24
HETATM   24  N3  UNL     1      17.566  -4.310  44.841  1.00  0.00    -0.365 N
HETATM   25  C18 UNL     1      18.697  -4.153  43.984  1.00  0.00     0.181 C
HETATM   26  N4  UNL     1      18.764  -3.074  43.276  1.00  0.00    -0.374 N
HETATM   27  N5  UNL     1      19.733  -5.108  43.874  1.00  0.00    -0.064 NA
ATOM     28  H42 UNL     1      18.016  -2.386  43.355  1.00  0.00     0.158 HD
ATOM     29  H41 UNL     1      19.571  -2.962  42.663  1.00  0.00     0.158 HD
ATOM     30  H3  UNL     1      17.406  -3.660  45.611  1.00  0.00     0.162 HD
ENDBRANCH  23  24
ENDBRANCH  22  23
ENDBRANCH  21  22
ENDBRANCH  20  21
ENDBRANCH  19  20
ENDBRANCH  18  19
ENDBRANCH  15  18
TORSDOF 7
ENDMDL