MODEL 2
REMARK VINA RESULT: -6.956116489      1.777      2.548
REMARK  12 active torsions:
REMARK  status: ('A' for Active; 'I' for Inactive)
REMARK    1  A    between atoms: C2_2  and  C3_3
REMARK    2  A    between atoms: C3_3  and  C4_4
REMARK    3  A    between atoms: C4_4  and  C5_5
REMARK    4  A    between atoms: C5_5  and  C6_6
REMARK    5  A    between atoms: C6_6  and  C7_7
REMARK    6  A    between atoms: C7_7  and  C8_8
REMARK    7  A    between atoms: C8_8  and  O1_9
REMARK    8  A    between atoms: C8_8  and  O2_11
REMARK    9  A    between atoms: O2_11  and  C9_12
REMARK   10  A    between atoms: C10_13  and  O3_14
REMARK   11  A    between atoms: C16_21  and  O4_22
REMARK   12  A    between atoms: C19_27  and  O5_28
ROOT
HETATM    1  C9  UNL     1       9.817  -5.272  40.892  1.00  0.00     0.161 C
HETATM    2  C10 UNL     1      10.460  -6.264  39.981  1.00  0.00     0.148 C
HETATM    3  C11 UNL     1       9.608  -7.386  39.511  1.00  0.00     0.044 C
HETATM    4  C12 UNL     1       8.229  -6.876  39.195  1.00  0.00    -0.027 C
HETATM    5  C13 UNL     1       8.235  -5.779  38.187  1.00  0.00     0.016 C
HETATM    6  C14 UNL     1       7.625  -6.494  40.518  1.00  0.00     0.007 C
HETATM    7  C15 UNL     1       6.238  -5.963  40.261  1.00  0.00     0.041 C
HETATM    8  C16 UNL     1       5.407  -6.728  39.318  1.00  0.00     0.159 C
HETATM    9  C17 UNL     1       5.989  -7.928  38.696  1.00  0.00     0.139 C
HETATM   10  F1  UNL     1       5.425  -8.087  37.419  1.00  0.00    -0.239 F
HETATM   11  C18 UNL     1       5.500  -9.172  39.457  1.00  0.00     0.078 C
HETATM   12  C19 UNL     1       6.551 -10.181  38.974  1.00  0.00     0.122 C
HETATM   13  C20 UNL     1       7.822  -9.364  39.252  1.00  0.00     0.045 C
HETATM   14  C21 UNL     1       7.449  -8.037  38.618  1.00  0.00     0.005 C
HETATM   15  C22 UNL     1       7.884  -8.153  37.150  1.00  0.00     0.019 C
HETATM   16  C23 UNL     1       8.435  -5.551  41.324  1.00  0.00    -0.015 C
HETATM   17  C24 UNL     1       8.455  -6.116  42.759  1.00  0.00     0.018 C
HETATM   18  C25 UNL     1       7.719  -4.201  41.505  1.00  0.00     0.018 C
ENDROOT
BRANCH   1  19
HETATM   19  O2  UNL     1      10.623  -5.148  42.007  1.00  0.00    -0.353 OA
BRANCH  19  20
HETATM   20  C8  UNL     1      11.169  -3.979  42.303  1.00  0.00     0.257 C
BRANCH  20  21
HETATM   21  C7  UNL     1      11.309  -3.531  43.698  1.00  0.00     0.060 C
BRANCH  21  22
HETATM   22  C6  UNL     1       9.932  -3.121  44.210  1.00  0.00     0.005 C
BRANCH  22  23
HETATM   23  C5  UNL     1       9.850  -3.126  45.703  1.00  0.00     0.000 C
BRANCH  23  24
HETATM   24  C4  UNL     1       8.441  -2.722  46.084  1.00  0.00     0.000 C
BRANCH  24  25
HETATM   25  C3  UNL     1       7.548  -2.524  44.890  1.00  0.00    -0.000 C
BRANCH  25  26
HETATM   26  C2  UNL     1       6.125  -2.915  45.152  1.00  0.00    -0.005 C
HETATM   27  C1  UNL     1       5.707  -4.167  44.454  1.00  0.00     0.005 C
ENDBRANCH  25  26
ENDBRANCH  24  25
ENDBRANCH  23  24
ENDBRANCH  22  23
ENDBRANCH  21  22
ENDBRANCH  20  21
BRANCH  20  28
HETATM   28  O1  UNL     1      12.469  -3.942  41.733  1.00  0.00    -0.371 OA
ATOM     29  H1  UNL     1      12.460  -3.250  41.082  1.00  0.00     0.212 HD
ENDBRANCH  20  28
ENDBRANCH  19  20
ENDBRANCH   1  19
BRANCH   2  30
HETATM   30  O3  UNL     1      11.010  -5.666  38.822  1.00  0.00    -0.393 OA
ATOM     31  H3  UNL     1      11.898  -5.355  38.955  1.00  0.00     0.210 HD
ENDBRANCH   2  30
BRANCH   8  32
HETATM   32  O4  UNL     1       4.172  -7.120  39.900  1.00  0.00    -0.392 OA
ATOM     33  H4  UNL     1       3.432  -6.704  39.472  1.00  0.00     0.210 HD
ENDBRANCH   8  32
BRANCH  12  34
HETATM   34  O5  UNL     1       6.515 -11.343  39.720  1.00  0.00    -0.395 OA
ATOM     35  H5  UNL     1       7.031 -12.031  39.316  1.00  0.00     0.210 HD
ENDBRANCH  12  34
TORSDOF 12
ENDMDL