MODEL 3
REMARK VINA RESULT: -6.980084107      1.165      1.825
REMARK  9 active torsions:
REMARK  status: ('A' for Active; 'I' for Inactive)
REMARK    1  A    between atoms: C2_2  and  C3_3
REMARK    2  A    between atoms: C3_3  and  C4_4
REMARK    3  A    between atoms: C4_4  and  C5_5
REMARK    4  A    between atoms: C5_5  and  C6_6
REMARK    5  A    between atoms: C8_8  and  C9_9
REMARK    6  A    between atoms: C14_16  and  O1_17
REMARK    7  A    between atoms: C17_23  and  C18_24
REMARK    8  A    between atoms: C18_24  and  C21_27
REMARK    9  A    between atoms: C22_29  and  O3_30
ROOT
HETATM    1  C6  UNL     1      16.350  -5.929  44.611  1.00  0.00    -0.024 A
HETATM    2  C7  UNL     1      15.557  -6.455  43.613  1.00  0.00     0.023 A
HETATM    3  C8  UNL     1      15.839  -6.225  42.287  1.00  0.00    -0.003 A
HETATM    4  C16 UNL     1      16.929  -5.458  41.951  1.00  0.00     0.032 A
HETATM    5 BR1  UNL     1      17.293  -5.167  40.099  1.00  0.00    -0.049 Br
HETATM    6  C17 UNL     1      17.750  -4.911  42.940  1.00  0.00     0.008 A
HETATM    7  C22 UNL     1      17.461  -5.148  44.265  1.00  0.00     0.080 A
ENDROOT
BRANCH   3   8
HETATM    8  C9  UNL     1      14.981  -6.797  41.224  1.00  0.00     0.025 A
HETATM    9  C10 UNL     1      15.453  -7.875  40.508  1.00  0.00     0.018 A
HETATM   10  C11 UNL     1      16.785  -8.469  40.774  1.00  0.00     0.069 C
HETATM   11  N1  UNL     1      14.660  -8.395  39.535  1.00  0.00    -0.360 N
HETATM   12  C12 UNL     1      13.444  -7.899  39.249  1.00  0.00     0.041 A
ATOM     13  H1  UNL     1      15.002  -9.194  39.000  1.00  0.00     0.165 HD
HETATM   14  C13 UNL     1      12.560  -8.450  38.190  1.00  0.00     0.071 C
HETATM   15  C14 UNL     1      12.983  -6.817  39.975  1.00  0.00     0.113 A
HETATM   16  C15 UNL     1      13.753  -6.237  40.991  1.00  0.00     0.094 A
HETATM   17  N2  UNL     1      13.316  -5.140  41.747  1.00  0.00    -0.098 NA
BRANCH  15  18
HETATM   18  O1  UNL     1      11.748  -6.279  39.717  1.00  0.00    -0.357 OA
ATOM     19  H1  UNL     1      11.562  -5.371  39.928  1.00  0.00     0.218 HD
ENDBRANCH  15  18
ENDBRANCH   3   8
BRANCH   1  20
HETATM   20  C5  UNL     1      16.011  -6.172  46.032  1.00  0.00     0.041 C
BRANCH  20  21
HETATM   21  C4  UNL     1      15.814  -7.657  46.270  1.00  0.00     0.005 C
BRANCH  21  22
HETATM   22  C3  UNL     1      14.493  -7.947  46.924  1.00  0.00    -0.000 C
BRANCH  22  23
HETATM   23  C2  UNL     1      13.373  -7.104  46.366  1.00  0.00    -0.005 C
HETATM   24  C1  UNL     1      12.100  -7.526  47.048  1.00  0.00     0.005 C
ENDBRANCH  22  23
ENDBRANCH  21  22
ENDBRANCH  20  21
ENDBRANCH   1  20
BRANCH   6  25
HETATM   25  C18 UNL     1      18.901  -4.111  42.469  1.00  0.00     0.037 C
HETATM   26  C19 UNL     1      19.942  -3.961  43.588  1.00  0.00     0.027 C
HETATM   27  C20 UNL     1      18.458  -2.723  42.013  1.00  0.00     0.027 C
BRANCH  25  28
HETATM   28  C21 UNL     1      19.566  -4.766  41.331  1.00  0.00     0.244 C
HETATM   29  O2  UNL     1      20.702  -5.187  41.444  1.00  0.00    -0.306 OA
ENDBRANCH  25  28
ENDBRANCH   6  25
BRANCH   7  30
HETATM   30  O3  UNL     1      18.266  -4.622  45.266  1.00  0.00    -0.360 OA
ATOM     31  H3  UNL     1      19.120  -4.269  45.044  1.00  0.00     0.217 HD
ENDBRANCH   7  30
TORSDOF 9
ENDMDL