MODEL 5
REMARK VINA RESULT: -6.935650677      3.224      7.842
REMARK  11 active torsions:
REMARK  status: ('A' for Active; 'I' for Inactive)
REMARK    1  A    between atoms: C2_2  and  C3_3
REMARK    2  A    between atoms: C3_3  and  C4_4
REMARK    3  A    between atoms: C4_4  and  C5_5
REMARK    4  A    between atoms: C5_5  and  C6_6
REMARK    5  A    between atoms: C6_6  and  C7_7
REMARK    6  A    between atoms: C7_7  and  C8_8
REMARK    7  A    between atoms: C8_8  and  O1_9
REMARK    8  A    between atoms: N1_11  and  C9_13
REMARK    9  A    between atoms: C17_21  and  O2_22
REMARK   10  A    between atoms: C18_24  and  O3_26
REMARK   11  A    between atoms: C25_33  and  O4_34
ROOT
HETATM    1  C9  UNL     1      10.189  -5.411  42.477  1.00  0.00     0.134 C
HETATM    2  C10 UNL     1       9.196  -6.414  43.007  1.00  0.00     0.030 C
HETATM    3  C11 UNL     1       7.796  -5.882  42.972  1.00  0.00     0.012 C
HETATM    4  C12 UNL     1       7.435  -5.358  41.572  1.00  0.00    -0.029 C
HETATM    5  C13 UNL     1       7.750  -6.570  40.675  1.00  0.00     0.016 C
HETATM    6  C14 UNL     1       5.975  -5.168  41.535  1.00  0.00     0.002 C
HETATM    7  C15 UNL     1       5.276  -5.954  40.416  1.00  0.00     0.008 C
HETATM    8  C16 UNL     1       3.775  -5.871  40.632  1.00  0.00     0.035 C
HETATM    9  C17 UNL     1       3.258  -4.488  40.746  1.00  0.00     0.152 C
HETATM   10  C18 UNL     1       4.048  -3.613  41.688  1.00  0.00     0.084 C
HETATM   11  C19 UNL     1       3.732  -3.872  43.126  1.00  0.00     0.049 C
HETATM   12  C20 UNL     1       5.493  -3.757  41.353  1.00  0.00     0.027 C
HETATM   13  C21 UNL     1       6.391  -2.817  42.111  1.00  0.00     0.009 C
HETATM   14  C22 UNL     1       7.688  -2.853  41.329  1.00  0.00     0.015 C
HETATM   15  C23 UNL     1       8.314  -4.212  41.281  1.00  0.00     0.011 C
HETATM   16  C24 UNL     1       8.843  -4.374  39.845  1.00  0.00     0.020 C
HETATM   17  C25 UNL     1       9.555  -4.118  42.150  1.00  0.00     0.162 C
HETATM   18 CL1  UNL     1       9.239  -3.112  43.609  1.00  0.00    -0.085 Cl
ENDROOT
BRANCH   1  19
HETATM   19  N1  UNL     1      11.168  -5.187  43.523  1.00  0.00    -0.366 N
HETATM   20  C8  UNL     1      12.406  -5.495  43.405  1.00  0.00     0.111 C
ATOM     21  H1  UNL     1      10.855  -4.763  44.397  1.00  0.00     0.161 HD
BRANCH  20  22
HETATM   22  C7  UNL     1      13.371  -5.251  44.493  1.00  0.00     0.083 C
BRANCH  22  23
HETATM   23  C6  UNL     1      14.758  -5.781  44.138  1.00  0.00     0.008 C
BRANCH  23  24
HETATM   24  C5  UNL     1      15.806  -5.092  44.950  1.00  0.00     0.000 C
BRANCH  24  25
HETATM   25  C4  UNL     1      16.181  -5.908  46.151  1.00  0.00     0.000 C
BRANCH  25  26
HETATM   26  C3  UNL     1      16.031  -7.369  45.854  1.00  0.00    -0.000 C
BRANCH  26  27
HETATM   27  C2  UNL     1      15.399  -8.038  47.081  1.00  0.00    -0.005 C
HETATM   28  C1  UNL     1      13.921  -7.763  47.019  1.00  0.00     0.005 C
ENDBRANCH  26  27
ENDBRANCH  25  26
ENDBRANCH  24  25
ENDBRANCH  23  24
ENDBRANCH  22  23
ENDBRANCH  20  22
BRANCH  20  29
HETATM   29  O1  UNL     1      12.845  -6.069  42.230  1.00  0.00    -0.350 OA
ATOM     30  H1  UNL     1      13.433  -5.582  41.665  1.00  0.00     0.219 HD
ENDBRANCH  20  29
ENDBRANCH   1  19
BRANCH  17  31
HETATM   31  O4  UNL     1      10.495  -3.367  41.401  1.00  0.00    -0.372 OA
ATOM     32  H4  UNL     1      11.149  -3.975  41.078  1.00  0.00     0.212 HD
ENDBRANCH  17  31
BRANCH  10  33
HETATM   33  O3  UNL     1       3.684  -2.282  41.407  1.00  0.00    -0.387 OA
ATOM     34  H3  UNL     1       3.443  -1.883  42.235  1.00  0.00     0.210 HD
ENDBRANCH  10  33
BRANCH   9  35
HETATM   35  O2  UNL     1       3.119  -3.886  39.482  1.00  0.00    -0.393 OA
ATOM     36  H2  UNL     1       3.060  -4.536  38.793  1.00  0.00     0.210 HD
ENDBRANCH   9  35
TORSDOF 11
ENDMDL