MODEL 2
REMARK VINA RESULT: -9.008891437      3.781      7.641
REMARK  11 active torsions:
REMARK  status: ('A' for Active; 'I' for Inactive)
REMARK    1  A    between atoms: C2_2  and  O1_3
REMARK    2  A    between atoms: C10_13  and  N1_14
REMARK       I    between atoms: N1_14  and  C11_16
REMARK    3  A    between atoms: C11_16  and  C12_18
REMARK    4  A    between atoms: C12_18  and  C13_19
REMARK    5  A    between atoms: C12_18  and  C22_29
REMARK    6  A    between atoms: C13_19  and  C14_20
REMARK    7  A    between atoms: C14_20  and  C15_21
REMARK    8  A    between atoms: C15_21  and  C16_22
REMARK    9  A    between atoms: C22_29  and  C23_30
REMARK   10  A    between atoms: C23_30  and  O3_31
REMARK   11  A    between atoms: N2_33  and  O4_35
ROOT
HETATM    1  C12 UNL     1      10.173  -3.304  45.376  1.00  0.00     0.085 C
ENDROOT
BRANCH   1   2
HETATM    2  C11 UNL     1       8.930  -3.081  44.657  1.00  0.00     0.222 C
HETATM    3  N1  UNL     1       8.416  -4.056  43.731  1.00  0.00    -0.352 N
ATOM      4  H1  UNL     1       8.933  -4.923  43.588  1.00  0.00     0.163 HD
HETATM    5  O2  UNL     1       8.318  -1.998  44.875  1.00  0.00    -0.273 OA
BRANCH   3   6
HETATM    6  C10 UNL     1       7.179  -3.841  42.990  1.00  0.00     0.129 C
HETATM    7  C2  UNL     1       7.416  -4.106  41.530  1.00  0.00     0.122 C
HETATM    8  C1  UNL     1       8.941  -4.134  41.237  1.00  0.00     0.060 C
HETATM    9  S1  UNL     1       6.818  -5.663  40.924  1.00  0.00    -0.130 SA
HETATM   10  C3  UNL     1       5.131  -5.929  40.583  1.00  0.00     0.077 C
HETATM   11  C4  UNL     1       4.251  -4.755  40.292  1.00  0.00     0.010 C
HETATM   12  C5  UNL     1       3.392  -4.377  41.493  1.00  0.00     0.001 C
HETATM   13  C6  UNL     1       3.619  -2.964  41.936  1.00  0.00     0.000 C
HETATM   14  C7  UNL     1       4.302  -2.735  43.202  1.00  0.00     0.000 C
HETATM   15  C8  UNL     1       4.836  -3.838  43.992  1.00  0.00     0.002 C
HETATM   16  C9  UNL     1       6.054  -4.574  43.639  1.00  0.00     0.029 C
BRANCH   7  17
HETATM   17  O1  UNL     1       7.020  -3.033  40.706  1.00  0.00    -0.378 OA
ATOM     18  H1  UNL     1       7.530  -2.328  41.090  1.00  0.00     0.211 HD
ENDBRANCH   7  17
ENDBRANCH   3   6
ENDBRANCH   1   2
BRANCH   1  19
HETATM   19  C13 UNL     1      11.418  -2.936  44.590  1.00  0.00     0.015 C
BRANCH  19  20
HETATM   20  C14 UNL     1      12.093  -4.124  43.976  1.00  0.00     0.005 C
BRANCH  20  21
HETATM   21  C15 UNL     1      11.635  -5.433  44.570  1.00  0.00     0.038 C
BRANCH  21  22
HETATM   22  C16 UNL     1      12.654  -6.155  45.336  1.00  0.00    -0.058 A
HETATM   23  C17 UNL     1      13.988  -5.914  45.020  1.00  0.00     0.010 A
HETATM   24  C18 UNL     1      15.037  -6.551  45.672  1.00  0.00     0.043 A
HETATM   25  C19 UNL     1      14.784  -7.450  46.660  1.00  0.00     0.116 A
HETATM   26  F1  UNL     1      15.767  -8.103  47.334  1.00  0.00    -0.206 F
HETATM   27  C20 UNL     1      13.456  -7.712  46.999  1.00  0.00     0.043 A
HETATM   28  C21 UNL     1      12.415  -7.063  46.334  1.00  0.00     0.010 A
ENDBRANCH  21  22
ENDBRANCH  20  21
ENDBRANCH  19  20
ENDBRANCH   1  19
BRANCH   1  29
HETATM   29  C22 UNL     1      10.236  -2.726  46.760  1.00  0.00     0.100 C
BRANCH  29  30
HETATM   30  C23 UNL     1      10.967  -1.453  46.786  1.00  0.00     0.136 C
HETATM   31  N2  UNL     1      10.326  -0.307  46.861  1.00  0.00    -0.251 N
ATOM     32  H2  UNL     1      10.833   0.577  46.879  1.00  0.00     0.196 HD
BRANCH  30  33
HETATM   33  O3  UNL     1      12.353  -1.325  46.737  1.00  0.00    -0.348 OA
ATOM     34  H3  UNL     1      12.911  -1.126  47.480  1.00  0.00     0.219 HD
ENDBRANCH  30  33
BRANCH  31  35
HETATM   35  O4  UNL     1       8.965  -0.337  46.912  1.00  0.00    -0.288 OA
ATOM     36  H4  UNL     1       8.510   0.455  47.171  1.00  0.00     0.244 HD
ENDBRANCH  31  35
ENDBRANCH  29  30
ENDBRANCH   1  29
TORSDOF 11
ENDMDL