MODEL 1
REMARK VINA RESULT: -8.879694069      0.000      0.000
REMARK  11 active torsions:
REMARK  status: ('A' for Active; 'I' for Inactive)
REMARK    1  A    between atoms: C2_2  and  C3_3
REMARK    2  A    between atoms: C2_2  and  O2_26
REMARK    3  A    between atoms: C3_3  and  C4_4
REMARK    4  A    between atoms: C4_4  and  C5_5
REMARK    5  A    between atoms: C5_5  and  C6_6
REMARK    6  A    between atoms: C6_6  and  O1_7
REMARK    7  A    between atoms: C6_6  and  C7_9
REMARK    8  A    between atoms: O2_26  and  C23_27
REMARK    9  A    between atoms: C23_27  and  O3_28
REMARK   10  A    between atoms: C23_27  and  C24_30
REMARK   11  A    between atoms: C24_30  and  O4_32
ROOT
HETATM    1  C7  UNL     1       9.499  -3.872  43.153  1.00  0.00     0.019 C
HETATM    2  C8  UNL     1       9.058  -2.975  41.983  1.00  0.00     0.008 C
HETATM    3  C9  UNL     1       7.541  -2.919  42.050  1.00  0.00     0.011 C
HETATM    4  C10 UNL     1       7.204  -4.016  42.986  1.00  0.00    -0.028 C
HETATM    5  C11 UNL     1       7.419  -5.348  42.308  1.00  0.00     0.016 C
HETATM    6  C12 UNL     1       8.265  -3.877  44.047  1.00  0.00     0.005 C
HETATM    7  C13 UNL     1       8.137  -2.644  44.856  1.00  0.00     0.033 C
HETATM    8  C14 UNL     1       6.713  -2.272  45.025  1.00  0.00    -0.021 C
HETATM    9  C15 UNL     1       5.663  -2.830  44.472  1.00  0.00    -0.053 C
HETATM   10  C16 UNL     1       4.444  -2.076  44.974  1.00  0.00     0.134 C
HETATM   11 CL1  UNL     1       4.827  -0.945  46.235  1.00  0.00    -0.116 Cl
HETATM   12  C17 UNL     1       3.867  -1.438  43.756  1.00  0.00    -0.006 C
HETATM   13  C18 UNL     1       3.477  -2.084  42.664  1.00  0.00    -0.029 C
HETATM   14  C19 UNL     1       3.531  -3.522  42.436  1.00  0.00     0.028 C
HETATM   15  C20 UNL     1       4.855  -4.166  42.472  1.00  0.00     0.018 C
HETATM   16  C21 UNL     1       5.795  -3.961  43.567  1.00  0.00    -0.011 C
HETATM   17  C22 UNL     1       5.762  -5.202  44.494  1.00  0.00     0.021 C
ENDROOT
BRANCH   1  18
HETATM   18  C6  UNL     1      10.708  -3.276  43.737  1.00  0.00     0.122 C
BRANCH  18  19
HETATM   19  C5  UNL     1      11.345  -4.067  44.882  1.00  0.00     0.032 C
BRANCH  19  20
HETATM   20  C4  UNL     1      12.650  -4.660  44.485  1.00  0.00     0.005 C
BRANCH  20  21
HETATM   21  C3  UNL     1      13.128  -5.884  45.148  1.00  0.00     0.032 C
BRANCH  21  22
HETATM   22  C2  UNL     1      14.578  -6.197  45.187  1.00  0.00     0.120 C
HETATM   23  C1  UNL     1      15.021  -7.042  46.323  1.00  0.00     0.039 C
BRANCH  22  24
HETATM   24  O2  UNL     1      15.298  -4.996  45.106  1.00  0.00    -0.354 OA
BRANCH  24  25
HETATM   25  C23 UNL     1      16.596  -5.066  45.512  1.00  0.00     0.285 C
BRANCH  25  26
HETATM   26  O3  UNL     1      16.853  -3.818  46.159  1.00  0.00    -0.369 OA
ATOM     27  H3  UNL     1      17.359  -4.039  46.933  1.00  0.00     0.212 HD
ENDBRANCH  25  26
BRANCH  25  28
HETATM   28  C24 UNL     1      17.633  -5.166  44.443  1.00  0.00     0.169 C
HETATM   29  C25 UNL     1      17.892  -6.539  43.917  1.00  0.00     0.044 C
BRANCH  28  30
HETATM   30  O4  UNL     1      17.388  -4.293  43.382  1.00  0.00    -0.391 OA
ATOM     31  H4  UNL     1      17.601  -4.679  42.540  1.00  0.00     0.210 HD
ENDBRANCH  28  30
ENDBRANCH  25  28
ENDBRANCH  24  25
ENDBRANCH  22  24
ENDBRANCH  21  22
ENDBRANCH  20  21
ENDBRANCH  19  20
ENDBRANCH  18  19
BRANCH  18  32
HETATM   32  O1  UNL     1      11.686  -3.165  42.750  1.00  0.00    -0.395 OA
ATOM     33  H1  UNL     1      11.222  -3.089  41.924  1.00  0.00     0.210 HD
ENDBRANCH  18  32
ENDBRANCH   1  18
TORSDOF 11
ENDMDL