MODEL 1
REMARK VINA RESULT: -6.629382024      0.000      0.000
REMARK  11 active torsions:
REMARK  status: ('A' for Active; 'I' for Inactive)
REMARK    1  A    between atoms: C6_6  and  C7_7
REMARK    2  A    between atoms: C10_11  and  O1_12
REMARK    3  A    between atoms: C12_15  and  O2_16
REMARK    4  A    between atoms: C15_21  and  C16_22
REMARK    5  A    between atoms: C16_22  and  C17_23
REMARK    6  A    between atoms: C17_23  and  C18_24
REMARK    7  A    between atoms: C18_24  and  C19_25
REMARK    8  A    between atoms: C19_25  and  C20_26
REMARK    9  A    between atoms: C22_28  and  O4_29
REMARK   10  A    between atoms: C24_32  and  C25_33
REMARK   11  A    between atoms: C25_33  and  O5_34
ROOT
HETATM    1  C1  UNL     1       7.615  -2.634  41.940  1.00  0.00     0.012 C
HETATM    2  C2  UNL     1       8.760  -2.994  42.066  1.00  0.00    -0.109 C
HETATM    3  C3  UNL     1      10.169  -3.434  42.246  1.00  0.00     0.103 C
HETATM    4  C4  UNL     1      10.657  -3.783  40.885  1.00  0.00     0.025 C
HETATM    5  C5  UNL     1       9.794  -4.794  40.234  1.00  0.00     0.040 C
HETATM    6  C6  UNL     1       9.248  -5.811  41.133  1.00  0.00    -0.046 C
HETATM    7  C13 UNL     1       9.416  -5.693  42.433  1.00  0.00     0.020 C
HETATM    8  C14 UNL     1      10.118  -4.619  43.166  1.00  0.00     0.100 C
HETATM    9  O3  UNL     1       9.224  -4.217  44.194  1.00  0.00    -0.366 OA
HETATM   10  C15 UNL     1       9.665  -3.174  44.933  1.00  0.00     0.151 C
HETATM   11  C22 UNL     1      11.090  -3.140  45.322  1.00  0.00     0.147 C
HETATM   12  C23 UNL     1      12.049  -3.778  44.359  1.00  0.00     0.044 C
HETATM   13  C24 UNL     1      11.356  -5.020  43.844  1.00  0.00     0.051 C
ENDROOT
BRANCH  13  14
HETATM   14  C25 UNL     1      12.310  -5.893  43.151  1.00  0.00     0.172 C
BRANCH  14  15
HETATM   15  O5  UNL     1      13.422  -5.168  42.665  1.00  0.00    -0.400 OA
ATOM     16  H5  UNL     1      14.243  -5.586  42.901  1.00  0.00     0.209 HD
ENDBRANCH  14  15
ENDBRANCH  13  14
BRANCH   6  17
HETATM   17  C7  UNL     1       8.523  -6.998  40.586  1.00  0.00     0.005 A
HETATM   18  C8  UNL     1       9.190  -8.092  40.100  1.00  0.00     0.041 A
HETATM   19  C9  UNL     1       8.505  -9.225  39.621  1.00  0.00     0.068 A
HETATM   20 CL1  UNL     1       9.410 -10.591  39.014  1.00  0.00    -0.081 Cl
HETATM   21  C10 UNL     1       7.140  -9.282  39.620  1.00  0.00     0.090 A
HETATM   22  C11 UNL     1       6.461  -8.190  40.106  1.00  0.00     0.075 A
HETATM   23  C12 UNL     1       7.153  -7.075  40.577  1.00  0.00     0.079 A
BRANCH  21  24
HETATM   24  O1  UNL     1       6.450 -10.415  39.141  1.00  0.00    -0.359 OA
ATOM     25  H1  UNL     1       6.055 -10.428  38.277  1.00  0.00     0.217 HD
ENDBRANCH  21  24
BRANCH  23  26
HETATM   26  O2  UNL     1       6.346  -6.054  41.037  1.00  0.00    -0.360 OA
ATOM     27  H2  UNL     1       5.482  -5.882  40.680  1.00  0.00     0.217 HD
ENDBRANCH  23  26
ENDBRANCH   6  17
BRANCH  10  28
HETATM   28  C16 UNL     1       8.854  -3.223  46.266  1.00  0.00     0.034 C
BRANCH  28  29
HETATM   29  C17 UNL     1       8.036  -1.987  46.400  1.00  0.00     0.002 C
BRANCH  29  30
HETATM   30  C18 UNL     1       6.897  -1.860  45.492  1.00  0.00     0.000 C
BRANCH  30  31
HETATM   31  C19 UNL     1       5.665  -2.627  45.628  1.00  0.00    -0.000 C
BRANCH  31  32
HETATM   32  C20 UNL     1       5.115  -3.416  44.509  1.00  0.00    -0.005 C
HETATM   33  C21 UNL     1       5.803  -4.737  44.256  1.00  0.00     0.005 C
ENDBRANCH  31  32
ENDBRANCH  30  31
ENDBRANCH  29  30
ENDBRANCH  28  29
ENDBRANCH  10  28
BRANCH  11  34
HETATM   34  O4  UNL     1      11.536  -1.807  45.490  1.00  0.00    -0.393 OA
ATOM     35  H4  UNL     1      12.104  -1.732  46.248  1.00  0.00     0.210 HD
ENDBRANCH  11  34
TORSDOF 11
ENDMDL