MODEL 1
REMARK VINA RESULT: -8.734227462      0.000      0.000
REMARK  8 active torsions:
REMARK  status: ('A' for Active; 'I' for Inactive)
REMARK    1  A    between atoms: C2_3  and  C3_5
REMARK    2  A    between atoms: C4_6  and  S1_7
REMARK    3  A    between atoms: S1_7  and  C5_8
REMARK    4  A    between atoms: C5_8  and  C6_9
REMARK       I    between atoms: C6_9  and  N2_11
REMARK    5  A    between atoms: N3_14  and  C9_15
REMARK    6  A    between atoms: C9_15  and  C10_16
REMARK       I    between atoms: C10_16  and  N4_18
REMARK    7  A    between atoms: N4_18  and  C11_20
REMARK    8  A    between atoms: C22_35  and  N7_36
ROOT
HETATM    1  C1  UNL     1      18.299 -19.035  -1.972  1.00  0.00     0.233 C
HETATM    2  N1  UNL     1      18.029 -20.040  -2.843  1.00  0.00    -0.391 NA
HETATM    3  C2  UNL     1      17.754 -21.064  -3.733  1.00  0.00     0.328 C
HETATM    4  O1  UNL     1      18.540 -22.050  -3.951  1.00  0.00    -0.251 OA
ENDROOT
BRANCH   3   5
HETATM    5  C3  UNL     1      16.531 -21.148  -4.532  1.00  0.00     0.098 A
HETATM    6  C4  UNL     1      15.413 -21.929  -4.200  1.00  0.00     0.092 A
HETATM    7  N3  UNL     1      14.452 -21.741  -5.095  1.00  0.00    -0.317 N
HETATM    8  C20 UNL     1      14.914 -20.852  -6.011  1.00  0.00     0.125 A
HETATM    9  N5  UNL     1      14.373 -20.318  -7.110  1.00  0.00    -0.338 N
HETATM   10  C32 UNL     1      16.230 -20.455  -5.681  1.00  0.00     0.072 A
HETATM   11  C21 UNL     1      15.000 -19.437  -7.910  1.00  0.00     0.183 A
ATOM     12  H5  UNL     1      13.423 -20.597  -7.357  1.00  0.00     0.168 HD
HETATM   13  N6  UNL     1      16.230 -19.067  -7.598  1.00  0.00    -0.338 N
HETATM   14  C22 UNL     1      16.877 -19.559  -6.483  1.00  0.00     0.119 A
ATOM     15  H6  UNL     1      16.715 -18.400  -8.198  1.00  0.00     0.168 HD
BRANCH   6  16
HETATM   16  S1  UNL     1      15.386 -22.965  -2.745  1.00  0.00    -0.102 SA
BRANCH  16  17
HETATM   17  C5  UNL     1      14.969 -24.672  -3.211  1.00  0.00     0.183 C
BRANCH  17  18
HETATM   18  C6  UNL     1      13.576 -24.948  -2.726  1.00  0.00     0.228 C
HETATM   19  O2  UNL     1      13.191 -24.353  -1.692  1.00  0.00    -0.273 OA
HETATM   20  N2  UNL     1      12.805 -25.866  -3.487  1.00  0.00    -0.360 N
HETATM   21  C7  UNL     1      11.454 -26.156  -3.089  1.00  0.00     0.152 C
HETATM   22  C8  UNL     1      13.349 -26.531  -4.655  1.00  0.00     0.152 C
ENDBRANCH  17  18
ENDBRANCH  16  17
ENDBRANCH   6  16
BRANCH   7  23
HETATM   23  C9  UNL     1      13.145 -22.372  -5.176  1.00  0.00     0.234 C
BRANCH  23  24
HETATM   24  C10 UNL     1      13.145 -23.319  -6.339  1.00  0.00     0.240 C
HETATM   25  O3  UNL     1      14.177 -23.964  -6.610  1.00  0.00    -0.271 OA
HETATM   26  N4  UNL     1      11.996 -23.495  -7.147  1.00  0.00    -0.325 N
ATOM     27  H4  UNL     1      11.157 -22.965  -6.910  1.00  0.00     0.169 HD
BRANCH  26  28
HETATM   28  C11 UNL     1      11.943 -24.355  -8.253  1.00  0.00     0.046 A
HETATM   29  C12 UNL     1      11.397 -25.619  -8.163  1.00  0.00    -0.034 A
HETATM   30  C13 UNL     1      10.834 -26.109  -6.878  1.00  0.00     0.050 C
HETATM   31  C14 UNL     1      11.344 -26.459  -9.265  1.00  0.00     0.015 A
HETATM   32  C15 UNL     1      11.838 -26.043 -10.467  1.00  0.00    -0.061 A
HETATM   33  C16 UNL     1      11.748 -26.994 -11.622  1.00  0.00     0.048 C
HETATM   34  C17 UNL     1      12.385 -24.790 -10.570  1.00  0.00     0.015 A
HETATM   35  C18 UNL     1      12.439 -23.938  -9.461  1.00  0.00    -0.034 A
HETATM   36  C19 UNL     1      13.054 -22.580  -9.667  1.00  0.00     0.050 C
ENDBRANCH  26  28
ENDBRANCH  23  24
ENDBRANCH   7  23
BRANCH  14  37
HETATM   37  N7  UNL     1      18.164 -19.082  -6.236  1.00  0.00    -0.366 N
HETATM   38  C23 UNL     1      18.581 -17.977  -5.457  1.00  0.00     0.125 C
HETATM   39  C24 UNL     1      19.351 -16.953  -6.280  1.00  0.00     0.031 C
HETATM   40  C25 UNL     1      20.445 -17.611  -7.040  1.00  0.00    -0.009 C
HETATM   41  C26 UNL     1      21.809 -17.061  -6.692  1.00  0.00     0.041 C
HETATM   42  C29 UNL     1      20.234 -17.290  -8.518  1.00  0.00     0.281 C
HETATM   43  C30 UNL     1      20.536 -19.111  -6.837  1.00  0.00     0.031 C
HETATM   44  C27 UNL     1      22.425 -16.787  -8.022  1.00  0.00     0.272 C
HETATM   45  N8  UNL     1      21.317 -16.414  -8.875  1.00  0.00     0.085 N
HETATM   46  C28 UNL     1      21.049 -15.014  -8.684  1.00  0.00     0.309 C
HETATM   47  C31 UNL     1      19.230 -19.821  -6.946  1.00  0.00     0.125 C
ENDBRANCH  14  37
ENDBRANCH   3   5
TORSDOF 7
ENDMDL