MODEL 5
REMARK VINA RESULT: -7.407923034      2.331      5.182
REMARK  12 active torsions:
REMARK  status: ('A' for Active; 'I' for Inactive)
REMARK    1  A    between atoms: C4_4  and  C5_5
REMARK    2  A    between atoms: C5_5  and  O2_7
REMARK    3  A    between atoms: C11_16  and  O4_17
REMARK    4  A    between atoms: O4_17  and  C12_18
REMARK    5  A    between atoms: C12_18  and  N2_19
REMARK    6  A    between atoms: N2_19  and  C15_22
REMARK    7  A    between atoms: C15_22  and  C16_23
REMARK    8  A    between atoms: C16_23  and  C17_24
REMARK    9  A    between atoms: C17_24  and  C18_25
REMARK   10  A    between atoms: C18_25  and  N3_26
REMARK       I    between atoms: N3_26  and  C19_28
REMARK   11  A    between atoms: C19_28  and  O6_30
REMARK   12  A    between atoms: O6_30  and  C20_31
ROOT
HETATM    1  C1  UNL     1      21.332 -14.708  -5.077  1.00  0.00     0.020 C
HETATM    2  C2  UNL     1      21.569 -15.588  -6.039  1.00  0.00    -0.054 C
HETATM    3  C3  UNL     1      22.797 -15.269  -6.801  1.00  0.00     0.074 C
HETATM    4  C4  UNL     1      23.777 -16.359  -6.968  1.00  0.00     0.188 C
HETATM    5  N1  UNL     1      23.292 -17.627  -7.393  1.00  0.00    -0.346 N
ATOM      6  H1  UNL     1      23.979 -18.381  -7.442  1.00  0.00     0.163 HD
HETATM    7  C7  UNL     1      21.989 -17.957  -7.750  1.00  0.00     0.235 C
HETATM    8  O3  UNL     1      21.916 -18.803  -8.714  1.00  0.00    -0.272 OA
HETATM    9  C8  UNL     1      20.671 -17.569  -7.285  1.00  0.00     0.088 C
HETATM   10  C9  UNL     1      20.064 -16.874  -8.536  1.00  0.00     0.035 C
HETATM   11  C10 UNL     1      19.866 -18.810  -7.126  1.00  0.00     0.029 C
HETATM   12  C11 UNL     1      19.748 -19.760  -6.221  1.00  0.00     0.046 C
HETATM   13  C24 UNL     1      20.263 -20.165  -4.943  1.00  0.00     0.071 C
HETATM   14  C25 UNL     1      21.347 -19.406  -4.290  1.00  0.00     0.018 C
HETATM   15  C26 UNL     1      21.912 -20.312  -3.191  1.00  0.00     0.057 C
HETATM   16  C27 UNL     1      23.371 -20.108  -2.942  1.00  0.00     0.018 C
HETATM   17  C28 UNL     1      21.093 -20.318  -1.973  1.00  0.00     0.131 C
HETATM   18  O7  UNL     1      21.209 -21.265  -1.212  1.00  0.00    -0.298 OA
HETATM   19  C29 UNL     1      20.135 -19.260  -1.592  1.00  0.00     0.080 C
HETATM   20  C30 UNL     1      19.703 -18.389  -2.700  1.00  0.00     0.025 C
HETATM   21  C31 UNL     1      20.797 -18.121  -3.744  1.00  0.00     0.026 C
HETATM   22  C32 UNL     1      21.821 -17.320  -2.970  1.00  0.00     0.024 C
HETATM   23  C33 UNL     1      20.227 -17.335  -4.863  1.00  0.00     0.166 C
HETATM   24  O8  UNL     1      18.999 -17.209  -4.633  1.00  0.00    -0.292 OA
HETATM   25  C34 UNL     1      20.557 -16.650  -6.139  1.00  0.00     0.015 C
ENDROOT
BRANCH  12  26
HETATM   26  O4  UNL     1      18.786 -20.710  -6.644  1.00  0.00    -0.328 OA
BRANCH  26  27
HETATM   27  C12 UNL     1      17.548 -20.125  -7.040  1.00  0.00     0.410 C
BRANCH  27  28
HETATM   28  N2  UNL     1      16.458 -20.490  -6.155  1.00  0.00    -0.053 N
HETATM   29  C13 UNL     1      16.507 -19.764  -4.907  1.00  0.00     0.274 C
HETATM   30  C14 UNL     1      15.169 -20.212  -6.759  1.00  0.00     0.274 C
BRANCH  28  31
HETATM   31  C15 UNL     1      16.546 -21.905  -5.916  1.00  0.00     0.239 C
BRANCH  31  32
HETATM   32  C16 UNL     1      16.404 -22.284  -4.461  1.00  0.00     0.030 C
BRANCH  32  33
HETATM   33  C17 UNL     1      15.488 -23.482  -4.375  1.00  0.00     0.021 C
BRANCH  33  34
HETATM   34  C18 UNL     1      14.087 -23.136  -3.984  1.00  0.00     0.125 C
BRANCH  34  35
HETATM   35  N3  UNL     1      13.312 -22.625  -5.105  1.00  0.00    -0.337 N
HETATM   36  C19 UNL     1      12.593 -23.483  -5.971  1.00  0.00     0.361 C
HETATM   37  O5  UNL     1      12.634 -24.721  -5.753  1.00  0.00    -0.238 OA
ATOM     38  H3  UNL     1      13.287 -21.619  -5.272  1.00  0.00     0.164 HD
BRANCH  36  39
HETATM   39  O6  UNL     1      11.856 -23.031  -7.032  1.00  0.00    -0.294 OA
BRANCH  39  40
HETATM   40  C20 UNL     1      12.373 -22.897  -8.345  1.00  0.00     0.061 C
HETATM   41  C21 UNL     1      11.763 -23.961  -9.249  1.00  0.00     0.046 C
HETATM   42  C22 UNL     1      11.984 -21.537  -8.860  1.00  0.00     0.046 C
HETATM   43  C23 UNL     1      13.865 -23.031  -8.389  1.00  0.00     0.046 C
ENDBRANCH  39  40
ENDBRANCH  36  39
ENDBRANCH  34  35
ENDBRANCH  33  34
ENDBRANCH  32  33
ENDBRANCH  31  32
ENDBRANCH  28  31
ENDBRANCH  27  28
ENDBRANCH  26  27
ENDBRANCH  12  26
BRANCH   4  44
HETATM   44  C5  UNL     1      24.746 -16.485  -5.845  1.00  0.00     0.281 C
HETATM   45  O1  UNL     1      24.456 -15.913  -4.768  1.00  0.00    -0.263 OA
BRANCH  44  46
HETATM   46  O2  UNL     1      25.932 -17.190  -5.918  1.00  0.00    -0.325 OA
HETATM   47  C6  UNL     1      26.989 -16.825  -6.786  1.00  0.00     0.213 C
ENDBRANCH  44  46
ENDBRANCH   4  44
TORSDOF 12
ENDMDL