MODEL 1
REMARK VINA RESULT: -9.484872268      0.000      0.000
REMARK  11 active torsions:
REMARK  status: ('A' for Active; 'I' for Inactive)
REMARK    1  A    between atoms: C9_9  and  C10_10
REMARK    2  A    between atoms: C10_10  and  C11_11
REMARK    3  A    between atoms: C11_11  and  C12_12
REMARK    4  A    between atoms: C12_12  and  C13_13
REMARK    5  A    between atoms: C20_21  and  O2_22
REMARK    6  A    between atoms: O2_22  and  C21_23
REMARK    7  A    between atoms: C24_27  and  O4_28
REMARK    8  A    between atoms: C25_30  and  O5_31
REMARK    9  A    between atoms: C27_33  and  O6_34
REMARK   10  A    between atoms: C29_37  and  C30_38
REMARK   11  A    between atoms: C30_38  and  O8_40
ROOT
HETATM    1  C1  UNL     1      11.360 -23.984  -7.433  1.00  0.00     0.012 C
HETATM    2  C2  UNL     1      11.983 -23.763  -6.413  1.00  0.00    -0.111 C
HETATM    3  C3  UNL     1      12.712 -23.482  -5.181  1.00  0.00     0.082 A
HETATM    4  C4  UNL     1      14.131 -23.023  -5.438  1.00  0.00     0.014 A
HETATM    5  C5  UNL     1      15.038 -23.871  -4.566  1.00  0.00     0.009 A
HETATM    6  C6  UNL     1      14.191 -24.919  -3.926  1.00  0.00     0.009 A
HETATM    7  C7  UNL     1      14.128 -26.164  -4.811  1.00  0.00     0.041 C
HETATM    8  C8  UNL     1      12.662 -25.997  -4.989  1.00  0.00    -0.073 C
HETATM    9  C9  UNL     1      11.696 -26.726  -5.512  1.00  0.00    -0.023 C
HETATM   10  C15 UNL     1      12.763 -24.688  -4.310  1.00  0.00    -0.002 A
HETATM   11  C16 UNL     1      11.771 -24.690  -3.138  1.00  0.00     0.021 C
HETATM   12  C17 UNL     1      15.398 -22.672  -3.729  1.00  0.00    -0.015 A
HETATM   13  C18 UNL     1      14.906 -22.713  -2.284  1.00  0.00     0.020 C
HETATM   14  C19 UNL     1      16.829 -22.291  -3.752  1.00  0.00     0.016 C
HETATM   15  C20 UNL     1      17.397 -21.601  -4.707  1.00  0.00     0.053 C
HETATM   16  C28 UNL     1      16.508 -21.194  -5.832  1.00  0.00     0.075 C
HETATM   17  C29 UNL     1      17.184 -20.449  -6.916  1.00  0.00     0.170 C
HETATM   18  C32 UNL     1      16.200 -20.236  -8.011  1.00  0.00     0.163 C
HETATM   19  O9  UNL     1      16.615 -20.228  -9.187  1.00  0.00    -0.292 OA
HETATM   20  C33 UNL     1      14.812 -20.050  -7.653  1.00  0.00     0.048 C
HETATM   21  C34 UNL     1      14.353 -20.256  -6.425  1.00  0.00    -0.013 C
HETATM   22  C35 UNL     1      15.216 -20.698  -5.304  1.00  0.00    -0.010 C
HETATM   23  C36 UNL     1      15.323 -19.607  -4.259  1.00  0.00     0.021 C
HETATM   24  C37 UNL     1      14.511 -21.849  -4.607  1.00  0.00     0.016 A
ENDROOT
BRANCH   9  25
HETATM   25  C10 UNL     1      11.877 -28.072  -6.130  1.00  0.00     0.028 C
BRANCH  25  26
HETATM   26  C11 UNL     1      10.657 -28.872  -5.732  1.00  0.00     0.011 C
BRANCH  26  27
HETATM   27  C12 UNL     1      10.069 -28.461  -4.402  1.00  0.00     0.078 C
BRANCH  27  28
HETATM   28  C13 UNL     1       8.589 -28.491  -4.535  1.00  0.00     0.123 C
HETATM   29  C14 UNL     1       7.924 -27.363  -5.237  1.00  0.00     0.091 C
HETATM   30  O1  UNL     1       7.913 -29.401  -4.097  1.00  0.00    -0.298 OA
ENDBRANCH  27  28
ENDBRANCH  26  27
ENDBRANCH  25  26
ENDBRANCH   9  25
BRANCH  15  31
HETATM   31  O2  UNL     1      18.696 -21.267  -4.702  1.00  0.00    -0.322 OA
BRANCH  31  32
HETATM   32  C21 UNL     1      19.500 -20.784  -3.693  1.00  0.00     0.297 C
HETATM   33  O3  UNL     1      20.793 -20.450  -4.068  1.00  0.00    -0.351 OA
HETATM   34  C22 UNL     1      21.615 -20.667  -2.980  1.00  0.00     0.152 C
HETATM   35  C23 UNL     1      22.976 -20.113  -3.354  1.00  0.00     0.042 C
HETATM   36  C24 UNL     1      21.108 -20.101  -1.706  1.00  0.00     0.178 C
HETATM   37  C25 UNL     1      19.886 -19.235  -1.838  1.00  0.00     0.185 C
HETATM   38  C27 UNL     1      18.931 -19.637  -2.921  1.00  0.00     0.205 C
BRANCH  36  39
HETATM   39  O4  UNL     1      20.838 -21.150  -0.827  1.00  0.00    -0.390 OA
ATOM     40  H4  UNL     1      21.393 -21.056  -0.061  1.00  0.00     0.210 HD
ENDBRANCH  36  39
BRANCH  37  41
HETATM   41  O5  UNL     1      20.229 -17.885  -1.910  1.00  0.00    -0.385 OA
HETATM   42  C26 UNL     1      21.445 -17.604  -1.317  1.00  0.00     0.202 C
ENDBRANCH  37  41
BRANCH  38  43
HETATM   43  O6  UNL     1      18.532 -18.565  -3.715  1.00  0.00    -0.388 OA
ATOM     44  H6  UNL     1      18.337 -17.775  -3.225  1.00  0.00     0.210 HD
ENDBRANCH  38  43
ENDBRANCH  31  32
ENDBRANCH  15  31
BRANCH  17  45
HETATM   45  C30 UNL     1      17.886 -19.221  -6.578  1.00  0.00     0.271 C
HETATM   46  O7  UNL     1      17.269 -18.202  -6.153  1.00  0.00    -0.264 OA
BRANCH  45  47
HETATM   47  O8  UNL     1      19.251 -19.092  -6.698  1.00  0.00    -0.326 OA
HETATM   48  C31 UNL     1      19.856 -17.808  -6.818  1.00  0.00     0.213 C
ENDBRANCH  45  47
ENDBRANCH  17  45
TORSDOF 11
ENDMDL