MODEL 5
REMARK VINA RESULT: -8.402392366      2.241      3.705
REMARK  9 active torsions:
REMARK  status: ('A' for Active; 'I' for Inactive)
REMARK    1  A    between atoms: N1_2  and  C3_4
REMARK    2  A    between atoms: C3_4  and  C4_5
REMARK       I    between atoms: C4_5  and  N2_7
REMARK    3  A    between atoms: C12_17  and  N3_18
REMARK       I    between atoms: N3_18  and  C13_20
REMARK    4  A    between atoms: C13_20  and  C14_22
REMARK    5  A    between atoms: C19_29  and  C20_30
REMARK    6  A    between atoms: C20_30  and  N4_31
REMARK    7  A    between atoms: N4_31  and  C22_33
REMARK    8  A    between atoms: C22_33  and  C23_34
REMARK    9  A    between atoms: C29_40  and  C30_41
ROOT
HETATM    1  C4  UNL     1      25.109 -17.977  -2.921  1.00  0.00     0.255 C
HETATM    2  O1  UNL     1      25.102 -18.928  -2.097  1.00  0.00    -0.271 OA
HETATM    3  N2  UNL     1      23.982 -17.700  -3.732  1.00  0.00    -0.282 N
HETATM    4  C5  UNL     1      24.101 -16.583  -4.641  1.00  0.00     0.138 C
HETATM    5  C6  UNL     1      23.580 -17.070  -5.973  1.00  0.00     0.058 C
HETATM    6  C7  UNL     1      22.242 -16.558  -6.363  1.00  0.00     0.062 C
HETATM    7  C8  UNL     1      22.241 -16.603  -7.909  1.00  0.00     0.046 C
HETATM    8  C9  UNL     1      22.061 -15.065  -6.055  1.00  0.00     0.046 C
HETATM    9  O2  UNL     1      21.135 -17.278  -5.939  1.00  0.00    -0.338 OA
HETATM   10  C10 UNL     1      20.707 -18.156  -4.903  1.00  0.00     0.112 A
HETATM   11  C11 UNL     1      21.489 -18.673  -3.910  1.00  0.00     0.109 A
HETATM   12  S1  UNL     1      20.419 -19.629  -3.007  1.00  0.00    -0.063 SA
HETATM   13  C12 UNL     1      18.976 -19.346  -3.923  1.00  0.00     0.097 A
HETATM   14  C29 UNL     1      19.394 -18.507  -4.909  1.00  0.00     0.109 A
HETATM   15  C31 UNL     1      22.909 -18.592  -3.496  1.00  0.00     0.270 C
HETATM   16  O8  UNL     1      23.160 -19.589  -2.750  1.00  0.00    -0.266 OA
ENDROOT
BRANCH  13  17
HETATM   17  N3  UNL     1      17.683 -19.925  -3.628  1.00  0.00    -0.318 N
HETATM   18  C13 UNL     1      17.345 -21.183  -4.195  1.00  0.00     0.252 C
HETATM   19  O3  UNL     1      18.184 -21.751  -4.930  1.00  0.00    -0.270 OA
ATOM     20  H3  UNL     1      17.025 -19.436  -3.021  1.00  0.00     0.169 HD
BRANCH  18  21
HETATM   21  C14 UNL     1      16.062 -21.852  -3.966  1.00  0.00     0.229 C
HETATM   22  O4  UNL     1      14.958 -20.980  -4.243  1.00  0.00    -0.305 OA
HETATM   23  C15 UNL     1      14.582 -21.150  -5.571  1.00  0.00     0.268 C
HETATM   24  O5  UNL     1      14.266 -20.218  -6.342  1.00  0.00    -0.264 OA
HETATM   25  C16 UNL     1      14.656 -22.614  -5.793  1.00  0.00     0.051 C
HETATM   26  C17 UNL     1      14.870 -22.874  -7.244  1.00  0.00     0.026 C
HETATM   27  C18 UNL     1      13.454 -23.267  -5.203  1.00  0.00     0.026 C
HETATM   28  C28 UNL     1      15.832 -23.000  -4.921  1.00  0.00     0.043 C
HETATM   29  C19 UNL     1      13.892 -24.285  -4.190  1.00  0.00     0.015 C
HETATM   30  C27 UNL     1      15.399 -24.250  -4.235  1.00  0.00     0.015 C
BRANCH  29  31
HETATM   31  C20 UNL     1      13.464 -25.650  -4.650  1.00  0.00     0.276 C
BRANCH  31  32
HETATM   32  N4  UNL     1      12.354 -26.199  -3.842  1.00  0.00     0.085 N
HETATM   33  C21 UNL     1      12.336 -25.346  -2.655  1.00  0.00     0.309 C
BRANCH  32  34
HETATM   34  C22 UNL     1      11.119 -26.071  -4.549  1.00  0.00     0.280 C
BRANCH  34  35
HETATM   35  C23 UNL     1      10.516 -27.295  -5.118  1.00  0.00    -0.025 C
HETATM   36  C24 UNL     1      10.139 -28.194  -3.913  1.00  0.00     0.016 C
HETATM   37  C25 UNL     1       9.183 -27.029  -5.808  1.00  0.00     0.016 C
HETATM   38  C26 UNL     1      11.334 -28.128  -6.035  1.00  0.00     0.016 C
ENDBRANCH  34  35
ENDBRANCH  32  34
ENDBRANCH  31  32
ENDBRANCH  29  31
ENDBRANCH  18  21
ENDBRANCH  13  17
BRANCH  14  39
HETATM   39  C30 UNL     1      18.439 -17.993  -5.947  1.00  0.00     0.215 C
HETATM   40  O6  UNL     1      17.314 -17.608  -5.583  1.00  0.00    -0.644 OA
HETATM   41  O7  UNL     1      18.744 -17.927  -7.278  1.00  0.00    -0.644 OA
ENDBRANCH  14  39
BRANCH   1  42
HETATM   42  C3  UNL     1      26.326 -17.146  -3.028  1.00  0.00     0.374 C
BRANCH  42  43
HETATM   43  N1  UNL     1      27.392 -17.776  -3.776  1.00  0.00     0.088 N
HETATM   44  C1  UNL     1      28.433 -18.304  -2.953  1.00  0.00     0.310 C
HETATM   45  C2  UNL     1      27.834 -16.901  -4.816  1.00  0.00     0.310 C
ENDBRANCH  42  43
ENDBRANCH   1  42
TORSDOF 9
ENDMDL