MODEL 1
REMARK VINA RESULT: -6.050930419      0.000      0.000
REMARK  9 active torsions:
REMARK  status: ('A' for Active; 'I' for Inactive)
REMARK    1  A    between atoms: C2_2  and  C3_3
REMARK    2  A    between atoms: C3_3  and  C4_4
REMARK    3  A    between atoms: C4_4  and  C5_5
REMARK    4  A    between atoms: C5_5  and  C6_6
REMARK    5  A    between atoms: C6_6  and  N1_7
REMARK       I    between atoms: N1_7  and  C7_9
REMARK    6  A    between atoms: C7_9  and  C8_11
REMARK    7  A    between atoms: C12_17  and  O4_18
REMARK    8  A    between atoms: O4_18  and  C13_19
REMARK    9  A    between atoms: C20_27  and  O6_29
ROOT
HETATM    1  C8  UNL     1       9.478 -27.981  -7.618  1.00  0.00     0.233 C
HETATM    2  O2  UNL     1       9.898 -26.589  -7.904  1.00  0.00    -0.305 OA
HETATM    3  C9  UNL     1      10.503 -26.184  -9.099  1.00  0.00     0.264 C
HETATM    4  O3  UNL     1      11.019 -25.055  -9.188  1.00  0.00    -0.265 OA
HETATM    5  C10 UNL     1      10.523 -27.152 -10.309  1.00  0.00     0.101 C
HETATM    6  C11 UNL     1      11.826 -27.516 -10.751  1.00  0.00     0.049 C
HETATM    7  C12 UNL     1      11.670 -28.566 -11.869  1.00  0.00     0.142 C
HETATM    8  C15 UNL     1      10.617 -29.602 -11.780  1.00  0.00     0.003 C
HETATM    9  C16 UNL     1      11.386 -30.882 -12.262  1.00  0.00     0.019 C
HETATM   10  C17 UNL     1      10.051 -30.047 -10.535  1.00  0.00     0.007 C
HETATM   11  C18 UNL     1       8.901 -29.306 -10.040  1.00  0.00     0.021 C
HETATM   12  C19 UNL     1       9.554 -28.061  -9.803  1.00  0.00     0.021 C
HETATM   13  C20 UNL     1       8.404 -27.355 -10.244  1.00  0.00     0.124 C
HETATM   14  C21 UNL     1       7.012 -27.557  -9.713  1.00  0.00     0.055 C
HETATM   15  C22 UNL     1       8.364 -27.580 -11.747  1.00  0.00     0.174 C
HETATM   16  O7  UNL     1       8.123 -26.537 -12.320  1.00  0.00    -0.293 OA
HETATM   17  C23 UNL     1       8.494 -28.545 -12.859  1.00  0.00     0.053 C
HETATM   18  C24 UNL     1       7.075 -29.298 -12.800  1.00  0.00     0.029 C
HETATM   19  C25 UNL     1       8.156 -27.998 -14.200  1.00  0.00    -0.004 C
HETATM   20  C26 UNL     1       8.193 -28.887 -15.193  1.00  0.00     0.056 C
HETATM   21  C27 UNL     1       8.596 -30.292 -14.979  1.00  0.00     0.218 C
HETATM   22  O8  UNL     1       8.588 -31.176 -15.881  1.00  0.00    -0.284 OA
HETATM   23  C28 UNL     1       9.023 -30.639 -13.564  1.00  0.00     0.209 C
HETATM   24  O9  UNL     1       8.860 -31.724 -13.087  1.00  0.00    -0.288 OA
HETATM   25  C29 UNL     1       9.654 -29.385 -12.969  1.00  0.00     0.053 C
HETATM   26  C30 UNL     1      10.647 -29.025 -14.088  1.00  0.00     0.026 C
HETATM   27  C31 UNL     1      10.294 -28.595  -8.623  1.00  0.00     0.011 C
HETATM   28  C32 UNL     1      11.531 -28.366  -7.976  1.00  0.00     0.020 C
HETATM   29  C33 UNL     1      10.574 -29.982  -9.137  1.00  0.00    -0.032 C
HETATM   30  C34 UNL     1      11.910 -30.572  -9.090  1.00  0.00     0.016 C
HETATM   31  C35 UNL     1       9.805 -31.076  -8.351  1.00  0.00     0.016 C
ENDROOT
BRANCH   1  32
HETATM   32  C7  UNL     1       9.702 -27.990  -6.153  1.00  0.00     0.251 C
HETATM   33  N1  UNL     1      10.103 -26.855  -5.352  1.00  0.00    -0.339 N
ATOM     34  H1  UNL     1      10.218 -25.969  -5.844  1.00  0.00     0.167 HD
HETATM   35  O1  UNL     1       9.589 -29.003  -5.388  1.00  0.00    -0.270 OA
BRANCH  33  36
HETATM   36  C6  UNL     1      10.352 -26.841  -3.973  1.00  0.00     0.064 C
BRANCH  36  37
HETATM   37  C5  UNL     1      11.123 -25.777  -3.318  1.00  0.00     0.044 C
BRANCH  37  38
HETATM   38  C4  UNL     1      12.234 -26.144  -2.413  1.00  0.00     0.005 C
BRANCH  38  39
HETATM   39  C3  UNL     1      13.512 -25.390  -2.566  1.00  0.00     0.000 C
BRANCH  39  40
HETATM   40  C2  UNL     1      13.767 -24.984  -4.007  1.00  0.00    -0.005 C
HETATM   41  C1  UNL     1      14.933 -25.793  -4.577  1.00  0.00     0.005 C
ENDBRANCH  39  40
ENDBRANCH  38  39
ENDBRANCH  37  38
ENDBRANCH  36  37
ENDBRANCH  33  36
ENDBRANCH   1  32
BRANCH  13  42
HETATM   42  O6  UNL     1       8.397 -25.923 -10.231  1.00  0.00    -0.382 OA
ATOM     43  H6  UNL     1       7.709 -25.449 -10.683  1.00  0.00     0.211 HD
ENDBRANCH  13  42
BRANCH   7  44
HETATM   44  O4  UNL     1      13.024 -28.985 -11.926  1.00  0.00    -0.315 OA
BRANCH  44  45
HETATM   45  C13 UNL     1      14.050 -28.314 -12.497  1.00  0.00     0.255 C
HETATM   46  C14 UNL     1      14.109 -28.105 -13.950  1.00  0.00     0.126 C
HETATM   47  O5  UNL     1      14.960 -27.867 -11.783  1.00  0.00    -0.266 OA
ENDBRANCH  44  45
ENDBRANCH   7  44
TORSDOF 9
ENDMDL