MODEL 3
REMARK VINA RESULT: -5.305040222      2.019      3.217
REMARK  11 active torsions:
REMARK  status: ('A' for Active; 'I' for Inactive)
REMARK    1  A    between atoms: O1_2  and  C2_3
REMARK    2  A    between atoms: C5_7  and  C6_8
REMARK    3  A    between atoms: C6_8  and  C7_9
REMARK    4  A    between atoms: C8_10  and  C9_11
REMARK    5  A    between atoms: C9_11  and  C10_12
REMARK    6  A    between atoms: C13_15  and  O3_16
REMARK    7  A    between atoms: C24_28  and  C25_29
REMARK    8  A    between atoms: C25_29  and  O4_30
REMARK    9  A    between atoms: C26_32  and  O5_33
REMARK   10  A    between atoms: O5_33  and  C27_34
REMARK   11  A    between atoms: C34_45  and  O10_46
ROOT
HETATM    1  C2  UNL     1      10.987 -27.744 -10.738  1.00  0.00     0.220 C
HETATM    2  C3  UNL     1      10.895 -28.002  -9.288  1.00  0.00     0.163 C
HETATM    3  O2  UNL     1      11.940 -28.439  -8.763  1.00  0.00    -0.295 OA
HETATM    4  C4  UNL     1       9.899 -27.878  -8.299  1.00  0.00     0.076 C
HETATM    5  C5  UNL     1       9.974 -27.913  -6.850  1.00  0.00     0.031 C
HETATM    6  C13 UNL     1       8.433 -27.854  -7.122  1.00  0.00     0.133 C
HETATM    7  C14 UNL     1       8.787 -28.823  -8.221  1.00  0.00     0.003 C
HETATM    8  C15 UNL     1       8.863 -30.142  -7.508  1.00  0.00     0.022 C
HETATM    9  C16 UNL     1       8.101 -31.293  -8.056  1.00  0.00    -0.043 C
HETATM   10  C17 UNL     1       6.688 -31.433  -7.467  1.00  0.00     0.015 C
HETATM   11  C18 UNL     1       8.798 -32.571  -7.540  1.00  0.00     0.015 C
HETATM   12  C19 UNL     1       7.971 -31.417  -9.531  1.00  0.00     0.002 C
HETATM   13  C20 UNL     1       9.022 -32.307 -10.164  1.00  0.00     0.007 C
HETATM   14  C21 UNL     1       9.830 -30.996 -10.123  1.00  0.00     0.011 C
HETATM   15  C22 UNL     1       8.623 -30.239 -10.176  1.00  0.00    -0.029 C
HETATM   16  C23 UNL     1       8.337 -29.942 -11.622  1.00  0.00     0.026 C
HETATM   17  C24 UNL     1       8.592 -28.419 -11.696  1.00  0.00     0.033 C
HETATM   18  C26 UNL     1      10.042 -28.093 -11.728  1.00  0.00     0.180 C
HETATM   19  C29 UNL     1       7.775 -28.028 -10.522  1.00  0.00     0.115 C
HETATM   20  C30 UNL     1       7.755 -26.587 -10.371  1.00  0.00     0.276 C
HETATM   21  O7  UNL     1       8.571 -25.821 -10.925  1.00  0.00    -0.264 OA
HETATM   22  O8  UNL     1       6.850 -25.823  -9.612  1.00  0.00    -0.283 OA
HETATM   23  C31 UNL     1       5.539 -26.385  -9.332  1.00  0.00     0.169 C
HETATM   24  C32 UNL     1       4.534 -25.949 -10.370  1.00  0.00     0.079 C
HETATM   25  C33 UNL     1       5.123 -26.000  -7.939  1.00  0.00     0.079 C
HETATM   26  O9  UNL     1       5.842 -27.710  -9.328  1.00  0.00    -0.324 OA
HETATM   27  C34 UNL     1       6.245 -28.153 -10.698  1.00  0.00     0.282 C
HETATM   28  C36 UNL     1       8.136 -29.004  -9.470  1.00  0.00     0.030 C
ENDROOT
BRANCH  17  29
HETATM   29  C25 UNL     1       8.029 -28.035 -13.047  1.00  0.00     0.177 C
BRANCH  29  30
HETATM   30  O4  UNL     1       7.997 -28.921 -14.049  1.00  0.00    -0.400 OA
ATOM     31  H4  UNL     1       8.799 -29.317 -14.370  1.00  0.00     0.209 HD
ENDBRANCH  29  30
ENDBRANCH  17  29
BRANCH  27  32
HETATM   32  O10 UNL     1       5.709 -29.383 -10.537  1.00  0.00    -0.365 OA
HETATM   33  C35 UNL     1       4.592 -29.750 -11.201  1.00  0.00     0.204 C
ENDBRANCH  27  32
BRANCH  18  34
HETATM   34  O5  UNL     1      10.294 -27.273 -12.880  1.00  0.00    -0.312 OA
BRANCH  34  35
HETATM   35  C27 UNL     1      10.979 -27.528 -13.992  1.00  0.00     0.255 C
HETATM   36  C28 UNL     1      11.534 -26.564 -14.957  1.00  0.00     0.126 C
HETATM   37  O6  UNL     1      11.137 -28.727 -14.180  1.00  0.00    -0.266 OA
ENDBRANCH  34  35
ENDBRANCH  18  34
BRANCH   1  38
HETATM   38  O1  UNL     1      12.275 -28.239 -11.121  1.00  0.00    -0.381 OA
HETATM   39  C1  UNL     1      13.213 -27.324 -11.381  1.00  0.00     0.202 C
ENDBRANCH   1  38
BRANCH   6  40
HETATM   40  O3  UNL     1       7.721 -28.290  -6.043  1.00  0.00    -0.394 OA
ATOM     41  H3  UNL     1       6.788 -28.289  -6.222  1.00  0.00     0.210 HD
ENDBRANCH   6  40
BRANCH   5  42
HETATM   42  C6  UNL     1      10.421 -26.655  -6.100  1.00  0.00     0.035 C
BRANCH  42  43
HETATM   43  C7  UNL     1      11.844 -26.590  -5.828  1.00  0.00    -0.030 C
HETATM   44  C8  UNL     1      12.313 -26.039  -4.740  1.00  0.00    -0.030 C
BRANCH  44  45
HETATM   45  C9  UNL     1      11.575 -25.410  -3.628  1.00  0.00     0.030 C
BRANCH  45  46
HETATM   46  C10 UNL     1      12.432 -25.294  -2.377  1.00  0.00    -0.019 C
HETATM   47  C11 UNL     1      12.414 -26.568  -1.576  1.00  0.00     0.010 C
HETATM   48  C12 UNL     1      13.879 -25.007  -2.748  1.00  0.00     0.010 C
ENDBRANCH  45  46
ENDBRANCH  44  45
ENDBRANCH  42  43
ENDBRANCH   5  42
TORSDOF 11
ENDMDL