MODEL 1
REMARK VINA RESULT: -9.461339152      0.000      0.000
REMARK  9 active torsions:
REMARK  status: ('A' for Active; 'I' for Inactive)
REMARK    1  A    between atoms: C5_5  and  N1_6
REMARK    2  A    between atoms: C6_7  and  N2_8
REMARK    3  A    between atoms: N2_8  and  S1_10
REMARK    4  A    between atoms: S1_10  and  C8_13
REMARK    5  A    between atoms: C11_16  and  N3_17
REMARK    6  A    between atoms: C17_25  and  N5_26
REMARK    7  A    between atoms: N5_26  and  C18_28
REMARK    8  A    between atoms: C21_31  and  N6_32
REMARK    9  A    between atoms: N6_32  and  S2_34
ROOT
HETATM    1  N1  UNL     1      15.797 -20.840  -7.266  1.00  0.00    -0.261 N
HETATM    2  C6  UNL     1      15.070 -21.186  -6.207  1.00  0.00     0.154 A
HETATM    3  C17 UNL     1      13.924 -21.987  -6.483  1.00  0.00     0.080 A
HETATM    4  C24 UNL     1      13.603 -22.367  -7.756  1.00  0.00     0.046 A
HETATM    5  C25 UNL     1      14.388 -21.983  -8.817  1.00  0.00     0.009 A
HETATM    6  C26 UNL     1      13.987 -22.424 -10.177  1.00  0.00     0.054 C
HETATM    7  C27 UNL     1      15.470 -21.226  -8.549  1.00  0.00     0.260 A
HETATM    8  O5  UNL     1      16.198 -20.867  -9.525  1.00  0.00    -0.267 OA
ENDROOT
BRANCH   2   9
HETATM    9  N2  UNL     1      15.288 -20.833  -4.854  1.00  0.00    -0.259 N
HETATM   10  C7  UNL     1      14.556 -19.629  -4.406  1.00  0.00     0.171 C
BRANCH   9  11
HETATM   11  S1  UNL     1      16.175 -21.672  -3.679  1.00  0.00     0.266 S
HETATM   12  O1  UNL     1      16.373 -23.124  -4.106  1.00  0.00    -0.200 OA
HETATM   13  O2  UNL     1      15.451 -21.671  -2.331  1.00  0.00    -0.200 OA
BRANCH  11  14
HETATM   14  C8  UNL     1      17.772 -21.048  -3.378  1.00  0.00     0.080 A
HETATM   15  C9  UNL     1      18.893 -21.759  -3.112  1.00  0.00     0.027 A
HETATM   16  C10 UNL     1      20.096 -21.124  -2.912  1.00  0.00     0.031 A
HETATM   17  C11 UNL     1      20.250 -19.746  -2.964  1.00  0.00     0.039 A
HETATM   18  C15 UNL     1      19.080 -19.048  -3.239  1.00  0.00     0.031 A
HETATM   19  C16 UNL     1      17.872 -19.649  -3.442  1.00  0.00     0.027 A
BRANCH  17  20
HETATM   20  N3  UNL     1      21.506 -19.119  -2.768  1.00  0.00    -0.317 N
HETATM   21  C12 UNL     1      22.716 -19.670  -2.950  1.00  0.00     0.115 A
HETATM   22  C13 UNL     1      23.704 -18.729  -2.653  1.00  0.00     0.106 A
HETATM   23  N4  UNL     1      23.042 -17.621  -2.295  1.00  0.00    -0.360 N
HETATM   24  C14 UNL     1      21.713 -17.854  -2.365  1.00  0.00     0.188 A
ATOM     25  H4  UNL     1      23.473 -16.740  -2.014  1.00  0.00     0.166 HD
ENDBRANCH  17  20
ENDBRANCH  11  14
ENDBRANCH   9  11
ENDBRANCH   2   9
BRANCH   1  26
HETATM   26  C5  UNL     1      16.973 -20.050  -7.190  1.00  0.00     0.050 A
HETATM   27  C4  UNL     1      16.875 -18.694  -7.304  1.00  0.00     0.031 A
HETATM   28  C3  UNL     1      18.025 -17.927  -7.188  1.00  0.00     0.009 A
HETATM   29  C2  UNL     1      19.235 -18.513  -6.964  1.00  0.00    -0.061 A
HETATM   30  C1  UNL     1      20.460 -17.655  -6.848  1.00  0.00     0.048 C
HETATM   31  C30 UNL     1      19.344 -19.874  -6.849  1.00  0.00     0.015 A
HETATM   32  C28 UNL     1      18.181 -20.636  -6.965  1.00  0.00    -0.034 A
HETATM   33  C29 UNL     1      18.326 -22.114  -6.795  1.00  0.00     0.050 C
ENDBRANCH   1  26
BRANCH   3  34
HETATM   34  N5  UNL     1      13.093 -22.384  -5.432  1.00  0.00    -0.339 N
ATOM     35  H5  UNL     1      12.843 -21.663  -4.754  1.00  0.00     0.167 HD
BRANCH  34  36
HETATM   36  C18 UNL     1      12.615 -23.545  -5.226  1.00  0.00     0.105 A
HETATM   37  C19 UNL     1      12.748 -24.104  -3.967  1.00  0.00     0.051 A
HETATM   38  C20 UNL     1      12.247 -25.353  -3.664  1.00  0.00     0.035 A
HETATM   39  C21 UNL     1      11.602 -26.066  -4.629  1.00  0.00     0.057 A
HETATM   40  C23 UNL     1      11.473 -25.492  -5.903  1.00  0.00     0.119 A
HETATM   41  N7  UNL     1      11.974 -24.296  -6.125  1.00  0.00    -0.350 N
ATOM     42  H7  UNL     1      11.863 -23.910  -7.063  1.00  0.00     0.166 HD
BRANCH  39  43
HETATM   43  N6  UNL     1      11.030 -27.350  -4.415  1.00  0.00    -0.284 N
ATOM     44  H6  UNL     1      10.904 -27.693  -3.463  1.00  0.00     0.178 HD
BRANCH  43  45
HETATM   45  S2  UNL     1      10.551 -28.326  -5.733  1.00  0.00     0.227 S
HETATM   46  C22 UNL     1      10.056 -29.928  -5.094  1.00  0.00     0.186 C
HETATM   47  O3  UNL     1      11.707 -28.507  -6.697  1.00  0.00    -0.206 OA
HETATM   48  O4  UNL     1       9.405 -27.682  -6.446  1.00  0.00    -0.206 OA
ENDBRANCH  43  45
ENDBRANCH  39  43
ENDBRANCH  34  36
ENDBRANCH   3  34
TORSDOF 9
ENDMDL