MODEL 4
REMARK VINA RESULT: -8.947443822      0.674      1.544
REMARK  13 active torsions:
REMARK  status: ('A' for Active; 'I' for Inactive)
REMARK    1  A    between atoms: C3_3  and  N1_4
REMARK    2  A    between atoms: N1_4  and  C5_6
REMARK    3  A    between atoms: C5_6  and  C7_8
REMARK       I    between atoms: C7_8  and  N2_10
REMARK    4  A    between atoms: C8_12  and  C9_13
REMARK    5  A    between atoms: C8_12  and  C14_19
REMARK    6  A    between atoms: C9_13  and  C10_15
REMARK    7  A    between atoms: C20_26  and  N3_27
REMARK       I    between atoms: N3_27  and  C21_29
REMARK    8  A    between atoms: C21_29  and  O5_31
REMARK    9  A    between atoms: O5_31  and  C22_32
REMARK   10  A    between atoms: C26_36  and  O6_37
REMARK   11  A    between atoms: O6_37  and  C27_38
REMARK       I    between atoms: C27_38  and  N4_40
REMARK   12  A    between atoms: N4_40  and  C28_42
REMARK   13  A    between atoms: C28_42  and  C29_43
ROOT
HETATM    1  C1  UNL     1      14.966 -23.129  -1.958  1.00  0.00     0.014 C
HETATM    2  C2  UNL     1      14.430 -24.172  -2.187  1.00  0.00    -0.098 C
HETATM    3  C3  UNL     1      13.781 -25.449  -2.431  1.00  0.00     0.211 C
ENDROOT
BRANCH   3   4
HETATM    4  N1  UNL     1      12.732 -25.461  -3.377  1.00  0.00    -0.395 N
HETATM    5  C4  UNL     1      11.470 -25.950  -3.008  1.00  0.00     0.144 C
BRANCH   4   6
HETATM    6  C5  UNL     1      13.106 -25.448  -4.744  1.00  0.00     0.168 C
HETATM    7  C6  UNL     1      14.596 -25.649  -4.871  1.00  0.00     0.042 C
BRANCH   6   8
HETATM    8  C7  UNL     1      12.581 -24.350  -5.560  1.00  0.00     0.244 C
HETATM    9  O1  UNL     1      12.694 -23.179  -5.043  1.00  0.00    -0.271 OA
HETATM   10  N2  UNL     1      11.980 -24.405  -6.814  1.00  0.00    -0.323 N
HETATM   11  C8  UNL     1      12.406 -23.882  -7.916  1.00  0.00     0.088 C
ATOM     12  H2  UNL     1      11.099 -24.918  -6.870  1.00  0.00     0.169 HD
BRANCH  11  13
HETATM   13  C9  UNL     1      11.553 -24.101  -9.109  1.00  0.00     0.182 C
HETATM   14  O2  UNL     1      10.864 -23.132  -9.506  1.00  0.00    -0.290 OA
BRANCH  13  15
HETATM   15  C10 UNL     1      11.511 -25.408  -9.819  1.00  0.00     0.016 C
HETATM   16  C11 UNL     1      10.416 -25.327 -10.865  1.00  0.00     0.023 C
HETATM   17  C12 UNL     1      11.252 -26.582  -8.937  1.00  0.00     0.023 C
HETATM   18  C13 UNL     1      12.813 -25.539 -10.625  1.00  0.00     0.023 C
ENDBRANCH  13  15
ENDBRANCH  11  13
BRANCH  11  19
HETATM   19  C14 UNL     1      13.627 -23.127  -8.112  1.00  0.00     0.176 C
HETATM   20  C15 UNL     1      13.383 -22.007  -9.119  1.00  0.00     0.043 C
HETATM   21  C16 UNL     1      14.753 -21.719  -9.701  1.00  0.00    -0.002 C
HETATM   22  C17 UNL     1      14.736 -20.554 -10.644  1.00  0.00     0.011 C
HETATM   23  C18 UNL     1      15.756 -21.511  -8.626  1.00  0.00     0.093 C
HETATM   24  C19 UNL     1      15.766 -20.120  -8.090  1.00  0.00     0.159 C
HETATM   25  C33 UNL     1      15.560 -22.318  -7.368  1.00  0.00     0.166 C
HETATM   26  O3  UNL     1      15.192 -19.131  -8.450  1.00  0.00    -0.295 OA
HETATM   27  C20 UNL     1      16.698 -20.204  -6.935  1.00  0.00     0.189 C
HETATM   28  C26 UNL     1      16.335 -21.563  -6.354  1.00  0.00     0.193 C
HETATM   29  O8  UNL     1      14.236 -22.560  -7.031  1.00  0.00    -0.371 OA
BRANCH  27  30
HETATM   30  N3  UNL     1      18.048 -20.154  -7.447  1.00  0.00    -0.323 N
HETATM   31  C21 UNL     1      19.036 -19.279  -6.908  1.00  0.00     0.362 C
HETATM   32  O4  UNL     1      18.789 -18.493  -5.944  1.00  0.00    -0.238 OA
ATOM     33  H3  UNL     1      18.303 -20.766  -8.221  1.00  0.00     0.165 HD
BRANCH  31  34
HETATM   34  O5  UNL     1      20.309 -19.258  -7.420  1.00  0.00    -0.294 OA
BRANCH  34  35
HETATM   35  C22 UNL     1      21.027 -18.052  -7.647  1.00  0.00     0.061 C
HETATM   36  C23 UNL     1      20.151 -17.043  -8.342  1.00  0.00     0.046 C
HETATM   37  C24 UNL     1      21.551 -17.475  -6.377  1.00  0.00     0.046 C
HETATM   38  C25 UNL     1      22.180 -18.425  -8.579  1.00  0.00     0.046 C
ENDBRANCH  34  35
ENDBRANCH  31  34
ENDBRANCH  27  30
BRANCH  28  39
HETATM   39  O6  UNL     1      15.807 -21.469  -5.075  1.00  0.00    -0.293 OA
BRANCH  39  40
HETATM   40  C27 UNL     1      16.258 -20.544  -4.155  1.00  0.00     0.361 C
HETATM   41  O7  UNL     1      15.414 -19.677  -3.800  1.00  0.00    -0.239 OA
HETATM   42  N4  UNL     1      17.583 -20.557  -3.633  1.00  0.00    -0.336 N
ATOM     43  H4  UNL     1      18.228 -21.280  -3.952  1.00  0.00     0.164 HD
BRANCH  42  44
HETATM   44  C28 UNL     1      18.048 -19.589  -2.673  1.00  0.00     0.133 C
BRANCH  44  45
HETATM   45  C29 UNL     1      19.535 -19.665  -2.449  1.00  0.00    -0.035 C
HETATM   46  C30 UNL     1      19.886 -19.405  -0.990  1.00  0.00     0.016 C
HETATM   47  C31 UNL     1      20.327 -18.689  -3.283  1.00  0.00     0.016 C
HETATM   48  C32 UNL     1      20.050 -21.056  -2.791  1.00  0.00     0.016 C
ENDBRANCH  44  45
ENDBRANCH  42  44
ENDBRANCH  39  40
ENDBRANCH  28  39
ENDBRANCH  11  19
ENDBRANCH   6   8
ENDBRANCH   4   6
ENDBRANCH   3   4
TORSDOF 13
ENDMDL