MODEL 2
REMARK VINA RESULT: -8.917298786      1.795      2.267
REMARK  11 active torsions:
REMARK  status: ('A' for Active; 'I' for Inactive)
REMARK    1  A    between atoms: C2_2  and  C3_3
REMARK    2  A    between atoms: C3_3  and  O1_4
REMARK    3  A    between atoms: O1_4  and  C4_5
REMARK    4  A    between atoms: C4_5  and  C5_6
REMARK       I    between atoms: C5_6  and  N1_8
REMARK    5  A    between atoms: N1_8  and  C7_10
REMARK    6  A    between atoms: C7_10  and  C8_11
REMARK    7  A    between atoms: C8_11  and  O4_13
REMARK    8  A    between atoms: O4_13  and  C9_14
REMARK    9  A    between atoms: C11_16  and  O5_17
REMARK   10  A    between atoms: C24_32  and  O7_33
REMARK   11  A    between atoms: C29_39  and  O9_40
ROOT
HETATM    1  C9  UNL     1      14.712 -21.979  -4.648  1.00  0.00     0.142 C
HETATM    2  C10 UNL     1      14.840 -20.650  -3.914  1.00  0.00     0.066 C
HETATM    3  C11 UNL     1      15.608 -19.762  -4.918  1.00  0.00     0.133 C
HETATM    4  C12 UNL     1      16.844 -20.385  -5.433  1.00  0.00     0.015 C
HETATM    5  C13 UNL     1      16.546 -20.666  -6.939  1.00  0.00     0.023 C
HETATM    6  C14 UNL     1      17.202 -21.744  -4.880  1.00  0.00     0.011 C
HETATM    7  C15 UNL     1      18.157 -21.727  -3.741  1.00  0.00     0.007 C
HETATM    8  C16 UNL     1      19.395 -20.867  -3.992  1.00  0.00     0.015 C
HETATM    9  C17 UNL     1      18.937 -19.405  -4.282  1.00  0.00    -0.004 C
HETATM   10  C18 UNL     1      18.317 -19.027  -2.973  1.00  0.00     0.021 C
HETATM   11  C19 UNL     1      18.102 -19.579  -5.470  1.00  0.00    -0.009 C
HETATM   12  C20 UNL     1      18.015 -18.405  -6.352  1.00  0.00     0.176 C
HETATM   13  O6  UNL     1      17.000 -17.926  -6.892  1.00  0.00    -0.288 OA
HETATM   14  C21 UNL     1      19.308 -17.741  -6.607  1.00  0.00     0.059 C
HETATM   15  C22 UNL     1      20.288 -17.827  -5.765  1.00  0.00    -0.050 C
HETATM   16  C23 UNL     1      21.523 -17.155  -6.079  1.00  0.00     0.065 A
HETATM   17  C24 UNL     1      21.649 -16.631  -7.465  1.00  0.00     0.141 A
HETATM   18  C26 UNL     1      23.101 -17.168  -7.521  1.00  0.00     0.066 A
HETATM   19  C27 UNL     1      22.859 -17.555  -6.055  1.00  0.00     0.142 A
HETATM   20  O8  UNL     1      23.194 -16.484  -5.197  1.00  0.00    -0.375 OA
HETATM   21  C28 UNL     1      21.863 -16.143  -4.988  1.00  0.00     0.168 C
HETATM   22  C29 UNL     1      21.243 -16.378  -3.685  1.00  0.00     0.149 C
HETATM   23  C30 UNL     1      20.078 -17.273  -3.522  1.00  0.00     0.049 C
HETATM   24  C31 UNL     1      20.121 -18.514  -4.481  1.00  0.00    -0.006 C
HETATM   25  C32 UNL     1      21.291 -19.269  -3.925  1.00  0.00     0.021 C
HETATM   26  C33 UNL     1      16.045 -22.642  -4.585  1.00  0.00    -0.016 C
HETATM   27  C34 UNL     1      16.144 -23.263  -3.186  1.00  0.00     0.018 C
HETATM   28  C35 UNL     1      15.975 -23.854  -5.528  1.00  0.00     0.018 C
ENDROOT
BRANCH   1  29
HETATM   29  O4  UNL     1      13.747 -22.799  -4.013  1.00  0.00    -0.314 OA
BRANCH  29  30
HETATM   30  C8  UNL     1      12.786 -23.496  -4.703  1.00  0.00     0.277 C
HETATM   31  O3  UNL     1      12.698 -24.730  -4.483  1.00  0.00    -0.263 OA
BRANCH  30  32
HETATM   32  C7  UNL     1      11.900 -22.819  -5.661  1.00  0.00     0.236 C
BRANCH  32  33
HETATM   33  N1  UNL     1      12.207 -23.158  -7.026  1.00  0.00    -0.345 N
HETATM   34  C5  UNL     1      12.831 -22.241  -7.917  1.00  0.00     0.243 C
HETATM   35  O2  UNL     1      13.102 -21.105  -7.481  1.00  0.00    -0.271 OA
HETATM   36  C6  UNL     1      11.881 -24.485  -7.503  1.00  0.00     0.153 C
BRANCH  34  37
HETATM   37  C4  UNL     1      13.127 -22.661  -9.289  1.00  0.00     0.270 C
BRANCH  37  38
HETATM   38  O1  UNL     1      14.372 -23.127  -9.551  1.00  0.00    -0.382 OA
BRANCH  38  39
HETATM   39  C3  UNL     1      15.304 -22.159  -9.837  1.00  0.00     0.168 C
BRANCH  39  40
HETATM   40  C2  UNL     1      14.690 -21.015 -10.630  1.00  0.00     0.022 C
HETATM   41  C1  UNL     1      15.315 -19.701 -10.201  1.00  0.00     0.007 C
ENDBRANCH  39  40
ENDBRANCH  38  39
ENDBRANCH  37  38
ENDBRANCH  34  37
ENDBRANCH  32  33
ENDBRANCH  30  32
ENDBRANCH  29  30
ENDBRANCH   1  29
BRANCH   3  42
HETATM   42  O5  UNL     1      15.675 -18.462  -4.457  1.00  0.00    -0.394 OA
ATOM     43  H5  UNL     1      14.804 -18.085  -4.405  1.00  0.00     0.210 HD
ENDBRANCH   3  42
BRANCH  22  44
HETATM   44  O9  UNL     1      22.264 -16.605  -2.724  1.00  0.00    -0.393 OA
ATOM     45  H9  UNL     1      21.865 -16.904  -1.916  1.00  0.00     0.210 HD
ENDBRANCH  22  44
BRANCH  17  46
HETATM   46  O7  UNL     1      21.744 -15.245  -7.589  1.00  0.00    -0.389 OA
HETATM   47  C25 UNL     1      20.626 -14.801  -8.281  1.00  0.00     0.202 C
ENDBRANCH  17  46
TORSDOF 11
ENDMDL