MODEL 5
REMARK VINA RESULT: -6.787004517      3.283     10.025
REMARK  13 active torsions:
REMARK  status: ('A' for Active; 'I' for Inactive)
REMARK    1  A    between atoms: N1_1  and  C1_4
REMARK    2  A    between atoms: C2_10  and  C3_11
REMARK       I    between atoms: C3_11  and  N4_13
REMARK    3  A    between atoms: N4_13  and  N5_15
REMARK    4  A    between atoms: N5_15  and  N6_17
REMARK    5  A    between atoms: N6_17  and  C4_19
REMARK    6  A    between atoms: N9_25  and  C6_27
REMARK    7  A    between atoms: C6_27  and  O3_28
REMARK    8  A    between atoms: C6_27  and  C7_30
REMARK    9  A    between atoms: C8_33  and  C9_34
REMARK   10  A    between atoms: C9_34  and  O4_35
REMARK   11  A    between atoms: C9_34  and  C10_37
REMARK   12  A    between atoms: C10_37  and  O5_38
REMARK   13  A    between atoms: C11_41  and  O7_42
ROOT
HETATM    1  C4  UNL     1     -51.554  11.746   1.426  1.00  0.00     0.262 A
HETATM    2  N7  UNL     1     -52.005  11.150   0.323  1.00  0.00    -0.262 N
ATOM      3  H7  UNL     1     -53.003  10.950   0.257  1.00  0.00     0.190 HD
HETATM    4  N8  UNL     1     -51.220  10.800  -0.706  1.00  0.00    -0.278 N
ATOM      5  H8  UNL     1     -51.596  10.344  -1.537  1.00  0.00     0.189 HD
HETATM    6  C5  UNL     1     -49.916  11.079  -0.586  1.00  0.00     0.195 A
HETATM    7  N9  UNL     1     -49.099  10.779  -1.521  1.00  0.00    -0.339 N
ATOM      8  H9  UNL     1     -48.106  10.993  -1.427  1.00  0.00     0.164 HD
HETATM    9  C12 UNL     1     -49.436  11.706   0.569  1.00  0.00     0.336 A
HETATM   10  O8  UNL     1     -48.219  11.937   0.621  1.00  0.00    -0.255 OA
HETATM   11  O9  UNL     1     -50.287  12.008   1.520  1.00  0.00    -0.237 OA
ENDROOT
BRANCH   7  12
HETATM   12  C6  UNL     1     -49.597  10.133  -2.711  1.00  0.00     0.275 C
BRANCH  12  13
HETATM   13  O3  UNL     1     -49.217  10.859  -3.862  1.00  0.00    -0.371 OA
ATOM     14  H3  UNL     1     -49.771  10.627  -4.598  1.00  0.00     0.212 HD
ENDBRANCH  12  13
BRANCH  12  15
HETATM   15  C7  UNL     1     -48.911   8.799  -2.775  1.00  0.00     0.118 A
HETATM   16  N10 UNL     1     -48.603   7.973  -1.781  1.00  0.00    -0.334 N
HETATM   17  C8  UNL     1     -47.994   6.894  -2.306  1.00  0.00     0.158 A
ATOM     18  H10 UNL     1     -48.794   8.130  -0.792  1.00  0.00     0.168 HD
HETATM   19  O6  UNL     1     -47.936   7.065  -3.605  1.00  0.00    -0.270 OA
HETATM   20  C11 UNL     1     -48.490   8.229  -3.940  1.00  0.00     0.212 A
BRANCH  17  21
HETATM   21  C9  UNL     1     -47.494   5.738  -1.517  1.00  0.00     0.216 C
BRANCH  21  22
HETATM   22  O4  UNL     1     -46.237   5.319  -1.907  1.00  0.00    -0.385 OA
ATOM     23  H4  UNL     1     -45.547   5.917  -1.645  1.00  0.00     0.210 HD
ENDBRANCH  21  22
BRANCH  21  24
HETATM   24  C10 UNL     1     -48.459   4.567  -1.736  1.00  0.00     0.204 C
BRANCH  24  25
HETATM   25  O5  UNL     1     -49.680   5.089  -2.157  1.00  0.00    -0.398 OA
ATOM     26  H5  UNL     1     -49.920   4.657  -2.969  1.00  0.00     0.209 HD
ENDBRANCH  24  25
ENDBRANCH  21  24
ENDBRANCH  17  21
BRANCH  20  27
HETATM   27  O7  UNL     1     -48.622   8.770  -5.217  1.00  0.00    -0.339 OA
ATOM     28  H7  UNL     1     -47.912   9.008  -5.802  1.00  0.00     0.220 HD
ENDBRANCH  20  27
ENDBRANCH  12  15
ENDBRANCH   7  12
BRANCH   1  29
HETATM   29  N6  UNL     1     -52.473  12.085   2.478  1.00  0.00    -0.249 N
ATOM     30  H6  UNL     1     -53.425  11.721   2.457  1.00  0.00     0.192 HD
BRANCH  29  31
HETATM   31  N5  UNL     1     -52.069  12.903   3.521  1.00  0.00    -0.237 N
ATOM     32  H5  UNL     1     -51.211  13.448   3.433  1.00  0.00     0.208 HD
BRANCH  31  33
HETATM   33  N4  UNL     1     -52.749  12.979   4.575  1.00  0.00    -0.250 N
HETATM   34  C3  UNL     1     -53.755  11.988   4.794  1.00  0.00     0.293 C
HETATM   35  O2  UNL     1     -54.861  12.033   4.243  1.00  0.00    -0.264 OA
ATOM     36  H4  UNL     1     -52.589  13.724   5.252  1.00  0.00     0.192 HD
BRANCH  34  37
HETATM   37  C2  UNL     1     -53.430  10.890   5.713  1.00  0.00     0.171 A
HETATM   38  C1  UNL     1     -53.661   9.543   5.585  1.00  0.00     0.155 A
HETATM   39  N2  UNL     1     -53.176   8.926   6.703  1.00  0.00    -0.224 N
HETATM   40  O1  UNL     1     -52.689   9.859   7.445  1.00  0.00    -0.155 OA
ATOM     41  H2  UNL     1     -53.197   7.927   6.908  1.00  0.00     0.198 HD
HETATM   42  N3  UNL     1     -52.807  11.025   6.924  1.00  0.00    -0.232 N
ATOM     43  H3  UNL     1     -52.490  11.901   7.340  1.00  0.00     0.197 HD
BRANCH  38  44
HETATM   44  N1  UNL     1     -54.223   8.931   4.615  1.00  0.00    -0.382 N
ATOM     45  H12 UNL     1     -54.339   7.925   4.491  1.00  0.00     0.157 HD
ATOM     46  H11 UNL     1     -54.642   9.397   3.810  1.00  0.00     0.157 HD
ENDBRANCH  38  44
ENDBRANCH  34  37
ENDBRANCH  31  33
ENDBRANCH  29  31
ENDBRANCH   1  29
TORSDOF 13
ENDMDL