MODEL 5
REMARK VINA RESULT: -6.251890308     18.185     20.653
REMARK  17 active torsions:
REMARK  status: ('A' for Active; 'I' for Inactive)
REMARK    1  A    between atoms: N1_2  and  C2_4
REMARK    2  A    between atoms: C4_9  and  N4_10
REMARK    3  A    between atoms: N5_12  and  O1_14
REMARK    4  A    between atoms: O1_14  and  C5_15
REMARK    5  A    between atoms: C5_15  and  C6_16
REMARK    6  A    between atoms: C5_15  and  N8_25
REMARK       I    between atoms: C6_16  and  N6_18
REMARK    7  A    between atoms: N6_18  and  N7_20
REMARK    8  A    between atoms: N7_20  and  O3_21
REMARK    9  A    between atoms: N7_20  and  O4_23
REMARK   10  A    between atoms: N8_25  and  O5_26
REMARK   11  A    between atoms: N8_25  and  C7_28
REMARK   12  A    between atoms: C7_28  and  N9_30
REMARK   13  A    between atoms: N9_30  and  O6_31
REMARK   14  A    between atoms: N9_30  and  N10_33
REMARK   15  A    between atoms: N10_33  and  O7_35
REMARK   16  A    between atoms: C8_37  and  N11_38
REMARK   17  A    between atoms: N11_38  and  O8_40
ROOT
HETATM    1  C5  UNL     1     -37.941   6.126  -2.095  1.00  0.00     0.377 C
ENDROOT
BRANCH   1   2
HETATM    2  O1  UNL     1     -38.294   5.028  -1.264  1.00  0.00    -0.227 OA
BRANCH   2   3
HETATM    3  N5  UNL     1     -37.253   4.279  -0.714  1.00  0.00    -0.204 N
HETATM    4  N4  UNL     1     -37.576   3.553   0.257  1.00  0.00    -0.274 N
ATOM      5  H4  UNL     1     -38.543   3.547   0.582  1.00  0.00     0.189 HD
ATOM      6  H5  UNL     1     -36.299   4.319  -1.076  1.00  0.00     0.216 HD
BRANCH   4   7
HETATM    7  C4  UNL     1     -36.625   2.751   0.903  1.00  0.00     0.138 A
HETATM    8  C3  UNL     1     -36.085   1.669   0.225  1.00  0.00     0.163 A
HETATM    9  N2  UNL     1     -35.163   0.878   0.827  1.00  0.00    -0.176 N
HETATM   10  N3  UNL     1     -36.511   1.398  -1.099  1.00  0.00    -0.080 NA
HETATM   11  C2  UNL     1     -34.780   1.160   2.087  1.00  0.00     0.680 A
ATOM     12  H2  UNL     1     -34.764   0.079   0.332  1.00  0.00     0.185 HD
HETATM   13  N12 UNL     1     -35.298   2.210   2.756  1.00  0.00    -0.173 N
HETATM   14  C8  UNL     1     -36.207   3.016   2.206  1.00  0.00     0.172 A
ATOM     15  H12 UNL     1     -34.986   2.393   3.710  1.00  0.00     0.186 HD
BRANCH  11  16
HETATM   16  N1  UNL     1     -33.912   0.435   2.685  1.00  0.00    -0.230 N
HETATM   17  C1  UNL     1     -33.012   0.870   3.704  1.00  0.00     0.165 C
ATOM     18  H1  UNL     1     -33.858  -0.546   2.407  1.00  0.00     0.177 HD
ENDBRANCH  11  16
BRANCH  14  19
HETATM   19  N11 UNL     1     -36.738   4.039   2.798  1.00  0.00    -0.251 N
ATOM     20  H11 UNL     1     -37.282   3.886   3.647  1.00  0.00     0.196 HD
BRANCH  19  21
HETATM   21  O8  UNL     1     -36.597   5.316   2.327  1.00  0.00    -0.288 OA
ATOM     22  H8  UNL     1     -35.807   5.617   1.896  1.00  0.00     0.244 HD
ENDBRANCH  19  21
ENDBRANCH  14  19
ENDBRANCH   4   7
ENDBRANCH   2   3
ENDBRANCH   1   2
BRANCH   1  23
HETATM   23  C6  UNL     1     -36.550   6.583  -1.660  1.00  0.00     0.289 C
HETATM   24  O2  UNL     1     -36.274   6.516  -0.464  1.00  0.00    -0.267 OA
HETATM   25  N6  UNL     1     -35.667   7.053  -2.651  1.00  0.00    -0.238 N
ATOM     26  H6  UNL     1     -35.986   7.071  -3.620  1.00  0.00     0.188 HD
BRANCH  25  27
HETATM   27  N7  UNL     1     -34.367   7.498  -2.364  1.00  0.00     0.036 NA
BRANCH  27  28
HETATM   28  O3  UNL     1     -33.672   6.383  -2.005  1.00  0.00    -0.271 OA
ATOM     29  H3  UNL     1     -33.332   6.565  -1.136  1.00  0.00     0.241 HD
ENDBRANCH  27  28
BRANCH  27  30
HETATM   30  O4  UNL     1     -34.484   8.346  -1.303  1.00  0.00    -0.271 OA
ATOM     31  H4  UNL     1     -35.309   8.802  -1.420  1.00  0.00     0.241 HD
ENDBRANCH  27  30
ENDBRANCH  25  27
ENDBRANCH   1  23
BRANCH   1  32
HETATM   32  N8  UNL     1     -38.788   7.266  -1.971  1.00  0.00    -0.189 N
BRANCH  32  33
HETATM   33  O5  UNL     1     -39.300   7.859  -3.127  1.00  0.00    -0.282 OA
ATOM     34  H5  UNL     1     -40.237   7.999  -3.198  1.00  0.00     0.245 HD
ENDBRANCH  32  33
BRANCH  32  35
HETATM   35  C7  UNL     1     -39.169   7.859  -0.779  1.00  0.00     0.247 C
HETATM   36  S1  UNL     1     -38.826   9.489  -0.600  1.00  0.00    -0.035 SA
BRANCH  35  37
HETATM   37  N9  UNL     1     -39.812   7.208   0.283  1.00  0.00    -0.113 N
BRANCH  37  38
HETATM   38  O6  UNL     1     -41.127   7.077   0.494  1.00  0.00    -0.264 OA
ATOM     39  H6  UNL     1     -41.566   6.510   1.117  1.00  0.00     0.247 HD
ENDBRANCH  37  38
BRANCH  37  40
HETATM   40  N10 UNL     1     -38.985   6.603   1.273  1.00  0.00    -0.181 N
ATOM     41  H10 UNL     1     -38.227   7.106   1.734  1.00  0.00     0.218 HD
BRANCH  40  42
HETATM   42  O7  UNL     1     -39.255   5.404   1.537  1.00  0.00    -0.272 OA
ATOM     43  H7  UNL     1     -38.728   5.012   2.223  1.00  0.00     0.246 HD
ENDBRANCH  40  42
ENDBRANCH  37  40
ENDBRANCH  35  37
ENDBRANCH  32  35
ENDBRANCH   1  32
TORSDOF 17
ENDMDL