MODEL 1
REMARK VINA RESULT: -7.290890529      0.000      0.000
REMARK  10 active torsions:
REMARK  status: ('A' for Active; 'I' for Inactive)
REMARK    1  A    between atoms: O1_2  and  C2_3
REMARK    2  A    between atoms: C5_6  and  N1_7
REMARK    3  A    between atoms: C6_12  and  C7_13
REMARK    4  A    between atoms: C7_13  and  N4_14
REMARK    5  A    between atoms: C9_22  and  N8_23
REMARK    6  A    between atoms: C10_24  and  N9_25
REMARK    7  A    between atoms: C11_30  and  N11_31
REMARK    8  A    between atoms: C13_38  and  O3_39
REMARK    9  A    between atoms: C14_41  and  N13_42
REMARK   10  A    between atoms: N13_42  and  N14_44
ROOT
HETATM    1  N1  UNL     1     -36.316   7.185  -1.771  1.00  0.00    -0.220 N
HETATM    2  N2  UNL     1     -35.154   7.707  -1.324  1.00  0.00    -0.234 N
ATOM      3  H2  UNL     1     -34.989   7.990  -0.358  1.00  0.00     0.209 HD
HETATM    4  N3  UNL     1     -34.280   7.805  -2.263  1.00  0.00    -0.284 N
ATOM      5  H3  UNL     1     -33.331   8.169  -2.170  1.00  0.00     0.188 HD
HETATM    6  C6  UNL     1     -34.857   7.330  -3.410  1.00  0.00     0.094 A
HETATM    7  C9  UNL     1     -36.123   6.954  -3.064  1.00  0.00     0.182 A
ENDROOT
BRANCH   1   8
HETATM    8  C5  UNL     1     -37.430   7.018  -0.900  1.00  0.00     0.095 A
HETATM    9  C4  UNL     1     -38.497   7.877  -0.858  1.00  0.00     0.037 A
HETATM   10  C3  UNL     1     -39.569   7.683  -0.015  1.00  0.00     0.041 A
HETATM   11  C2  UNL     1     -39.641   6.610   0.846  1.00  0.00     0.099 A
HETATM   12  C14 UNL     1     -38.567   5.729   0.816  1.00  0.00     0.116 A
HETATM   13  C13 UNL     1     -37.496   5.920  -0.027  1.00  0.00     0.125 A
BRANCH  11  14
HETATM   14  O1  UNL     1     -40.721   6.418   1.693  1.00  0.00    -0.353 OA
HETATM   15  C1  UNL     1     -41.896   7.184   1.605  1.00  0.00     0.210 C
ENDBRANCH  11  14
BRANCH  12  16
HETATM   16  N13 UNL     1     -38.622   4.604   1.711  1.00  0.00    -0.302 N
ATOM     17  H13 UNL     1     -39.484   4.059   1.729  1.00  0.00     0.186 HD
BRANCH  16  18
HETATM   18  N14 UNL     1     -37.605   4.208   2.541  1.00  0.00    -0.345 N
ATOM     19 2H14 UNL     1     -37.597   4.618   3.475  1.00  0.00     0.176 HD
ATOM     20 1H14 UNL     1     -36.871   3.546   2.291  1.00  0.00     0.176 HD
ENDBRANCH  16  18
ENDBRANCH  12  16
BRANCH  13  21
HETATM   21  O3  UNL     1     -36.419   5.068  -0.085  1.00  0.00    -0.356 OA
ATOM     22  H3  UNL     1     -36.308   4.510   0.676  1.00  0.00     0.218 HD
ENDBRANCH  13  21
ENDBRANCH   1   8
BRANCH   7  23
HETATM   23  N8  UNL     1     -37.082   6.422  -3.942  1.00  0.00    -0.076 N
HETATM   24  C10 UNL     1     -37.985   7.224  -4.525  1.00  0.00     0.702 A
HETATM   25  N10 UNL     1     -38.908   6.713  -5.390  1.00  0.00    -0.022 N
HETATM   26  C11 UNL     1     -38.884   5.396  -5.638  1.00  0.00     0.694 A
ATOM     27  H10 UNL     1     -39.598   7.318  -5.837  1.00  0.00     0.203 HD
HETATM   28  N12 UNL     1     -37.980   4.600  -5.053  1.00  0.00    -0.140 N
HETATM   29  C12 UNL     1     -37.070   5.088  -4.203  1.00  0.00     0.361 A
ATOM     30  H12 UNL     1     -37.985   3.601  -5.260  1.00  0.00     0.189 HD
HETATM   31  O2  UNL     1     -36.229   4.326  -3.659  1.00  0.00    -0.245 OA
BRANCH  24  32
HETATM   32  N9  UNL     1     -38.076   8.485  -4.314  1.00  0.00    -0.233 N
ATOM     33  H92 UNL     1     -37.187   8.984  -4.279  1.00  0.00     0.174 HD
ATOM     34  H91 UNL     1     -38.957   8.988  -4.204  1.00  0.00     0.174 HD
ENDBRANCH  24  32
BRANCH  26  35
HETATM   35  N11 UNL     1     -39.777   4.940  -6.470  1.00  0.00    -0.234 N
ATOM     36 2H11 UNL     1     -40.675   4.571  -6.156  1.00  0.00     0.174 HD
ATOM     37 1H11 UNL     1     -39.536   4.967  -7.460  1.00  0.00     0.174 HD
ENDBRANCH  26  35
ENDBRANCH   7  23
BRANCH   6  38
HETATM   38  C7  UNL     1     -34.102   7.313  -4.673  1.00  0.00     0.214 C
BRANCH  38  39
HETATM   39  N4  UNL     1     -33.728   5.989  -5.097  1.00  0.00    -0.265 N
HETATM   40  C8  UNL     1     -33.989   5.483  -6.343  1.00  0.00     0.220 A
HETATM   41  N5  UNL     1     -33.524   4.209  -6.378  1.00  0.00    -0.279 N
HETATM   42  N6  UNL     1     -33.000   3.937  -5.211  1.00  0.00    -0.227 N
ATOM     43  H5  UNL     1     -33.575   3.575  -7.175  1.00  0.00     0.189 HD
HETATM   44  N7  UNL     1     -33.135   5.014  -4.465  1.00  0.00    -0.225 N
ATOM     45  H6  UNL     1     -32.569   3.056  -4.931  1.00  0.00     0.210 HD
ATOM     46  H7  UNL     1     -32.812   5.078  -3.501  1.00  0.00     0.210 HD
ENDBRANCH  38  39
ENDBRANCH   6  38
TORSDOF 10
ENDMDL