MODEL 5
REMARK VINA RESULT: -6.957281804      2.171      3.501
REMARK  11 active torsions:
REMARK  status: ('A' for Active; 'I' for Inactive)
REMARK    1  A    between atoms: C2_2  and  N1_3
REMARK    2  A    between atoms: N2_5  and  N3_7
REMARK    3  A    between atoms: C4_12  and  N5_13
REMARK    4  A    between atoms: C6_19  and  C7_20
REMARK    5  A    between atoms: C7_20  and  O1_21
REMARK    6  A    between atoms: C8_23  and  C9_24
REMARK    7  A    between atoms: C9_24  and  N7_25
REMARK    8  A    between atoms: C10_30  and  N10_31
REMARK    9  A    between atoms: C11_32  and  N11_33
REMARK   10  A    between atoms: N11_33  and  O2_35
REMARK   11  A    between atoms: C12_37  and  O3_38
ROOT
HETATM    1  N1  UNL     1     -39.275   5.993  -0.654  1.00  0.00    -0.179 N
HETATM    2  C3  UNL     1     -40.342   6.825  -0.432  1.00  0.00     0.700 A
HETATM    3  N2  UNL     1     -41.473   6.277  -0.229  1.00  0.00    -0.138 N
ATOM      4  H2  UNL     1     -41.557   5.261  -0.237  1.00  0.00     0.205 HD
HETATM    5  N4  UNL     1     -40.233   8.145  -0.423  1.00  0.00    -0.173 N
ATOM      6  H4  UNL     1     -41.049   8.733  -0.254  1.00  0.00     0.186 HD
HETATM    7  C4  UNL     1     -39.036   8.689  -0.641  1.00  0.00     0.144 A
HETATM    8  C5  UNL     1     -37.933   7.909  -0.868  1.00  0.00     0.106 A
HETATM    9  N6  UNL     1     -36.643   8.173  -1.086  1.00  0.00    -0.352 N
ATOM     10  H6  UNL     1     -36.235   9.106  -1.139  1.00  0.00     0.166 HD
HETATM   11  C6  UNL     1     -35.966   7.024  -1.224  1.00  0.00     0.047 A
HETATM   12  C8  UNL     1     -36.833   5.922  -1.095  1.00  0.00     0.038 A
HETATM   13  C14 UNL     1     -38.083   6.514  -0.869  1.00  0.00     0.096 A
ENDROOT
BRANCH  12  14
HETATM   14  C9  UNL     1     -36.382   4.555  -1.135  1.00  0.00     0.154 C
BRANCH  14  15
HETATM   15  N7  UNL     1     -36.360   3.774   0.082  1.00  0.00    -0.178 N
HETATM   16  N8  UNL     1     -36.065   2.493   0.211  1.00  0.00    -0.207 N
HETATM   17  N9  UNL     1     -36.199   2.138   1.460  1.00  0.00    -0.114 N
ATOM     18  H8  UNL     1     -35.777   1.876  -0.548  1.00  0.00     0.211 HD
HETATM   19  C10 UNL     1     -36.589   3.204   2.173  1.00  0.00     0.726 A
ATOM     20  H9  UNL     1     -36.032   1.203   1.832  1.00  0.00     0.207 HD
HETATM   21  N13 UNL     1     -36.681   4.202   1.292  1.00  0.00    -0.108 N
ATOM     22  H13 UNL     1     -36.959   5.157   1.519  1.00  0.00     0.208 HD
BRANCH  19  23
HETATM   23  N10 UNL     1     -36.826   3.156   3.570  1.00  0.00    -0.072 N
HETATM   24  C11 UNL     1     -36.026   3.708   4.518  1.00  0.00     0.204 A
HETATM   25  C12 UNL     1     -36.610   3.438   5.762  1.00  0.00     0.192 A
HETATM   26  N12 UNL     1     -37.731   2.741   5.537  1.00  0.00    -0.285 N
HETATM   27  C13 UNL     1     -37.870   2.566   4.220  1.00  0.00     0.349 A
ATOM     28  H12 UNL     1     -38.372   2.399   6.253  1.00  0.00     0.172 HD
HETATM   29  O4  UNL     1     -38.783   1.968   3.604  1.00  0.00    -0.245 OA
BRANCH  24  30
HETATM   30  N11 UNL     1     -34.821   4.428   4.314  1.00  0.00    -0.248 N
ATOM     31  H11 UNL     1     -34.124   4.080   3.656  1.00  0.00     0.196 HD
BRANCH  30  32
HETATM   32  O2  UNL     1     -34.616   5.477   4.935  1.00  0.00    -0.288 OA
ATOM     33  H2  UNL     1     -35.180   5.716   5.662  1.00  0.00     0.244 HD
ENDBRANCH  30  32
ENDBRANCH  24  30
BRANCH  25  34
HETATM   34  O3  UNL     1     -36.114   3.824   6.999  1.00  0.00    -0.343 OA
ATOM     35  H3  UNL     1     -35.262   4.213   7.164  1.00  0.00     0.219 HD
ENDBRANCH  25  34
ENDBRANCH  19  23
ENDBRANCH  14  15
ENDBRANCH  12  14
BRANCH  11  36
HETATM   36  C7  UNL     1     -34.504   7.023  -1.498  1.00  0.00     0.222 C
BRANCH  36  37
HETATM   37  O1  UNL     1     -33.989   8.338  -1.391  1.00  0.00    -0.395 OA
ATOM     38  H1  UNL     1     -34.588   8.883  -0.894  1.00  0.00     0.209 HD
ENDBRANCH  36  37
ENDBRANCH  11  36
BRANCH   1  39
HETATM   39  C2  UNL     1     -39.540   4.582  -0.626  1.00  0.00     0.143 C
HETATM   40  C1  UNL     1     -39.786   4.125  -2.077  1.00  0.00     0.027 C
ENDBRANCH   1  39
BRANCH   7  41
HETATM   41  N5  UNL     1     -38.932   9.971  -0.634  1.00  0.00    -0.383 N
ATOM     42  H52 UNL     1     -39.266  10.518  -1.427  1.00  0.00     0.157 HD
ATOM     43  H51 UNL     1     -38.510  10.421   0.178  1.00  0.00     0.157 HD
ENDBRANCH   7  41
BRANCH   3  44
HETATM   44  N3  UNL     1     -42.592   7.064   0.003  1.00  0.00    -0.331 N
ATOM     45  H32 UNL     1     -42.882   7.735  -0.709  1.00  0.00     0.177 HD
ATOM     46  H31 UNL     1     -43.111   6.966   0.876  1.00  0.00     0.177 HD
ENDBRANCH   3  44
TORSDOF 11
ENDMDL