MODEL 1
REMARK VINA RESULT: -7.511187007      0.000      0.000
REMARK  9 active torsions:
REMARK  status: ('A' for Active; 'I' for Inactive)
REMARK    1  A    between atoms: C2_2  and  O1_4
REMARK    2  A    between atoms: C2_2  and  C13_41
REMARK    3  A    between atoms: O1_4  and  N1_5
REMARK       I    between atoms: N1_5  and  C4_7
REMARK    4  A    between atoms: C4_7  and  C5_9
REMARK    5  A    between atoms: C5_9  and  O3_10
REMARK    6  A    between atoms: C5_9  and  C6_12
REMARK    7  A    between atoms: C11_24  and  N6_25
REMARK    8  A    between atoms: N6_25  and  N7_27
REMARK    9  A    between atoms: C12_33  and  N11_34
ROOT
HETATM    1  C6  UNL     1     -49.704  11.119  -0.408  1.00  0.00     0.151 A
HETATM    2  N2  UNL     1     -49.514  11.936   0.651  1.00  0.00    -0.173 N
ATOM      3  H2  UNL     1     -48.631  12.382   0.901  1.00  0.00     0.185 HD
HETATM    4  C7  UNL     1     -50.669  12.068   1.322  1.00  0.00     0.718 A
HETATM    5  N3  UNL     1     -51.585  11.322   0.668  1.00  0.00    -0.091 N
HETATM    6  N4  UNL     1     -50.982  10.755  -0.376  1.00  0.00    -0.267 N
ATOM      7  H4  UNL     1     -51.433  10.136  -1.049  1.00  0.00     0.189 HD
HETATM    8  C8  UNL     1     -52.989  11.086   0.911  1.00  0.00     0.152 C
HETATM    9  C9  UNL     1     -53.334   9.670   0.432  1.00  0.00     0.066 C
HETATM   10  C10 UNL     1     -53.818  12.004   0.005  1.00  0.00     0.066 C
HETATM   11  N5  UNL     1     -53.441  11.222   2.236  1.00  0.00    -0.195 N
ATOM     12  H5  UNL     1     -54.297  10.693   2.403  1.00  0.00     0.180 HD
HETATM   13  C11 UNL     1     -53.050  11.842   3.283  1.00  0.00     0.711 C
HETATM   14  N12 UNL     1     -51.903  12.670   3.420  1.00  0.00    -0.117 N
ATOM     15  H12 UNL     1     -51.835  13.193   4.293  1.00  0.00     0.206 HD
HETATM   16  N13 UNL     1     -50.857  12.861   2.514  1.00  0.00    -0.116 N
ATOM     17  H13 UNL     1     -50.186  13.606   2.706  1.00  0.00     0.206 HD
ENDROOT
BRANCH   1  18
HETATM   18  C5  UNL     1     -48.666  10.707  -1.424  1.00  0.00     0.281 C
BRANCH  18  19
HETATM   19  C4  UNL     1     -49.155   9.674  -2.342  1.00  0.00     0.277 C
HETATM   20  N1  UNL     1     -48.666   8.327  -2.207  1.00  0.00    -0.231 N
ATOM     21  H1  UNL     1     -47.985   8.097  -1.483  1.00  0.00     0.197 HD
HETATM   22  O2  UNL     1     -49.982   9.924  -3.234  1.00  0.00    -0.268 OA
BRANCH  20  23
HETATM   23  O1  UNL     1     -49.123   7.355  -3.059  1.00  0.00    -0.256 OA
BRANCH  23  24
HETATM   24  C2  UNL     1     -49.125   6.144  -2.345  1.00  0.00     0.169 C
HETATM   25  C1  UNL     1     -48.016   6.218  -1.329  1.00  0.00     0.060 C
HETATM   26  C3  UNL     1     -48.821   5.031  -3.318  1.00  0.00     0.060 C
BRANCH  24  27
HETATM   27  C13 UNL     1     -50.450   5.917  -1.714  1.00  0.00     0.211 C
HETATM   28  O4  UNL     1     -50.657   4.796  -1.184  1.00  0.00    -0.646 OA
HETATM   29  O5  UNL     1     -51.445   6.885  -1.693  1.00  0.00    -0.646 OA
ENDBRANCH  24  27
ENDBRANCH  23  24
ENDBRANCH  20  23
ENDBRANCH  18  19
BRANCH  18  30
HETATM   30  O3  UNL     1     -48.093  11.796  -2.032  1.00  0.00    -0.378 OA
ATOM     31  H3  UNL     1     -48.642  12.231  -2.674  1.00  0.00     0.211 HD
ENDBRANCH  18  30
ENDBRANCH   1  18
BRANCH  13  32
HETATM   32  N6  UNL     1     -53.832  11.708   4.477  1.00  0.00    -0.093 N
ATOM     33  H6  UNL     1     -54.663  12.290   4.580  1.00  0.00     0.208 HD
BRANCH  32  34
HETATM   34  N7  UNL     1     -53.515  10.826   5.502  1.00  0.00     0.008 N
HETATM   35  N8  UNL     1     -52.922  11.148   6.634  1.00  0.00    -0.189 N
HETATM   36  N9  UNL     1     -52.766  10.070   7.398  1.00  0.00     0.010 NA
ATOM     37  H8  UNL     1     -52.623  12.090   6.887  1.00  0.00     0.208 HD
HETATM   38  N10 UNL     1     -53.268   9.029   6.751  1.00  0.00    -0.112 N
HETATM   39  C12 UNL     1     -53.730   9.514   5.577  1.00  0.00     0.727 A
ATOM     40  H10 UNL     1     -53.299   8.061   7.073  1.00  0.00     0.203 HD
BRANCH  39  41
HETATM   41  N11 UNL     1     -54.291   8.745   4.694  1.00  0.00    -0.230 N
ATOM     42 2H11 UNL     1     -54.738   9.124   3.859  1.00  0.00     0.174 HD
ATOM     43 1H11 UNL     1     -54.363   7.728   4.705  1.00  0.00     0.174 HD
ENDBRANCH  39  41
ENDBRANCH  32  34
ENDBRANCH  13  32
TORSDOF 9
ENDMDL