MODEL 2
REMARK VINA RESULT: -7.386646434      1.386      1.735
REMARK  9 active torsions:
REMARK  status: ('A' for Active; 'I' for Inactive)
REMARK    1  A    between atoms: O1_2  and  C2_3
REMARK    2  A    between atoms: N1_7  and  O4_8
REMARK    3  A    between atoms: C4_10  and  C5_11
REMARK    4  A    between atoms: C6_14  and  C7_15
REMARK    5  A    between atoms: C7_15  and  C8_16
REMARK    6  A    between atoms: C8_16  and  N3_17
REMARK    7  A    between atoms: N4_21  and  N5_22
REMARK    8  A    between atoms: N5_22  and  C9_24
REMARK    9  A    between atoms: C11_32  and  N9_33
ROOT
HETATM    1  C5  UNL     1     -38.165   5.561   0.681  1.00  0.00     0.158 A
HETATM    2  N2  UNL     1     -37.288   4.882  -0.123  1.00  0.00    -0.326 N
ATOM      3  H2  UNL     1     -36.983   5.187  -1.047  1.00  0.00     0.169 HD
HETATM    4  C6  UNL     1     -36.889   3.754   0.488  1.00  0.00     0.125 A
HETATM    5  N4  UNL     1     -37.502   3.698   1.684  1.00  0.00    -0.181 N
HETATM    6  N11 UNL     1     -38.259   4.790   1.773  1.00  0.00    -0.261 N
ATOM      7  H11 UNL     1     -38.843   5.014   2.578  1.00  0.00     0.191 HD
ENDROOT
BRANCH   5   8
HETATM    8  N5  UNL     1     -37.367   2.686   2.648  1.00  0.00    -0.258 N
ATOM      9  H5  UNL     1     -37.649   1.732   2.422  1.00  0.00     0.191 HD
BRANCH   8  10
HETATM   10  C9  UNL     1     -36.847   2.972   3.919  1.00  0.00     0.188 A
HETATM   11  N6  UNL     1     -37.668   3.489   4.875  1.00  0.00    -0.280 N
HETATM   12  N7  UNL     1     -37.230   3.771   6.076  1.00  0.00    -0.282 N
ATOM     13  H6  UNL     1     -38.647   3.661   4.649  1.00  0.00     0.189 HD
HETATM   14  C10 UNL     1     -35.952   3.565   6.431  1.00  0.00     0.155 A
ATOM     15  H7  UNL     1     -37.879   4.157   6.762  1.00  0.00     0.188 HD
HETATM   16  N8  UNL     1     -35.515   3.856   7.659  1.00  0.00    -0.174 N
HETATM   17  C13 UNL     1     -35.059   3.036   5.492  1.00  0.00     0.132 A
HETATM   18  C11 UNL     1     -34.216   3.629   7.965  1.00  0.00     0.680 A
ATOM     19  H8  UNL     1     -36.150   4.243   8.357  1.00  0.00     0.186 HD
HETATM   20  N10 UNL     1     -33.340   3.123   7.082  1.00  0.00    -0.155 N
HETATM   21  C12 UNL     1     -33.742   2.819   5.840  1.00  0.00     0.277 A
ATOM     22  H10 UNL     1     -32.370   2.969   7.356  1.00  0.00     0.187 HD
HETATM   23  O5  UNL     1     -32.925   2.345   5.012  1.00  0.00    -0.266 OA
HETATM   24  C14 UNL     1     -35.532   2.748   4.242  1.00  0.00     0.237 A
HETATM   25  O6  UNL     1     -34.773   2.277   3.379  1.00  0.00    -0.283 OA
BRANCH  18  26
HETATM   26  N9  UNL     1     -33.800   3.912   9.158  1.00  0.00    -0.234 N
ATOM     27  H92 UNL     1     -34.377   4.513   9.746  1.00  0.00     0.174 HD
ATOM     28  H91 UNL     1     -32.909   3.526   9.469  1.00  0.00     0.174 HD
ENDBRANCH  18  26
ENDBRANCH   8  10
ENDBRANCH   5   8
BRANCH   4  29
HETATM   29  C7  UNL     1     -35.938   2.745  -0.046  1.00  0.00     0.107 C
BRANCH  29  30
HETATM   30  C8  UNL     1     -35.761   2.883  -1.541  1.00  0.00     0.237 C
BRANCH  30  31
HETATM   31  N3  UNL     1     -34.530   3.518  -1.910  1.00  0.00    -0.079 N
ATOM     32  H33 UNL     1     -33.991   3.774  -1.083  1.00  0.00     0.274 HD
ATOM     33  H32 UNL     1     -33.886   2.846  -2.329  1.00  0.00     0.274 HD
ATOM     34  H31 UNL     1     -34.659   4.325  -2.522  1.00  0.00     0.274 HD
ENDBRANCH  30  31
ENDBRANCH  29  30
ENDBRANCH   4  29
BRANCH   1  35
HETATM   35  C4  UNL     1     -38.815   6.826   0.350  1.00  0.00     0.172 A
HETATM   36  C2  UNL     1     -40.029   7.307   0.743  1.00  0.00     0.223 A
HETATM   37  O2  UNL     1     -40.202   8.489   0.177  1.00  0.00    -0.233 OA
HETATM   38  C3  UNL     1     -39.169   8.808  -0.561  1.00  0.00     0.399 A
HETATM   39  O3  UNL     1     -39.014   9.881  -1.243  1.00  0.00    -0.235 OA
HETATM   40  N1  UNL     1     -38.309   7.781  -0.457  1.00  0.00    -0.158 N
BRANCH  36  41
HETATM   41  O1  UNL     1     -40.937   6.685   1.583  1.00  0.00    -0.333 OA
HETATM   42  C1  UNL     1     -42.202   7.280   1.762  1.00  0.00     0.212 C
ENDBRANCH  36  41
BRANCH  40  43
HETATM   43  O4  UNL     1     -37.073   7.710  -1.088  1.00  0.00    -0.278 OA
ATOM     44  H4  UNL     1     -36.237   7.884  -0.672  1.00  0.00     0.245 HD
ENDBRANCH  40  43
ENDBRANCH   1  35
TORSDOF 9
ENDMDL