MODEL 1
REMARK VINA RESULT: -6.993030886      0.000      0.000
REMARK  10 active torsions:
REMARK  status: ('A' for Active; 'I' for Inactive)
REMARK    1  A    between atoms: C2_2  and  O1_3
REMARK    2  A    between atoms: C2_2  and  C12_36
REMARK    3  A    between atoms: O1_3  and  N1_4
REMARK       I    between atoms: N1_4  and  C3_6
REMARK    4  A    between atoms: C3_6  and  C4_8
REMARK    5  A    between atoms: C5_10  and  N2_11
REMARK    6  A    between atoms: N4_17  and  C7_19
REMARK    7  A    between atoms: C7_19  and  N5_20
REMARK    8  A    between atoms: C9_27  and  O3_28
REMARK    9  A    between atoms: O3_28  and  C10_29
REMARK       I    between atoms: C12_36  and  N12_38
REMARK   10  A    between atoms: N12_38  and  N13_40
ROOT
HETATM    1  C4  UNL     1     -37.362   4.076   0.116  1.00  0.00     0.116 A
HETATM    2  S1  UNL     1     -37.155   2.336   0.127  1.00  0.00    -0.046 SA
HETATM    3  C5  UNL     1     -35.892   1.804  -0.862  1.00  0.00     0.144 A
HETATM    4  N3  UNL     1     -35.233   2.758  -1.506  1.00  0.00    -0.321 N
ATOM      5  H3  UNL     1     -34.467   2.456  -2.108  1.00  0.00     0.169 HD
HETATM    6  C6  UNL     1     -35.461   4.050  -1.449  1.00  0.00     0.144 A
HETATM    7  N4  UNL     1     -34.733   4.849  -2.136  1.00  0.00    -0.333 N
ATOM      8  H4  UNL     1     -34.983   5.833  -2.030  1.00  0.00     0.168 HD
HETATM    9  C9  UNL     1     -36.458   4.686  -0.690  1.00  0.00     0.146 A
ENDROOT
BRANCH   1  10
HETATM   10  C3  UNL     1     -38.416   4.673   0.898  1.00  0.00     0.285 C
HETATM   11  N1  UNL     1     -39.300   5.690   0.592  1.00  0.00    -0.229 N
ATOM     12  H1  UNL     1     -39.245   6.125  -0.329  1.00  0.00     0.198 HD
HETATM   13  O2  UNL     1     -38.552   4.162   2.076  1.00  0.00    -0.265 OA
BRANCH  11  14
HETATM   14  O1  UNL     1     -40.254   6.141   1.486  1.00  0.00    -0.263 OA
BRANCH  14  15
HETATM   15  C2  UNL     1     -40.923   7.251   1.031  1.00  0.00     0.241 C
HETATM   16  C1  UNL     1     -42.208   6.876   0.301  1.00  0.00     0.052 C
BRANCH  15  17
HETATM   17  C12 UNL     1     -40.106   7.992   0.054  1.00  0.00     0.266 C
HETATM   18  O4  UNL     1     -40.409   7.787  -1.174  1.00  0.00    -0.269 OA
HETATM   19  N12 UNL     1     -39.054   8.874   0.335  1.00  0.00    -0.274 N
ATOM     20  H12 UNL     1     -38.792   9.055   1.304  1.00  0.00     0.189 HD
BRANCH  19  21
HETATM   21  N13 UNL     1     -38.367   9.503  -0.691  1.00  0.00    -0.343 N
ATOM     22 2H13 UNL     1     -38.888   9.809  -1.514  1.00  0.00     0.176 HD
ATOM     23 1H13 UNL     1     -37.361   9.656  -0.625  1.00  0.00     0.176 HD
ENDBRANCH  19  21
ENDBRANCH  15  17
ENDBRANCH  14  15
ENDBRANCH  11  14
ENDBRANCH   1  10
BRANCH   9  24
HETATM   24  O3  UNL     1     -36.496   6.104  -0.780  1.00  0.00    -0.273 OA
BRANCH  24  25
HETATM   25  C10 UNL     1     -36.993   6.579  -2.023  1.00  0.00     0.237 C
HETATM   26  N9  UNL     1     -38.105   6.211  -2.543  1.00  0.00    -0.340 N
HETATM   27  C11 UNL     1     -38.340   6.869  -3.817  1.00  0.00     0.259 C
ATOM     28  H9  UNL     1     -38.744   5.541  -2.116  1.00  0.00     0.164 HD
HETATM   29  N10 UNL     1     -37.086   7.500  -4.146  1.00  0.00    -0.118 NA
HETATM   30  N11 UNL     1     -36.407   7.504  -2.906  1.00  0.00    -0.267 N
ATOM     31  H11 UNL     1     -35.606   8.095  -2.684  1.00  0.00     0.186 HD
ENDBRANCH  24  25
ENDBRANCH   9  24
BRANCH   3  32
HETATM   32  N2  UNL     1     -35.535   0.554  -1.026  1.00  0.00    -0.380 N
ATOM     33  H22 UNL     1     -36.141  -0.189  -0.678  1.00  0.00     0.158 HD
ATOM     34  H21 UNL     1     -34.679   0.241  -1.485  1.00  0.00     0.158 HD
ENDBRANCH   3  32
BRANCH   7  35
HETATM   35  C7  UNL     1     -33.652   4.622  -3.011  1.00  0.00     0.232 C
BRANCH  35  36
HETATM   36  N5  UNL     1     -33.689   5.370  -4.246  1.00  0.00    -0.159 N
HETATM   37  N6  UNL     1     -32.929   6.331  -4.719  1.00  0.00    -0.203 N
HETATM   38  N7  UNL     1     -33.643   6.385  -5.808  1.00  0.00    -0.208 N
ATOM     39  H6  UNL     1     -32.111   6.833  -4.374  1.00  0.00     0.212 HD
HETATM   40  N8  UNL     1     -34.409   5.421  -5.338  1.00  0.00    -0.200 N
ATOM     41  H7  UNL     1     -33.620   6.939  -6.664  1.00  0.00     0.211 HD
HETATM   42  C8  UNL     1     -35.592   4.704  -5.857  1.00  0.00     0.204 C
ENDBRANCH  35  36
ENDBRANCH   7  35
TORSDOF 10
ENDMDL