MODEL 2
REMARK VINA RESULT: -6.342296800      2.796      4.581
REMARK  10 active torsions:
REMARK  status: ('A' for Active; 'I' for Inactive)
REMARK    1  A    between atoms: C2_2  and  O1_3
REMARK    2  A    between atoms: O1_3  and  C3_4
REMARK    3  A    between atoms: C3_4  and  C4_6
REMARK    4  A    between atoms: C4_6  and  C5_7
REMARK    5  A    between atoms: C5_7  and  O3_8
REMARK    6  A    between atoms: O3_8  and  C6_9
REMARK    7  A    between atoms: C8_15  and  S1_16
REMARK    8  A    between atoms: S1_16  and  N3_17
REMARK    9  A    between atoms: N3_17  and  N4_19
REMARK   10  A    between atoms: N11_37  and  N12_38
ROOT
HETATM    1  C4  UNL     1     -38.866   6.771  -1.504  1.00  0.00     0.206 C
HETATM    2  C7  UNL     1     -37.468   6.289  -1.737  1.00  0.00     0.084 A
HETATM    3  N2  UNL     1     -36.954   5.141  -2.214  1.00  0.00    -0.334 N
ATOM      4  H2  UNL     1     -37.596   4.401  -2.497  1.00  0.00     0.168 HD
HETATM    5  C8  UNL     1     -35.633   4.926  -2.335  1.00  0.00     0.169 A
HETATM    6  N9  UNL     1     -34.811   5.921  -1.954  1.00  0.00    -0.300 N
ATOM      7  H9  UNL     1     -33.804   5.784  -2.036  1.00  0.00     0.171 HD
HETATM    8  C10 UNL     1     -35.269   7.089  -1.471  1.00  0.00     0.277 A
HETATM    9  O5  UNL     1     -34.519   8.025  -1.113  1.00  0.00    -0.266 OA
HETATM   10  C11 UNL     1     -36.641   7.315  -1.344  1.00  0.00     0.138 A
HETATM   11  N10 UNL     1     -37.422   8.403  -0.886  1.00  0.00    -0.293 N
ATOM     12  H10 UNL     1     -37.113   9.368  -0.776  1.00  0.00     0.183 HD
HETATM   13  N11 UNL     1     -38.690   7.900  -0.617  1.00  0.00    -0.117 NA
ENDROOT
BRANCH   5  14
HETATM   14  S1  UNL     1     -34.990   3.375  -2.978  1.00  0.00     0.041 SA
BRANCH  14  15
HETATM   15  N3  UNL     1     -34.042   3.623  -4.429  1.00  0.00    -0.229 N
ATOM     16  H3  UNL     1     -33.221   3.045  -4.608  1.00  0.00     0.198 HD
BRANCH  15  17
HETATM   17  N4  UNL     1     -34.408   4.607  -5.334  1.00  0.00     0.003 N
HETATM   18  N5  UNL     1     -35.378   4.483  -6.221  1.00  0.00    -0.191 N
HETATM   19  N6  UNL     1     -35.457   5.591  -6.913  1.00  0.00    -0.212 N
ATOM     20  H5  UNL     1     -35.967   3.660  -6.346  1.00  0.00     0.212 HD
HETATM   21  N7  UNL     1     -34.551   6.429  -6.484  1.00  0.00    -0.114 N
ATOM     22  H6  UNL     1     -36.121   5.771  -7.667  1.00  0.00     0.210 HD
HETATM   23  C9  UNL     1     -33.888   5.839  -5.503  1.00  0.00     0.730 A
ATOM     24  H7  UNL     1     -34.386   7.370  -6.841  1.00  0.00     0.207 HD
HETATM   25  N8  UNL     1     -32.924   6.325  -4.822  1.00  0.00    -0.230 N
ATOM     26  H82 UNL     1     -32.412   5.870  -4.065  1.00  0.00     0.174 HD
ATOM     27  H81 UNL     1     -32.530   7.257  -4.950  1.00  0.00     0.174 HD
ENDBRANCH  15  17
ENDBRANCH  14  15
ENDBRANCH   5  14
BRANCH   1  28
HETATM   28  C3  UNL     1     -39.632   5.709  -0.818  1.00  0.00     0.294 C
HETATM   29  O2  UNL     1     -39.664   4.547  -1.281  1.00  0.00    -0.262 OA
BRANCH  28  30
HETATM   30  O1  UNL     1     -40.320   5.996   0.344  1.00  0.00    -0.320 OA
BRANCH  30  31
HETATM   31  C2  UNL     1     -41.702   6.286   0.378  1.00  0.00     0.174 C
HETATM   32  C1  UNL     1     -41.947   7.216   1.540  1.00  0.00     0.034 C
ENDBRANCH  30  31
ENDBRANCH  28  30
ENDBRANCH   1  28
BRANCH   1  33
HETATM   33  C5  UNL     1     -39.563   7.125  -2.774  1.00  0.00     0.226 C
BRANCH  33  34
HETATM   34  O3  UNL     1     -38.864   8.082  -3.543  1.00  0.00    -0.303 OA
BRANCH  34  35
HETATM   35  C6  UNL     1     -38.404   7.864  -4.806  1.00  0.00     0.372 C
HETATM   36  N1  UNL     1     -37.319   6.984  -5.038  1.00  0.00    -0.032 NA
HETATM   37  O4  UNL     1     -38.947   8.447  -5.771  1.00  0.00    -0.242 OA
ENDBRANCH  34  35
ENDBRANCH  33  34
ENDBRANCH   1  33
BRANCH  13  38
HETATM   38  N12 UNL     1     -39.610   8.922  -0.876  1.00  0.00    -0.344 NA
ATOM     39 2H12 UNL     1     -40.259   8.955  -0.090  1.00  0.00     0.172 HD
ATOM     40 1H12 UNL     1     -39.165   9.840  -0.908  1.00  0.00     0.172 HD
ENDBRANCH  13  38
TORSDOF 10
ENDMDL