MODEL 3
REMARK VINA RESULT: -7.673968150     13.923     16.874
REMARK  11 active torsions:
REMARK  status: ('A' for Active; 'I' for Inactive)
REMARK    1  A    between atoms: N1_2  and  C2_4
REMARK    2  A    between atoms: C3_9  and  C4_10
REMARK    3  A    between atoms: C4_10  and  O1_11
REMARK    4  A    between atoms: C4_10  and  C5_13
REMARK    5  A    between atoms: C5_13  and  N4_14
REMARK    6  A    between atoms: N4_14  and  C6_16
REMARK    7  A    between atoms: N5_18  and  C8_19
REMARK    8  A    between atoms: C9_22  and  N7_23
REMARK    9  A    between atoms: C12_40  and  C13_41
REMARK   10  A    between atoms: C13_41  and  O2_42
REMARK   11  A    between atoms: C13_41  and  O3_44
ROOT
HETATM    1  C6  UNL     1     -39.317   5.325  -0.545  1.00  0.00     0.075 A
HETATM    2  C7  UNL     1     -38.516   4.222  -0.323  1.00  0.00     0.166 A
HETATM    3  N5  UNL     1     -38.132   4.219   0.965  1.00  0.00    -0.092 N
HETATM    4  N14 UNL     1     -38.663   5.277   1.554  1.00  0.00    -0.277 N
ATOM      5  H14 UNL     1     -38.538   5.526   2.536  1.00  0.00     0.188 HD
HETATM    6  C12 UNL     1     -39.404   5.989   0.656  1.00  0.00     0.108 A
ENDROOT
BRANCH   3   7
HETATM    7  C8  UNL     1     -37.294   3.248   1.604  1.00  0.00     0.755 A
HETATM    8  N6  UNL     1     -37.336   1.959   1.230  1.00  0.00    -0.018 N
HETATM    9  C9  UNL     1     -36.569   1.009   1.800  1.00  0.00     0.705 A
ATOM     10  H6  UNL     1     -37.976   1.687   0.483  1.00  0.00     0.203 HD
HETATM   11  N8  UNL     1     -35.741   1.416   2.779  1.00  0.00    -0.019 N
HETATM   12  C10 UNL     1     -35.651   2.688   3.199  1.00  0.00     0.737 A
ATOM     13  H8  UNL     1     -35.148   0.718   3.228  1.00  0.00     0.203 HD
HETATM   14  N9  UNL     1     -34.805   3.045   4.186  1.00  0.00    -0.159 N
HETATM   15  N13 UNL     1     -36.448   3.596   2.587  1.00  0.00     0.108 N
HETATM   16  C11 UNL     1     -34.751   4.332   4.571  1.00  0.00     0.222 A
ATOM     17  H9  UNL     1     -34.213   2.346   4.636  1.00  0.00     0.187 HD
HETATM   18  N10 UNL     1     -33.858   4.750   5.622  1.00  0.00    -0.061 NA
HETATM   19  N11 UNL     1     -35.549   5.225   3.954  1.00  0.00    -0.257 N
HETATM   20  N12 UNL     1     -36.375   4.858   2.986  1.00  0.00    -0.204 N
ATOM     21  H11 UNL     1     -35.518   6.204   4.239  1.00  0.00     0.191 HD
ATOM     22  H12 UNL     1     -36.965   5.560   2.538  1.00  0.00     0.210 HD
BRANCH   9  23
HETATM   23  N7  UNL     1     -36.595  -0.234   1.457  1.00  0.00    -0.234 N
ATOM     24  H72 UNL     1     -37.490  -0.703   1.316  1.00  0.00     0.174 HD
ATOM     25  H71 UNL     1     -35.758  -0.798   1.313  1.00  0.00     0.174 HD
ENDBRANCH   9  23
ENDBRANCH   3   7
BRANCH   1  26
HETATM   26  N4  UNL     1     -39.945   5.729  -1.751  1.00  0.00    -0.384 N
ATOM     27  H4  UNL     1     -40.942   5.947  -1.738  1.00  0.00     0.159 HD
BRANCH  26  28
HETATM   28  C5  UNL     1     -39.219   5.844  -3.005  1.00  0.00     0.159 C
BRANCH  28  29
HETATM   29  C4  UNL     1     -38.643   7.223  -3.122  1.00  0.00     0.205 C
BRANCH  29  30
HETATM   30  C3  UNL     1     -37.298   7.261  -2.483  1.00  0.00     0.143 A
HETATM   31  N3  UNL     1     -36.923   7.926  -1.404  1.00  0.00    -0.272 N
HETATM   32  N2  UNL     1     -35.650   7.694  -1.167  1.00  0.00    -0.131 N
ATOM     33  H3  UNL     1     -37.527   8.526  -0.842  1.00  0.00     0.189 HD
HETATM   34  C2  UNL     1     -35.222   6.865  -2.124  1.00  0.00     0.693 A
ATOM     35  H2  UNL     1     -35.095   8.075  -0.401  1.00  0.00     0.205 HD
HETATM   36  N15 UNL     1     -36.239   6.586  -2.952  1.00  0.00    -0.175 N
ATOM     37  H15 UNL     1     -36.213   5.982  -3.774  1.00  0.00     0.185 HD
BRANCH  34  38
HETATM   38  N1  UNL     1     -34.019   6.428  -2.200  1.00  0.00    -0.229 N
HETATM   39  C1  UNL     1     -33.332   6.234  -3.464  1.00  0.00     0.165 C
ATOM     40  H1  UNL     1     -33.524   6.208  -1.335  1.00  0.00     0.177 HD
ENDBRANCH  34  38
ENDBRANCH  29  30
BRANCH  29  41
HETATM   41  O1  UNL     1     -39.474   8.169  -2.544  1.00  0.00    -0.386 OA
ATOM     42  H1  UNL     1     -40.371   7.856  -2.533  1.00  0.00     0.210 HD
ENDBRANCH  29  41
ENDBRANCH  28  29
ENDBRANCH  26  28
ENDBRANCH   1  26
BRANCH   6  43
HETATM   43  C13 UNL     1     -40.145   7.239   0.971  1.00  0.00     0.309 C
BRANCH  43  44
HETATM   44  O2  UNL     1     -41.496   7.125   0.607  1.00  0.00    -0.366 OA
ATOM     45  H2  UNL     1     -41.885   7.982   0.481  1.00  0.00     0.213 HD
ENDBRANCH  43  44
BRANCH  43  46
HETATM   46  O3  UNL     1     -39.634   8.334   0.278  1.00  0.00    -0.366 OA
ATOM     47  H3  UNL     1     -40.317   8.946   0.029  1.00  0.00     0.213 HD
ENDBRANCH  43  46
ENDBRANCH   6  43
TORSDOF 11
ENDMDL