MODEL 1
REMARK VINA RESULT: -7.695317193      0.000      0.000
REMARK  11 active torsions:
REMARK  status: ('A' for Active; 'I' for Inactive)
REMARK    1  A    between atoms: N1_1  and  C1_4
REMARK    2  A    between atoms: C3_9  and  C4_10
REMARK    3  A    between atoms: N6_15  and  C5_16
REMARK    4  A    between atoms: C6_19  and  N8_20
REMARK    5  A    between atoms: N11_27  and  C8_28
REMARK    6  A    between atoms: C8_28  and  C9_29
REMARK    7  A    between atoms: C8_28  and  C10_34
REMARK    8  A    between atoms: C9_29  and  N12_30
REMARK    9  A    between atoms: N12_30  and  O1_32
REMARK   10  A    between atoms: C10_34  and  C11_35
REMARK   11  A    between atoms: C11_35  and  O2_36
ROOT
HETATM    1  C5  UNL     1     -36.758   4.973  -0.691  1.00  0.00     0.723 A
HETATM    2  N7  UNL     1     -36.165   4.724  -1.874  1.00  0.00    -0.171 N
ATOM      3  H7  UNL     1     -35.572   3.896  -1.943  1.00  0.00     0.186 HD
HETATM    4  C6  UNL     1     -36.300   5.484  -2.957  1.00  0.00     0.146 A
HETATM    5  C7  UNL     1     -37.103   6.600  -2.857  1.00  0.00     0.136 A
HETATM    6  N9  UNL     1     -37.483   7.590  -3.697  1.00  0.00    -0.277 N
ATOM      7  H9  UNL     1     -37.195   7.678  -4.672  1.00  0.00     0.184 HD
HETATM    8  N10 UNL     1     -38.289   8.430  -3.058  1.00  0.00    -0.017 NA
HETATM    9  N11 UNL     1     -38.462   8.032  -1.807  1.00  0.00    -0.248 N
HETATM   10  C12 UNL     1     -37.729   6.890  -1.662  1.00  0.00     0.169 A
HETATM   11  N13 UNL     1     -37.536   6.066  -0.617  1.00  0.00    -0.170 N
ATOM     12  H13 UNL     1     -37.999   6.279   0.267  1.00  0.00     0.186 HD
ENDROOT
BRANCH   1  13
HETATM   13  N6  UNL     1     -36.587   4.132   0.448  1.00  0.00    -0.004 N
HETATM   14  N5  UNL     1     -36.121   2.899   0.440  1.00  0.00    -0.205 N
HETATM   15  N4  UNL     1     -36.096   2.411   1.670  1.00  0.00    -0.267 N
ATOM     16  H5  UNL     1     -35.822   2.393  -0.394  1.00  0.00     0.211 HD
HETATM   17  C4  UNL     1     -36.562   3.360   2.506  1.00  0.00     0.157 A
ATOM     18  H4  UNL     1     -35.779   1.479   1.939  1.00  0.00     0.190 HD
HETATM   19  N14 UNL     1     -36.859   4.415   1.716  1.00  0.00    -0.246 N
ATOM     20  H14 UNL     1     -37.238   5.302   2.046  1.00  0.00     0.191 HD
BRANCH  17  21
HETATM   21  C3  UNL     1     -36.705   3.243   3.954  1.00  0.00     0.121 A
HETATM   22  C2  UNL     1     -37.753   2.511   4.494  1.00  0.00     0.151 A
HETATM   23  N2  UNL     1     -37.853   2.425   5.828  1.00  0.00    -0.178 N
HETATM   24  N3  UNL     1     -38.646   1.906   3.595  1.00  0.00    -0.081 NA
HETATM   25  C1  UNL     1     -37.001   3.002   6.693  1.00  0.00     0.680 A
ATOM     26  H2  UNL     1     -38.627   1.885   6.213  1.00  0.00     0.185 HD
HETATM   27  N15 UNL     1     -35.979   3.715   6.184  1.00  0.00    -0.155 N
HETATM   28  C13 UNL     1     -35.832   3.834   4.846  1.00  0.00     0.277 A
ATOM     29  H15 UNL     1     -35.313   4.166   6.811  1.00  0.00     0.187 HD
HETATM   30  O3  UNL     1     -34.881   4.498   4.356  1.00  0.00    -0.267 OA
BRANCH  25  31
HETATM   31  N1  UNL     1     -37.161   2.874   7.982  1.00  0.00    -0.234 N
ATOM     32  H12 UNL     1     -37.181   3.688   8.597  1.00  0.00     0.174 HD
ATOM     33  H11 UNL     1     -37.269   1.955   8.410  1.00  0.00     0.174 HD
ENDBRANCH  25  31
ENDBRANCH  17  21
ENDBRANCH   1  13
BRANCH   4  34
HETATM   34  N8  UNL     1     -35.724   5.232  -4.089  1.00  0.00    -0.383 N
ATOM     35  H82 UNL     1     -34.728   5.427  -4.185  1.00  0.00     0.157 HD
ATOM     36  H81 UNL     1     -36.210   4.848  -4.899  1.00  0.00     0.157 HD
ENDBRANCH   4  34
BRANCH   9  37
HETATM   37  C8  UNL     1     -39.257   8.647  -0.763  1.00  0.00     0.150 C
BRANCH  37  38
HETATM   38  C9  UNL     1     -39.526  10.068  -0.990  1.00  0.00     0.113 C
BRANCH  38  39
HETATM   39  N12 UNL     1     -38.592  10.936  -1.096  1.00  0.00    -0.282 N
ATOM     40  H12 UNL     1     -37.697  10.621  -1.472  1.00  0.00     0.192 HD
BRANCH  39  41
HETATM   41  O1  UNL     1     -38.701  12.247  -0.748  1.00  0.00    -0.290 OA
ATOM     42  H1  UNL     1     -39.219  12.894  -1.212  1.00  0.00     0.244 HD
ENDBRANCH  39  41
ENDBRANCH  38  39
ENDBRANCH  37  38
BRANCH  37  43
HETATM   43  C10 UNL     1     -40.519   7.843  -0.527  1.00  0.00     0.058 C
BRANCH  43  44
HETATM   44  C11 UNL     1     -40.579   7.384   0.909  1.00  0.00     0.166 C
BRANCH  44  45
HETATM   45  O2  UNL     1     -40.208   6.032   0.945  1.00  0.00    -0.401 OA
ATOM     46  H2  UNL     1     -39.397   5.938   0.460  1.00  0.00     0.209 HD
ENDBRANCH  44  45
ENDBRANCH  43  44
ENDBRANCH  37  43
ENDBRANCH   9  37
TORSDOF 11
ENDMDL