MODEL 2
REMARK VINA RESULT: -8.396064204      2.586      9.768
REMARK  14 active torsions:
REMARK  status: ('A' for Active; 'I' for Inactive)
REMARK       I    between atoms: N3_10  and  C6_12
REMARK    1  A    between atoms: C6_12  and  C7_14
REMARK    2  A    between atoms: C7_14  and  C8_15
REMARK    3  A    between atoms: C8_15  and  C9_16
REMARK    4  A    between atoms: C9_16  and  C10_17
REMARK    5  A    between atoms: C10_17  and  C11_18
REMARK    6  A    between atoms: N4_21  and  C14_22
REMARK    7  A    between atoms: C14_22  and  C15_23
REMARK    8  A    between atoms: C15_23  and  N5_24
REMARK    9  A    between atoms: C23_33  and  N6_34
REMARK   10  A    between atoms: N6_34  and  C24_36
REMARK   11  A    between atoms: C24_36  and  O3_37
REMARK   12  A    between atoms: C24_36  and  C25_39
REMARK   13  A    between atoms: C25_39  and  C26_40
REMARK   14  A    between atoms: C26_40  and  N7_41
ROOT
HETATM    1  C1  UNL     1      10.619  -8.901  19.146  1.00  0.00     0.070 C
HETATM    2  C2  UNL     1       9.172  -8.651  18.833  1.00  0.00     0.035 A
HETATM    3  N1  UNL     1       8.167  -9.378  19.341  1.00  0.00    -0.365 N
ATOM      4  H1  UNL     1       8.395 -10.157  19.958  1.00  0.00     0.165 HD
HETATM    5  C3  UNL     1       6.862  -9.127  19.075  1.00  0.00     0.120 A
HETATM    6  C4  UNL     1       6.533  -8.064  18.232  1.00  0.00     0.087 A
HETATM    7  N2  UNL     1       5.387  -7.522  17.751  1.00  0.00    -0.318 N
ATOM      8  H2  UNL     1       4.452  -7.867  17.967  1.00  0.00     0.169 HD
HETATM    9  C5  UNL     1       5.641  -6.484  16.962  1.00  0.00     0.232 A
HETATM   10  N3  UNL     1       4.898  -5.681  16.305  1.00  0.00    -0.292 N
ATOM     11  H3  UNL     1       5.356  -4.950  15.761  1.00  0.00     0.172 HD
HETATM   12  C6  UNL     1       3.485  -5.733  16.278  1.00  0.00     0.224 C
HETATM   13  O1  UNL     1       2.808  -6.309  17.149  1.00  0.00    -0.273 OA
HETATM   14  O2  UNL     1       6.995  -6.365  16.940  1.00  0.00    -0.274 OA
HETATM   15  C22 UNL     1       7.523  -7.306  17.696  1.00  0.00     0.136 A
HETATM   16  C23 UNL     1       8.860  -7.597  17.995  1.00  0.00     0.093 A
ENDROOT
BRANCH  12  17
HETATM   17  C7  UNL     1       2.885  -5.025  15.098  1.00  0.00     0.103 C
BRANCH  17  18
HETATM   18  C8  UNL     1       1.693  -4.255  15.465  1.00  0.00     0.009 C
BRANCH  18  19
HETATM   19  C9  UNL     1       1.561  -2.871  14.941  1.00  0.00     0.001 C
BRANCH  19  20
HETATM   20  C10 UNL     1       2.717  -2.051  15.469  1.00  0.00     0.005 C
BRANCH  20  21
HETATM   21  C11 UNL     1       3.496  -1.369  14.401  1.00  0.00    -0.011 C
HETATM   22  C12 UNL     1       3.103   0.087  14.239  1.00  0.00     0.035 C
HETATM   23  C13 UNL     1       2.294   0.203  13.007  1.00  0.00     0.273 C
HETATM   24  N4  UNL     1       3.204   0.154  11.823  1.00  0.00     0.090 N
HETATM   25  C20 UNL     1       4.007  -1.046  11.991  1.00  0.00     0.273 C
HETATM   26  C21 UNL     1       3.439  -1.999  13.043  1.00  0.00     0.035 C
BRANCH  24  27
HETATM   27  C14 UNL     1       4.005   1.311  11.790  1.00  0.00     0.302 C
BRANCH  27  28
HETATM   28  C15 UNL     1       5.397   1.190  11.354  1.00  0.00     0.302 C
BRANCH  28  29
HETATM   29  N5  UNL     1       6.385   1.824  12.156  1.00  0.00     0.090 N
HETATM   30  C16 UNL     1       7.718   1.668  11.530  1.00  0.00     0.272 C
HETATM   31  C17 UNL     1       8.308   0.394  11.974  1.00  0.00     0.032 C
HETATM   32  C18 UNL     1       7.431  -0.068  13.078  1.00  0.00     0.032 C
HETATM   33  C19 UNL     1       6.562   1.091  13.425  1.00  0.00     0.272 C
ENDBRANCH  28  29
ENDBRANCH  27  28
ENDBRANCH  24  27
ENDBRANCH  20  21
ENDBRANCH  19  20
ENDBRANCH  18  19
ENDBRANCH  17  18
ENDBRANCH  12  17
BRANCH  16  34
HETATM   34  N6  UNL     1       9.822  -6.811  17.384  1.00  0.00    -0.327 N
ATOM     35  H6  UNL     1      10.386  -7.186  16.621  1.00  0.00     0.169 HD
BRANCH  34  36
HETATM   36  C24 UNL     1      10.020  -5.440  17.842  1.00  0.00     0.187 C
BRANCH  36  37
HETATM   37  O3  UNL     1      10.179  -5.345  19.133  1.00  0.00    -0.340 OA
ATOM     38  H3  UNL     1       9.802  -4.554  19.502  1.00  0.00     0.220 HD
ENDBRANCH  36  37
BRANCH  36  39
HETATM   39  C25 UNL     1      10.043  -4.343  16.989  1.00  0.00    -0.071 C
BRANCH  39  40
HETATM   40  C26 UNL     1      10.067  -3.221  16.113  1.00  0.00     0.361 C
BRANCH  40  41
HETATM   41  N7  UNL     1       8.775  -2.836  15.536  1.00  0.00     0.102 N
HETATM   42  C27 UNL     1       7.967  -2.112  16.485  1.00  0.00     0.299 C
HETATM   43  C28 UNL     1       6.615  -2.781  16.669  1.00  0.00     0.198 C
HETATM   44  O4  UNL     1       5.975  -2.965  15.462  1.00  0.00    -0.388 OA
HETATM   45  C29 UNL     1       6.768  -3.520  14.463  1.00  0.00     0.198 C
HETATM   46  C30 UNL     1       8.103  -4.007  14.995  1.00  0.00     0.299 C
ENDBRANCH  40  41
ENDBRANCH  39  40
ENDBRANCH  36  39
ENDBRANCH  34  36
ENDBRANCH  16  34
TORSDOF 14
ENDMDL