MODEL 1
REMARK VINA RESULT: -8.626704669      0.000      0.000
REMARK  13 active torsions:
REMARK  status: ('A' for Active; 'I' for Inactive)
REMARK    1  A    between atoms: C2_2  and  C3_3
REMARK    2  A    between atoms: C3_3  and  C4_4
REMARK    3  A    between atoms: C4_4  and  C5_5
REMARK    4  A    between atoms: C5_5  and  N1_6
REMARK    5  A    between atoms: C5_5  and  C17_26
REMARK       I    between atoms: N1_6  and  C6_8
REMARK    6  A    between atoms: C6_8  and  C7_10
REMARK       I    between atoms: N2_14  and  C11_15
REMARK    7  A    between atoms: C11_15  and  O3_17
REMARK    8  A    between atoms: O3_17  and  C12_18
REMARK    9  A    between atoms: C12_18  and  C13_19
REMARK       I    between atoms: C17_26  and  N4_28
REMARK   10  A    between atoms: N4_28  and  C18_30
REMARK   11  A    between atoms: C18_30  and  C19_31
REMARK   12  A    between atoms: C19_31  and  N5_32
REMARK   13  A    between atoms: N6_35  and  C22_36
ROOT
HETATM    1  C5  UNL     1       4.184  -0.409  13.672  1.00  0.00     0.080 C
ENDROOT
BRANCH   1   2
HETATM    2  C4  UNL     1       2.740  -0.083  13.450  1.00  0.00     0.063 C
BRANCH   2   3
HETATM    3  C3  UNL     1       2.613   1.134  12.529  1.00  0.00     0.006 C
BRANCH   3   4
HETATM    4  C2  UNL     1       1.400   1.105  11.656  1.00  0.00    -0.004 C
HETATM    5  C1  UNL     1       0.461   2.264  12.020  1.00  0.00     0.005 C
ENDBRANCH   3   4
ENDBRANCH   2   3
ENDBRANCH   1   2
BRANCH   1   6
HETATM    6  N1  UNL     1       5.075   0.555  13.124  1.00  0.00    -0.324 N
HETATM    7  C6  UNL     1       6.245   0.238  12.340  1.00  0.00     0.245 C
HETATM    8  O1  UNL     1       6.394  -0.983  12.093  1.00  0.00    -0.271 OA
ATOM      9  H1  UNL     1       4.874   1.540  13.296  1.00  0.00     0.169 HD
BRANCH   7  10
HETATM   10  C7  UNL     1       7.156   1.303  11.899  1.00  0.00     0.181 C
HETATM   11  C8  UNL     1       8.344   0.606  11.099  1.00  0.00     0.037 C
HETATM   12  C9  UNL     1       7.878   0.606   9.667  1.00  0.00     0.022 C
HETATM   13  C10 UNL     1       6.450   1.167   9.740  1.00  0.00     0.129 C
HETATM   14  N2  UNL     1       6.654   2.109  10.853  1.00  0.00    -0.315 N
HETATM   15  C11 UNL     1       6.503   3.491  10.666  1.00  0.00     0.363 C
HETATM   16  O2  UNL     1       6.934   4.331  11.534  1.00  0.00    -0.238 OA
BRANCH  15  17
HETATM   17  O3  UNL     1       5.938   4.017   9.601  1.00  0.00    -0.299 OA
BRANCH  17  18
HETATM   18  C12 UNL     1       5.767   3.987   8.268  1.00  0.00     0.228 C
BRANCH  18  19
HETATM   19  C13 UNL     1       4.287   3.650   8.114  1.00  0.00     0.030 A
HETATM   20  S1  UNL     1       3.046   3.831   9.272  1.00  0.00    -0.085 SA
HETATM   21  C14 UNL     1       1.703   3.571   8.244  1.00  0.00     0.138 A
HETATM   22  N3  UNL     1       2.278   3.352   7.068  1.00  0.00    -0.363 N
HETATM   23  C15 UNL     1       3.573   3.382   6.980  1.00  0.00     0.020 A
ATOM     24  H3  UNL     1       1.708   3.163   6.243  1.00  0.00     0.165 HD
HETATM   25  C16 UNL     1       4.315   2.947   5.715  1.00  0.00     0.069 C
ENDBRANCH  18  19
ENDBRANCH  17  18
ENDBRANCH  15  17
ENDBRANCH   7  10
ENDBRANCH   1   6
BRANCH   1  26
HETATM   26  C17 UNL     1       4.481  -0.977  14.955  1.00  0.00     0.264 C
HETATM   27  O4  UNL     1       5.454  -0.570  15.615  1.00  0.00    -0.266 OA
HETATM   28  N4  UNL     1       3.703  -2.054  15.536  1.00  0.00    -0.354 N
ATOM     29  H4  UNL     1       2.846  -2.374  15.084  1.00  0.00     0.162 HD
BRANCH  28  30
HETATM   30  C18 UNL     1       4.170  -2.688  16.806  1.00  0.00     0.153 C
BRANCH  30  31
HETATM   31  C19 UNL     1       4.482  -4.100  16.430  1.00  0.00     0.292 C
BRANCH  31  32
HETATM   32  N5  UNL     1       5.854  -4.538  16.593  1.00  0.00     0.093 N
HETATM   33  C20 UNL     1       6.652  -3.480  17.203  1.00  0.00     0.302 C
HETATM   34  C21 UNL     1       7.914  -3.204  16.448  1.00  0.00     0.303 C
HETATM   35  N6  UNL     1       8.573  -4.420  16.010  1.00  0.00     0.096 N
HETATM   36  C27 UNL     1       7.691  -5.212  15.158  1.00  0.00     0.303 C
HETATM   37  C28 UNL     1       6.346  -4.577  15.177  1.00  0.00     0.302 C
BRANCH  35  38
HETATM   38  C22 UNL     1       9.002  -5.224  17.149  1.00  0.00     0.223 C
HETATM   39  C23 UNL     1       9.152  -6.643  16.703  1.00  0.00     0.036 C
HETATM   40  C24 UNL     1      10.073  -7.218  17.782  1.00  0.00     0.002 C
HETATM   41  C25 UNL     1      10.978  -6.091  18.154  1.00  0.00     0.002 C
HETATM   42  C26 UNL     1      10.406  -4.829  17.532  1.00  0.00     0.036 C
ENDBRANCH  35  38
ENDBRANCH  31  32
ENDBRANCH  30  31
ENDBRANCH  28  30
ENDBRANCH   1  26
TORSDOF 13
ENDMDL