MODEL 3
REMARK VINA RESULT: -9.300338276      2.944      9.507
REMARK  12 active torsions:
REMARK  status: ('A' for Active; 'I' for Inactive)
REMARK    1  A    between atoms: C7_7  and  C8_8
REMARK    2  A    between atoms: C8_8  and  S1_9
REMARK    3  A    between atoms: S1_9  and  N1_12
REMARK    4  A    between atoms: N1_12  and  C9_14
REMARK    5  A    between atoms: N4_21  and  C11_22
REMARK    6  A    between atoms: C11_22  and  C12_23
REMARK    7  A    between atoms: C12_23  and  C13_24
REMARK    8  A    between atoms: C13_24  and  C14_25
REMARK    9  A    between atoms: C14_25  and  C15_26
REMARK   10  A    between atoms: C15_26  and  C16_27
REMARK   11  A    between atoms: C16_27  and  N5_28
REMARK   12  A    between atoms: N6_31  and  C19_32
ROOT
HETATM    1  C9  UNL     1       3.802  -0.108  14.615  1.00  0.00     0.199 A
HETATM    2  N2  UNL     1       4.491   0.572  15.555  1.00  0.00    -0.276 N
ATOM      3  H2  UNL     1       4.359   1.580  15.637  1.00  0.00     0.189 HD
HETATM    4  N3  UNL     1       5.332  -0.034  16.369  1.00  0.00    -0.249 N
ATOM      5  H3  UNL     1       5.841   0.505  17.070  1.00  0.00     0.192 HD
HETATM    6  C10 UNL     1       5.522  -1.378  16.275  1.00  0.00     0.344 A
HETATM    7  O3  UNL     1       6.324  -1.929  17.058  1.00  0.00    -0.245 OA
HETATM    8  N4  UNL     1       4.867  -2.116  15.363  1.00  0.00    -0.262 N
HETATM    9  C25 UNL     1       4.018  -1.469  14.547  1.00  0.00     0.297 A
HETATM   10  O4  UNL     1       3.396  -2.140  13.688  1.00  0.00    -0.264 OA
ENDROOT
BRANCH   1  11
HETATM   11  N1  UNL     1       2.891   0.530  13.732  1.00  0.00    -0.264 N
ATOM     12  H1  UNL     1       1.904   0.571  13.984  1.00  0.00     0.180 HD
BRANCH  11  13
HETATM   13  S1  UNL     1       3.415   1.249  12.225  1.00  0.00     0.233 S
HETATM   14  O1  UNL     1       2.369   2.215  11.821  1.00  0.00    -0.206 OA
HETATM   15  O2  UNL     1       3.316   0.106  11.222  1.00  0.00    -0.206 OA
BRANCH  13  16
HETATM   16  C8  UNL     1       5.009   1.866  12.382  1.00  0.00     0.178 C
BRANCH  16  17
HETATM   17  C7  UNL     1       6.166   1.257  11.770  1.00  0.00     0.004 C
HETATM   18  C2  UNL     1       6.426   1.315  10.328  1.00  0.00    -0.079 C
HETATM   19  C1  UNL     1       5.855   1.802   9.263  1.00  0.00     0.015 C
HETATM   20  C3  UNL     1       7.795   0.603  10.228  1.00  0.00     0.039 C
HETATM   21  C4  UNL     1       8.366   0.681  11.595  1.00  0.00    -0.002 C
HETATM   22  C5  UNL     1       7.755  -0.491  12.370  1.00  0.00     0.007 C
HETATM   23  C26 UNL     1       7.515   1.776  12.261  1.00  0.00    -0.031 C
HETATM   24  C6  UNL     1       6.288  -0.234  12.140  1.00  0.00     0.016 C
HETATM   25  C27 UNL     1       7.591   1.736  13.750  1.00  0.00     0.016 C
HETATM   26  C28 UNL     1       7.833   3.126  11.683  1.00  0.00     0.016 C
ENDBRANCH  16  17
ENDBRANCH  13  16
ENDBRANCH  11  13
ENDBRANCH   1  11
BRANCH   8  27
HETATM   27  C11 UNL     1       5.061  -3.556  15.258  1.00  0.00     0.137 C
BRANCH  27  28
HETATM   28  C12 UNL     1       6.143  -3.915  14.297  1.00  0.00     0.020 C
BRANCH  28  29
HETATM   29  C13 UNL     1       7.292  -4.648  14.928  1.00  0.00     0.002 C
BRANCH  29  30
HETATM   30  C14 UNL     1       8.536  -3.824  14.983  1.00  0.00     0.002 C
BRANCH  30  31
HETATM   31  C15 UNL     1       9.678  -4.484  15.720  1.00  0.00     0.030 C
BRANCH  31  32
HETATM   32  C16 UNL     1       9.745  -3.995  17.125  1.00  0.00     0.273 C
BRANCH  32  33
HETATM   33  N5  UNL     1       9.782  -5.080  18.094  1.00  0.00     0.097 N
HETATM   34  C17 UNL     1       8.505  -5.793  17.935  1.00  0.00     0.317 C
HETATM   35  C18 UNL     1       8.481  -6.834  19.026  1.00  0.00     0.093 C
HETATM   36  N6  UNL     1       9.582  -7.707  19.034  1.00  0.00    -0.366 N
HETATM   37  C23 UNL     1      10.771  -7.317  18.416  1.00  0.00     0.093 C
HETATM   38  C24 UNL     1      10.797  -6.034  17.691  1.00  0.00     0.317 C
BRANCH  36  39
HETATM   39  C19 UNL     1       9.266  -9.089  19.100  1.00  0.00     0.088 C
HETATM   40  C20 UNL     1      10.460 -10.038  19.268  1.00  0.00     0.026 C
HETATM   41  C21 UNL     1       9.650 -11.031  18.422  1.00  0.00     0.004 C
HETATM   42  C22 UNL     1       8.948  -9.802  17.828  1.00  0.00     0.026 C
ENDBRANCH  36  39
ENDBRANCH  32  33
ENDBRANCH  31  32
ENDBRANCH  30  31
ENDBRANCH  29  30
ENDBRANCH  28  29
ENDBRANCH  27  28
ENDBRANCH   8  27
TORSDOF 12
ENDMDL