MODEL 3
REMARK VINA RESULT: -8.222473605      1.870      4.243
REMARK  13 active torsions:
REMARK  status: ('A' for Active; 'I' for Inactive)
REMARK    1  A    between atoms: C2_2  and  C3_3
REMARK    2  A    between atoms: C3_3  and  C4_4
REMARK    3  A    between atoms: C4_4  and  N1_5
REMARK    4  A    between atoms: C7_9  and  C8_10
REMARK    5  A    between atoms: C8_10  and  C9_11
REMARK    6  A    between atoms: N2_12  and  C11_14
REMARK    7  A    between atoms: C11_14  and  C12_15
REMARK    8  A    between atoms: C12_15  and  C13_16
REMARK    9  A    between atoms: C13_16  and  N3_17
REMARK   10  A    between atoms: N4_20  and  C16_21
REMARK   11  A    between atoms: C16_21  and  O2_25
REMARK   12  A    between atoms: O2_25  and  C17_26
REMARK   13  A    between atoms: C23_32  and  N6_33
ROOT
HETATM    1  N1  UNL     1       8.870  -5.151  17.415  1.00  0.00    -0.237 N
HETATM    2  C5  UNL     1       8.915  -4.104  16.492  1.00  0.00     0.268 C
HETATM    3  O1  UNL     1      10.050  -3.507  16.351  1.00  0.00    -0.266 OA
HETATM    4  C6  UNL     1       7.766  -3.616  15.656  1.00  0.00     0.041 C
HETATM    5  C7  UNL     1       8.019  -2.633  14.819  1.00  0.00    -0.004 C
HETATM    6  C21 UNL     1       6.482  -4.279  15.802  1.00  0.00     0.005 A
HETATM    7  C22 UNL     1       5.325  -3.735  15.225  1.00  0.00     0.043 A
HETATM    8  C23 UNL     1       4.043  -4.200  15.440  1.00  0.00     0.030 A
HETATM    9  C26 UNL     1       3.846  -5.274  16.277  1.00  0.00     0.031 A
HETATM   10  C27 UNL     1       4.938  -5.850  16.873  1.00  0.00     0.028 A
HETATM   11  C28 UNL     1       6.221  -5.353  16.628  1.00  0.00     0.091 A
HETATM   12  S1  UNL     1       7.568  -6.229  17.346  1.00  0.00     0.268 S
HETATM   13  O3  UNL     1       7.850  -7.439  16.487  1.00  0.00    -0.200 OA
HETATM   14  O4  UNL     1       7.172  -6.760  18.697  1.00  0.00    -0.200 OA
ENDROOT
BRANCH   5  15
HETATM   15  C8  UNL     1       7.321  -1.857  13.841  1.00  0.00     0.072 C
BRANCH  15  16
HETATM   16  C9  UNL     1       7.328  -0.329  14.048  1.00  0.00     0.061 C
HETATM   17  N2  UNL     1       6.113   0.236  14.294  1.00  0.00    -0.397 N
HETATM   18  C10 UNL     1       5.306   0.164  15.403  1.00  0.00     0.148 C
BRANCH  17  19
HETATM   19  C11 UNL     1       5.526   0.972  13.173  1.00  0.00     0.123 C
BRANCH  19  20
HETATM   20  C12 UNL     1       6.582   1.634  12.314  1.00  0.00     0.050 C
BRANCH  20  21
HETATM   21  C13 UNL     1       6.050   1.745  10.916  1.00  0.00     0.274 C
BRANCH  21  22
HETATM   22  N3  UNL     1       6.022   3.069  10.398  1.00  0.00     0.091 N
HETATM   23  C14 UNL     1       5.476   4.016  11.371  1.00  0.00     0.292 C
HETATM   24  C15 UNL     1       4.003   3.751  11.599  1.00  0.00     0.156 C
HETATM   25  N4  UNL     1       3.348   3.815  10.307  1.00  0.00    -0.344 N
HETATM   26  C19 UNL     1       3.949   3.421   9.081  1.00  0.00     0.156 C
HETATM   27  C20 UNL     1       5.438   3.249   9.108  1.00  0.00     0.292 C
BRANCH  25  28
HETATM   28  C16 UNL     1       2.013   4.311  10.291  1.00  0.00     0.214 C
HETATM   29  N5  UNL     1       1.657   5.186   9.383  1.00  0.00    -0.365 N
ATOM     30  H52 UNL     1       2.375   5.474   8.718  1.00  0.00     0.159 HD
ATOM     31  H51 UNL     1       0.701   5.541   9.371  1.00  0.00     0.159 HD
BRANCH  28  32
HETATM   32  O2  UNL     1       1.049   3.924  11.184  1.00  0.00    -0.323 OA
BRANCH  32  33
HETATM   33  C17 UNL     1       0.637   2.592  11.321  1.00  0.00     0.174 C
HETATM   34  C18 UNL     1      -0.127   2.169  10.101  1.00  0.00     0.034 C
ENDBRANCH  32  33
ENDBRANCH  28  32
ENDBRANCH  25  28
ENDBRANCH  21  22
ENDBRANCH  20  21
ENDBRANCH  19  20
ENDBRANCH  17  19
ENDBRANCH  15  16
ENDBRANCH   5  15
BRANCH   1  35
HETATM   35  C4  UNL     1       9.887  -5.348  18.422  1.00  0.00     0.145 C
BRANCH  35  36
HETATM   36  C3  UNL     1      10.832  -6.491  18.109  1.00  0.00     0.021 C
BRANCH  36  37
HETATM   37  C2  UNL     1      10.579  -7.548  19.195  1.00  0.00    -0.003 C
HETATM   38  C1  UNL     1      10.113  -8.830  18.511  1.00  0.00     0.005 C
ENDBRANCH  36  37
ENDBRANCH  35  36
ENDBRANCH   1  35
BRANCH   8  39
HETATM   39  N6  UNL     1       2.958  -3.544  14.788  1.00  0.00    -0.390 N
HETATM   40  C24 UNL     1       1.597  -3.998  14.987  1.00  0.00     0.149 C
HETATM   41  C25 UNL     1       3.194  -2.415  13.916  1.00  0.00     0.149 C
ENDBRANCH   8  39
TORSDOF 13
ENDMDL