MODEL 2
REMARK VINA RESULT: -8.825916354      2.865      7.134
REMARK  11 active torsions:
REMARK  status: ('A' for Active; 'I' for Inactive)
REMARK    1  A    between atoms: C2_2  and  C3_3
REMARK    2  A    between atoms: C3_3  and  C4_4
REMARK    3  A    between atoms: C4_4  and  C5_5
REMARK       I    between atoms: C5_5  and  N1_7
REMARK    4  A    between atoms: N2_10  and  C8_11
REMARK    5  A    between atoms: C8_11  and  C9_12
REMARK    6  A    between atoms: C9_12  and  C10_13
REMARK    7  A    between atoms: C10_13  and  N3_14
REMARK       I    between atoms: N3_14  and  C11_15
REMARK    8  A    between atoms: N3_14  and  C21_27
REMARK    9  A    between atoms: C11_15  and  C12_17
REMARK   10  A    between atoms: C12_17  and  S1_18
REMARK   11  A    between atoms: S1_18  and  C13_19
REMARK       I    between atoms: N5_30  and  C23_31
ROOT
HETATM    1  N3  UNL     1       5.058  -1.331  13.414  1.00  0.00    -0.310 N
HETATM    2  C11 UNL     1       4.850  -2.700  13.108  1.00  0.00     0.234 C
HETATM    3  O2  UNL     1       4.707  -2.965  11.891  1.00  0.00    -0.272 OA
ENDROOT
BRANCH   1   4
HETATM    4  C10 UNL     1       5.164  -0.936  14.797  1.00  0.00     0.134 C
BRANCH   4   5
HETATM    5  C9  UNL     1       6.551  -1.052  15.368  1.00  0.00     0.040 C
BRANCH   5   6
HETATM    6  C8  UNL     1       6.407  -1.871  16.655  1.00  0.00     0.128 C
BRANCH   6   7
HETATM    7  N2  UNL     1       7.097  -3.078  16.531  1.00  0.00    -0.371 N
HETATM    8  C7  UNL     1       8.379  -3.002  15.995  1.00  0.00     0.083 C
HETATM    9  C6  UNL     1       9.473  -3.757  16.676  1.00  0.00     0.170 C
HETATM   10  N1  UNL     1       8.970  -4.943  17.303  1.00  0.00    -0.343 N
HETATM   11  C5  UNL     1       9.822  -5.686  18.170  1.00  0.00     0.220 C
HETATM   12  C28 UNL     1       7.611  -5.366  17.037  1.00  0.00     0.170 C
HETATM   13  O1  UNL     1      10.995  -5.314  18.340  1.00  0.00    -0.273 OA
HETATM   14  C27 UNL     1       6.677  -4.196  17.268  1.00  0.00     0.083 C
BRANCH  11  15
HETATM   15  C4  UNL     1       9.260  -6.885  18.840  1.00  0.00     0.103 C
BRANCH  15  16
HETATM   16  C3  UNL     1      10.204  -8.064  18.778  1.00  0.00     0.009 C
BRANCH  16  17
HETATM   17  C2  UNL     1       9.365  -9.291  18.447  1.00  0.00    -0.004 C
HETATM   18  C1  UNL     1       8.407  -9.034  17.303  1.00  0.00     0.005 C
ENDBRANCH  16  17
ENDBRANCH  15  16
ENDBRANCH  11  15
ENDBRANCH   6   7
ENDBRANCH   5   6
ENDBRANCH   4   5
ENDBRANCH   1   4
BRANCH   1  19
HETATM   19  C21 UNL     1       5.140  -0.335  12.391  1.00  0.00     0.148 A
HETATM   20  C22 UNL     1       6.299   0.012  11.741  1.00  0.00     0.162 A
HETATM   21  N4  UNL     1       7.495  -0.675  12.114  1.00  0.00    -0.079 NA
HETATM   22  N5  UNL     1       6.327   0.968  10.770  1.00  0.00    -0.218 N
HETATM   23  C23 UNL     1       7.550   1.285  10.139  1.00  0.00     0.229 C
HETATM   24  C25 UNL     1       5.214   1.612  10.409  1.00  0.00     0.337 A
HETATM   25  C24 UNL     1       7.693   2.300   9.096  1.00  0.00     0.118 C
HETATM   26  O3  UNL     1       8.578   0.649  10.506  1.00  0.00    -0.273 OA
HETATM   27  O4  UNL     1       5.137   2.507   9.527  1.00  0.00    -0.246 OA
HETATM   28  N6  UNL     1       4.048   1.284  11.045  1.00  0.00    -0.273 N
HETATM   29  C26 UNL     1       3.996   0.347  12.002  1.00  0.00     0.279 A
ATOM     30  H6  UNL     1       3.189   1.768  10.781  1.00  0.00     0.173 HD
HETATM   31  O5  UNL     1       2.899   0.056  12.580  1.00  0.00    -0.265 OA
ENDBRANCH   1  19
BRANCH   2  32
HETATM   32  C12 UNL     1       4.798  -3.776  14.095  1.00  0.00     0.182 C
BRANCH  32  33
HETATM   33  S1  UNL     1       3.236  -4.152  14.844  1.00  0.00    -0.120 SA
BRANCH  33  34
HETATM   34  C13 UNL     1       3.235  -5.131  16.281  1.00  0.00     0.007 A
HETATM   35  C14 UNL     1       3.417  -6.516  16.186  1.00  0.00     0.025 A
HETATM   36  C15 UNL     1       3.469  -7.335  17.294  1.00  0.00    -0.061 A
HETATM   37  C16 UNL     1       3.663  -8.802  17.165  1.00  0.00     0.048 C
HETATM   38  C17 UNL     1       3.339  -6.768  18.549  1.00  0.00     0.007 A
HETATM   39  C18 UNL     1       3.163  -5.421  18.668  1.00  0.00     0.009 A
HETATM   40  C19 UNL     1       3.111  -4.604  17.538  1.00  0.00    -0.045 A
HETATM   41  C20 UNL     1       2.960  -3.152  17.833  1.00  0.00     0.049 C
ENDBRANCH  33  34
ENDBRANCH  32  33
ENDBRANCH   2  32
TORSDOF 11
ENDMDL