MODEL 1
REMARK VINA RESULT: -8.362488286      0.000      0.000
REMARK  15 active torsions:
REMARK  status: ('A' for Active; 'I' for Inactive)
REMARK    1  A    between atoms: C2_2  and  C3_3
REMARK    2  A    between atoms: C3_3  and  C4_4
REMARK    3  A    between atoms: C3_3  and  O2_22
REMARK    4  A    between atoms: C4_4  and  N1_5
REMARK    5  A    between atoms: N2_8  and  C7_9
REMARK    6  A    between atoms: C7_9  and  C8_10
REMARK    7  A    between atoms: C8_10  and  C9_11
REMARK    8  A    between atoms: C9_11  and  N3_12
REMARK       I    between atoms: N3_12  and  C10_14
REMARK    9  A    between atoms: C10_14  and  C11_16
REMARK   10  A    between atoms: O2_22  and  C17_23
REMARK   11  A    between atoms: C17_23  and  C18_24
REMARK   12  A    between atoms: C18_24  and  C19_26
REMARK   13  A    between atoms: C19_26  and  O4_27
REMARK   14  A    between atoms: O4_27  and  C20_28
REMARK       I    between atoms: C20_28  and  N4_30
REMARK   15  A    between atoms: N4_30  and  C21_32
ROOT
HETATM    1  C3  UNL     1       5.845  -0.352  14.124  1.00  0.00     0.150 C
ENDROOT
BRANCH   1   2
HETATM    2  C2  UNL     1       4.737   0.376  14.806  1.00  0.00     0.029 C
HETATM    3  C1  UNL     1       3.636   0.624  13.780  1.00  0.00     0.007 C
ENDBRANCH   1   2
BRANCH   1   4
HETATM    4  C4  UNL     1       7.206   0.200  14.355  1.00  0.00     0.304 C
BRANCH   4   5
HETATM    5  N1  UNL     1       7.806   0.617  13.115  1.00  0.00     0.094 N
HETATM    6  C5  UNL     1       7.611   1.977  12.748  1.00  0.00     0.302 C
HETATM    7  C6  UNL     1       6.379   2.191  11.896  1.00  0.00     0.302 C
HETATM    8  N2  UNL     1       6.322   1.331  10.760  1.00  0.00     0.092 N
HETATM    9  C15 UNL     1       7.486   0.475  10.744  1.00  0.00     0.302 C
HETATM   10  C16 UNL     1       7.507  -0.307  12.035  1.00  0.00     0.302 C
BRANCH   8  11
HETATM   11  C7  UNL     1       6.170   2.074   9.495  1.00  0.00     0.277 C
BRANCH  11  12
HETATM   12  C8  UNL     1       5.649   3.429   9.698  1.00  0.00     0.074 C
BRANCH  12  13
HETATM   13  C9  UNL     1       4.243   3.660   9.304  1.00  0.00     0.065 C
BRANCH  13  14
HETATM   14  N3  UNL     1       3.196   2.825   9.715  1.00  0.00    -0.340 N
HETATM   15  C10 UNL     1       2.487   2.733  10.916  1.00  0.00     0.225 C
HETATM   16  O1  UNL     1       2.697   3.473  11.886  1.00  0.00    -0.273 OA
ATOM     17  H3  UNL     1       2.894   2.158   9.005  1.00  0.00     0.167 HD
BRANCH  15  18
HETATM   18  C11 UNL     1       1.408   1.709  11.097  1.00  0.00     0.078 A
HETATM   19  C12 UNL     1       0.528   1.567   9.876  1.00  0.00     0.014 A
HETATM   20  C13 UNL     1      -0.712   1.964  10.675  1.00  0.00     0.002 A
HETATM   21  C14 UNL     1       0.200   2.236  11.847  1.00  0.00     0.014 A
ENDBRANCH  15  18
ENDBRANCH  13  14
ENDBRANCH  12  13
ENDBRANCH  11  12
ENDBRANCH   8  11
ENDBRANCH   4   5
ENDBRANCH   1   4
BRANCH   1  22
HETATM   22  O2  UNL     1       5.748  -1.707  14.425  1.00  0.00    -0.377 OA
BRANCH  22  23
HETATM   23  C17 UNL     1       6.863  -2.226  15.001  1.00  0.00     0.250 C
BRANCH  23  24
HETATM   24  C18 UNL     1       6.721  -3.047  16.192  1.00  0.00     0.185 C
HETATM   25  O3  UNL     1       6.411  -2.381  17.213  1.00  0.00    -0.292 OA
BRANCH  24  26
HETATM   26  C19 UNL     1       6.879  -4.479  16.401  1.00  0.00     0.134 C
HETATM   27  C24 UNL     1       7.571  -5.162  15.217  1.00  0.00     0.047 C
HETATM   28  C25 UNL     1       9.008  -4.759  15.051  1.00  0.00     0.004 C
HETATM   29  C26 UNL     1       9.746  -5.289  16.273  1.00  0.00     0.000 C
HETATM   30  C27 UNL     1       9.174  -4.618  17.476  1.00  0.00     0.004 C
HETATM   31  C28 UNL     1       7.707  -4.815  17.618  1.00  0.00     0.047 C
BRANCH  26  32
HETATM   32  O4  UNL     1       5.661  -5.211  16.530  1.00  0.00    -0.284 OA
BRANCH  32  33
HETATM   33  C20 UNL     1       4.879  -5.279  17.654  1.00  0.00     0.367 C
HETATM   34  O5  UNL     1       5.023  -6.270  18.415  1.00  0.00    -0.238 OA
HETATM   35  N4  UNL     1       3.911  -4.250  17.970  1.00  0.00    -0.282 N
ATOM     36  H4  UNL     1       3.804  -3.856  18.905  1.00  0.00     0.173 HD
BRANCH  35  37
HETATM   37  C21 UNL     1       3.181  -3.868  16.945  1.00  0.00     0.152 A
HETATM   38  N5  UNL     1       3.325  -2.739  16.257  1.00  0.00    -0.346 N
HETATM   39  C22 UNL     1       2.520  -2.502  15.261  1.00  0.00     0.097 A
ATOM     40  H5  UNL     1       4.054  -2.071  16.505  1.00  0.00     0.167 HD
HETATM   41  C23 UNL     1       1.562  -3.444  14.980  1.00  0.00     0.070 A
HETATM   42  S1  UNL     1       1.869  -4.627  16.170  1.00  0.00    -0.064 SA
ENDBRANCH  35  37
ENDBRANCH  32  33
ENDBRANCH  26  32
ENDBRANCH  24  26
ENDBRANCH  23  24
ENDBRANCH  22  23
ENDBRANCH   1  22
TORSDOF 15
ENDMDL