MODEL 5
REMARK VINA RESULT: -8.967067244      2.387      9.241
REMARK  13 active torsions:
REMARK  status: ('A' for Active; 'I' for Inactive)
REMARK       I    between atoms: C2_2  and  N1_4
REMARK    1  A    between atoms: N2_7  and  C5_8
REMARK    2  A    between atoms: C5_8  and  C6_9
REMARK    3  A    between atoms: C6_9  and  C7_10
REMARK    4  A    between atoms: C7_10  and  C8_11
REMARK    5  A    between atoms: C8_11  and  C9_12
REMARK    6  A    between atoms: C9_12  and  N3_13
REMARK    7  A    between atoms: N3_13  and  C10_15
REMARK    8  A    between atoms: C12_17  and  N4_18
REMARK    9  A    between atoms: C13_19  and  C14_20
REMARK   10  A    between atoms: C14_20  and  C15_21
REMARK   11  A    between atoms: C15_21  and  C16_22
REMARK   12  A    between atoms: C16_22  and  N5_23
REMARK   13  A    between atoms: C23_35  and  N8_36
ROOT
HETATM    1  C10 UNL     1       6.898  -1.454  15.538  1.00  0.00     0.120 A
HETATM    2  C11 UNL     1       5.608  -1.898  15.397  1.00  0.00     0.098 A
HETATM    3  C12 UNL     1       5.249  -3.220  15.579  1.00  0.00     0.135 A
HETATM    4  N7  UNL     1       6.227  -4.076  15.907  1.00  0.00    -0.176 N
ATOM      5  H7  UNL     1       5.986  -5.057  16.049  1.00  0.00     0.186 HD
HETATM    6  C23 UNL     1       7.504  -3.706  16.058  1.00  0.00     0.683 A
HETATM    7  N9  UNL     1       7.822  -2.422  15.876  1.00  0.00    -0.177 N
ATOM      8  H9  UNL     1       8.795  -2.143  15.992  1.00  0.00     0.185 HD
ENDROOT
BRANCH   1   9
HETATM    9  N3  UNL     1       7.313  -0.259  15.376  1.00  0.00    -0.376 N
ATOM     10  H3  UNL     1       8.194  -0.011  15.825  1.00  0.00     0.161 HD
BRANCH   9  11
HETATM   11  C9  UNL     1       6.665   0.756  14.632  1.00  0.00     0.121 C
BRANCH  11  12
HETATM   12  C8  UNL     1       7.670   1.403  13.711  1.00  0.00     0.020 C
BRANCH  12  13
HETATM   13  C7  UNL     1       7.989   0.541  12.492  1.00  0.00     0.003 C
BRANCH  13  14
HETATM   14  C6  UNL     1       7.565   1.218  11.233  1.00  0.00     0.020 C
BRANCH  14  15
HETATM   15  C5  UNL     1       6.988   2.597  11.588  1.00  0.00     0.127 C
BRANCH  15  16
HETATM   16  N2  UNL     1       5.701   2.730  11.025  1.00  0.00    -0.371 N
HETATM   17  C4  UNL     1       4.999   3.898  11.301  1.00  0.00     0.083 C
HETATM   18  C3  UNL     1       3.502   3.791  11.084  1.00  0.00     0.170 C
HETATM   19  N1  UNL     1       3.015   2.487  11.508  1.00  0.00    -0.343 N
HETATM   20  C2  UNL     1       1.671   2.428  11.955  1.00  0.00     0.216 C
HETATM   21  C30 UNL     1       3.820   1.310  11.487  1.00  0.00     0.170 C
HETATM   22  C1  UNL     1       1.118   1.131  12.408  1.00  0.00     0.117 C
HETATM   23  O1  UNL     1       0.940   3.481  11.968  1.00  0.00    -0.274 OA
HETATM   24  C29 UNL     1       5.078   1.537  10.673  1.00  0.00     0.083 C
ENDBRANCH  15  16
ENDBRANCH  14  15
ENDBRANCH  13  14
ENDBRANCH  12  13
ENDBRANCH  11  12
ENDBRANCH   9  11
ENDBRANCH   1   9
BRANCH   3  25
HETATM   25  N4  UNL     1       3.889  -3.667  15.414  1.00  0.00    -0.251 N
HETATM   26  C13 UNL     1       3.107  -4.182  16.404  1.00  0.00     0.038 A
HETATM   27  C21 UNL     1       1.865  -4.508  15.917  1.00  0.00     0.118 A
HETATM   28  N6  UNL     1       1.916  -4.172  14.590  1.00  0.00    -0.316 N
HETATM   29  C22 UNL     1       3.132  -3.674  14.317  1.00  0.00     0.332 A
ATOM     30  H6  UNL     1       1.155  -4.282  13.920  1.00  0.00     0.170 HD
HETATM   31  O2  UNL     1       3.492  -3.272  13.177  1.00  0.00    -0.246 OA
BRANCH  26  32
HETATM   32  C14 UNL     1       3.589  -4.308  17.784  1.00  0.00     0.061 C
BRANCH  32  33
HETATM   33  C15 UNL     1       3.677  -5.669  18.349  1.00  0.00     0.036 C
BRANCH  33  34
HETATM   34  C16 UNL     1       4.455  -6.669  17.545  1.00  0.00     0.272 C
BRANCH  34  35
HETATM   35  N5  UNL     1       3.627  -7.843  17.264  1.00  0.00     0.088 N
HETATM   36  C17 UNL     1       4.286  -9.077  17.641  1.00  0.00     0.272 C
HETATM   37  C18 UNL     1       3.220 -10.052  18.004  1.00  0.00     0.032 C
HETATM   38  C19 UNL     1       1.987  -9.245  18.222  1.00  0.00     0.032 C
HETATM   39  C20 UNL     1       2.397  -7.822  18.038  1.00  0.00     0.272 C
ENDBRANCH  34  35
ENDBRANCH  33  34
ENDBRANCH  32  33
ENDBRANCH  26  32
ENDBRANCH   3  25
BRANCH   6  40
HETATM   40  N8  UNL     1       8.491  -4.676  16.403  1.00  0.00    -0.217 N
HETATM   41  C24 UNL     1       8.183  -6.058  16.245  1.00  0.00     0.141 C
HETATM   42  C25 UNL     1       9.218  -6.919  16.921  1.00  0.00     0.020 C
HETATM   43  C26 UNL     1       9.568  -6.324  18.266  1.00  0.00     0.003 C
HETATM   44  C27 UNL     1      10.278  -5.031  18.028  1.00  0.00     0.020 C
HETATM   45  C28 UNL     1       9.762  -4.228  16.874  1.00  0.00     0.141 C
ENDBRANCH   6  40
TORSDOF 13
ENDMDL