MODEL 5
REMARK VINA RESULT: -8.928719352      1.436      1.717
REMARK  14 active torsions:
REMARK  status: ('A' for Active; 'I' for Inactive)
REMARK    1  A    between atoms: C2_2  and  O2_4
REMARK    2  A    between atoms: O2_4  and  C3_5
REMARK    3  A    between atoms: N1_12  and  C10_13
REMARK    4  A    between atoms: C10_13  and  C11_14
REMARK    5  A    between atoms: C11_14  and  N2_15
REMARK    6  A    between atoms: N2_15  and  C12_16
REMARK       I    between atoms: N2_15  and  C22_32
REMARK    7  A    between atoms: C12_16  and  C13_17
REMARK    8  A    between atoms: C13_17  and  C14_18
REMARK    9  A    between atoms: C14_18  and  N3_19
REMARK       I    between atoms: N3_19  and  C15_21
REMARK       I    between atoms: C15_21  and  N4_23
REMARK   10  A    between atoms: N4_23  and  C16_25
REMARK   11  A    between atoms: C22_32  and  C23_34
REMARK   12  A    between atoms: C23_34  and  O5_35
REMARK   13  A    between atoms: O5_35  and  C24_36
REMARK   14  A    between atoms: C24_36  and  C25_38
ROOT
HETATM    1  C16 UNL     1       1.805   2.918  10.177  1.00  0.00     0.123 C
HETATM    2  C17 UNL     1       1.922   4.149   9.359  1.00  0.00     0.091 C
HETATM    3  N5  UNL     1       2.031   5.103   8.710  1.00  0.00    -0.195 NA
HETATM    4  C18 UNL     1       1.396   3.298  11.586  1.00  0.00     0.046 C
HETATM    5  C19 UNL     1       0.510   2.148  12.023  1.00  0.00     0.004 C
HETATM    6  C20 UNL     1      -0.097   1.596  10.770  1.00  0.00     0.004 C
HETATM    7  C21 UNL     1       0.763   2.000   9.625  1.00  0.00     0.046 C
ENDROOT
BRANCH   1   8
HETATM    8  N4  UNL     1       3.090   2.253  10.172  1.00  0.00    -0.321 N
HETATM    9  C15 UNL     1       4.264   2.828  10.701  1.00  0.00     0.317 C
HETATM   10  N3  UNL     1       5.518   2.175  10.696  1.00  0.00    -0.343 N
HETATM   11  O3  UNL     1       4.171   3.975  11.196  1.00  0.00    -0.247 OA
ATOM     12  H3  UNL     1       5.550   1.240  10.291  1.00  0.00     0.164 HD
ATOM     13  H4  UNL     1       3.150   1.320   9.764  1.00  0.00     0.166 HD
BRANCH  10  14
HETATM   14  C14 UNL     1       6.752   2.702  11.207  1.00  0.00     0.126 C
BRANCH  14  15
HETATM   15  C13 UNL     1       7.295   1.876  12.326  1.00  0.00     0.039 C
BRANCH  15  16
HETATM   16  C12 UNL     1       6.819   0.441  12.143  1.00  0.00     0.128 C
BRANCH  16  17
HETATM   17  N2  UNL     1       6.341  -0.123  13.402  1.00  0.00    -0.346 N
HETATM   18  C22 UNL     1       4.960  -0.084  13.698  1.00  0.00     0.244 C
HETATM   19  O4  UNL     1       4.159   0.456  12.880  1.00  0.00    -0.271 OA
BRANCH  17  20
HETATM   20  C11 UNL     1       7.231  -0.721  14.360  1.00  0.00     0.170 C
BRANCH  20  21
HETATM   21  C10 UNL     1       7.460  -2.183  14.148  1.00  0.00     0.079 C
BRANCH  21  22
HETATM   22  N1  UNL     1       8.394  -2.814  14.926  1.00  0.00    -0.382 N
HETATM   23  C5  UNL     1       8.453  -2.649  16.324  1.00  0.00     0.086 C
HETATM   24  C4  UNL     1       7.258  -3.413  16.888  1.00  0.00     0.057 C
HETATM   25  C6  UNL     1       9.754  -3.344  16.709  1.00  0.00     0.027 C
HETATM   26  C3  UNL     1       7.081  -4.773  16.358  1.00  0.00     0.135 C
HETATM   27  C9  UNL     1       7.657  -5.053  15.008  1.00  0.00     0.057 C
HETATM   28  C8  UNL     1       8.830  -4.118  14.674  1.00  0.00     0.086 C
HETATM   29  C7  UNL     1       9.908  -4.458  15.700  1.00  0.00     0.027 C
BRANCH  26  30
HETATM   30  O2  UNL     1       7.550  -5.715  17.308  1.00  0.00    -0.316 OA
BRANCH  30  31
HETATM   31  C2  UNL     1       6.777  -6.249  18.310  1.00  0.00     0.255 C
HETATM   32  C1  UNL     1       5.832  -7.332  17.994  1.00  0.00     0.126 C
HETATM   33  O1  UNL     1       6.926  -5.769  19.468  1.00  0.00    -0.266 OA
ENDBRANCH  30  31
ENDBRANCH  26  30
ENDBRANCH  21  22
ENDBRANCH  20  21
ENDBRANCH  17  20
BRANCH  18  34
HETATM   34  C23 UNL     1       4.443  -0.668  14.948  1.00  0.00     0.281 C
BRANCH  34  35
HETATM   35  O5  UNL     1       3.811  -1.904  14.789  1.00  0.00    -0.312 OA
BRANCH  35  36
HETATM   36  C24 UNL     1       2.467  -2.103  14.996  1.00  0.00     0.263 C
HETATM   37  O6  UNL     1       1.640  -1.271  14.608  1.00  0.00    -0.265 OA
BRANCH  36  38
HETATM   38  C25 UNL     1       2.072  -3.366  15.706  1.00  0.00     0.085 C
HETATM   39  C26 UNL     1       2.821  -3.459  17.013  1.00  0.00     0.014 C
HETATM   40  C27 UNL     1       3.110  -4.948  17.123  1.00  0.00     0.001 C
HETATM   41  C28 UNL     1       3.569  -5.274  15.712  1.00  0.00     0.001 C
HETATM   42  C29 UNL     1       2.509  -4.581  14.888  1.00  0.00     0.014 C
ENDBRANCH  36  38
ENDBRANCH  35  36
ENDBRANCH  34  35
ENDBRANCH  18  34
ENDBRANCH  16  17
ENDBRANCH  15  16
ENDBRANCH  14  15
ENDBRANCH  10  14
ENDBRANCH   1   8
TORSDOF 14
ENDMDL