MODEL 3
REMARK VINA RESULT: -8.057174471      2.577      9.231
REMARK  15 active torsions:
REMARK  status: ('A' for Active; 'I' for Inactive)
REMARK    1  A    between atoms: O1_2  and  C2_3
REMARK    2  A    between atoms: C2_3  and  C3_5
REMARK    3  A    between atoms: C3_5  and  C4_6
REMARK    4  A    between atoms: C4_6  and  C5_7
REMARK    5  A    between atoms: C5_7  and  O3_8
REMARK    6  A    between atoms: O3_8  and  C6_9
REMARK    7  A    between atoms: C6_9  and  C7_11
REMARK    8  A    between atoms: C7_11  and  C8_12
REMARK       I    between atoms: N1_18  and  C14_19
REMARK    9  A    between atoms: C14_19  and  C15_21
REMARK   10  A    between atoms: C15_21  and  C16_22
REMARK   11  A    between atoms: C15_21  and  C20_31
REMARK   12  A    between atoms: C16_22  and  C17_23
REMARK       I    between atoms: C17_23  and  N2_25
REMARK   13  A    between atoms: N2_25  and  C18_27
REMARK   14  A    between atoms: C18_27  and  C19_28
REMARK   15  A    between atoms: C20_31  and  C21_32
ROOT
HETATM    1  C3  UNL     1       4.600  -1.039  14.929  1.00  0.00     0.060 C
HETATM    2  C12 UNL     1       5.784  -1.369  14.056  1.00  0.00     0.040 C
HETATM    3  C13 UNL     1       5.508  -1.608  12.626  1.00  0.00     0.128 C
HETATM    4  N1  UNL     1       4.980  -0.454  11.889  1.00  0.00    -0.343 N
HETATM    5  C14 UNL     1       5.982   0.344  11.257  1.00  0.00     0.225 C
HETATM    6  O5  UNL     1       7.184  -0.077  11.397  1.00  0.00    -0.273 OA
HETATM    7  C27 UNL     1       3.588  -0.159  11.767  1.00  0.00     0.199 C
HETATM    8  S1  UNL     1       2.999   0.544  13.320  1.00  0.00    -0.148 SA
HETATM    9  C28 UNL     1       4.266   0.432  14.596  1.00  0.00     0.095 C
ENDROOT
BRANCH   5  10
HETATM   10  C15 UNL     1       5.770   1.558  10.492  1.00  0.00     0.087 C
BRANCH  10  11
HETATM   11  C16 UNL     1       5.602   2.755  11.362  1.00  0.00     0.117 C
BRANCH  11  12
HETATM   12  C17 UNL     1       4.359   3.506  11.273  1.00  0.00     0.218 C
HETATM   13  O6  UNL     1       4.108   4.473  12.005  1.00  0.00    -0.274 OA
HETATM   14  N2  UNL     1       3.394   3.112  10.300  1.00  0.00    -0.353 N
ATOM     15  H2  UNL     1       3.609   2.315   9.700  1.00  0.00     0.162 HD
BRANCH  14  16
HETATM   16  C18 UNL     1       2.136   3.780  10.123  1.00  0.00     0.222 C
BRANCH  16  17
HETATM   17  C19 UNL     1       1.066   3.068  10.834  1.00  0.00     0.248 C
HETATM   18  N3  UNL     1       0.287   2.037  10.271  1.00  0.00    -0.061 NA
HETATM   19  O7  UNL     1       0.818   3.394  12.022  1.00  0.00    -0.275 OA
ENDBRANCH  16  17
ENDBRANCH  14  16
ENDBRANCH  11  12
ENDBRANCH  10  11
BRANCH  10  20
HETATM   20  C20 UNL     1       6.676   1.795   9.321  1.00  0.00     0.019 C
BRANCH  20  21
HETATM   21  C21 UNL     1       6.052   2.100   8.024  1.00  0.00    -0.014 C
HETATM   22  C22 UNL     1       6.541   1.430   6.803  1.00  0.00     0.005 C
HETATM   23  C23 UNL     1       5.838   2.116   5.613  1.00  0.00     0.000 C
HETATM   24  C24 UNL     1       4.575   2.803   6.015  1.00  0.00     0.000 C
HETATM   25  C25 UNL     1       4.859   3.982   6.908  1.00  0.00     0.000 C
HETATM   26  C26 UNL     1       6.078   3.609   7.752  1.00  0.00     0.005 C
ENDBRANCH  20  21
ENDBRANCH  10  20
ENDBRANCH   5  10
BRANCH   1  27
HETATM   27  C2  UNL     1       3.402  -1.850  14.646  1.00  0.00     0.268 C
HETATM   28  O2  UNL     1       2.260  -1.432  14.942  1.00  0.00    -0.264 OA
BRANCH  27  29
HETATM   29  O1  UNL     1       3.456  -3.119  14.040  1.00  0.00    -0.326 OA
HETATM   30  C1  UNL     1       2.729  -4.233  14.555  1.00  0.00     0.213 C
ENDBRANCH  27  29
ENDBRANCH   1  27
BRANCH   1  31
HETATM   31  C4  UNL     1       5.082  -1.129  16.353  1.00  0.00     0.047 C
BRANCH  31  32
HETATM   32  C5  UNL     1       6.092  -2.163  16.655  1.00  0.00     0.180 C
BRANCH  32  33
HETATM   33  O3  UNL     1       5.638  -3.453  16.907  1.00  0.00    -0.321 OA
BRANCH  33  34
HETATM   34  C6  UNL     1       6.068  -4.583  16.214  1.00  0.00     0.259 C
HETATM   35  O4  UNL     1       5.514  -5.676  16.495  1.00  0.00    -0.265 OA
BRANCH  34  36
HETATM   36  C7  UNL     1       7.131  -4.474  15.195  1.00  0.00     0.119 C
BRANCH  36  37
HETATM   37  C8  UNL     1       8.491  -4.918  15.674  1.00  0.00    -0.043 C
HETATM   38  C9  UNL     1       8.769  -4.584  17.101  1.00  0.00     0.015 C
HETATM   39  C10 UNL     1       8.739  -6.366  15.366  1.00  0.00     0.015 C
HETATM   40  C11 UNL     1       9.492  -4.118  14.821  1.00  0.00     0.015 C
ENDBRANCH  36  37
ENDBRANCH  34  36
ENDBRANCH  33  34
ENDBRANCH  32  33
ENDBRANCH  31  32
ENDBRANCH   1  31
TORSDOF 15
ENDMDL