MODEL 1
REMARK VINA RESULT: -8.461081200      0.000      0.000
REMARK  17 active torsions:
REMARK  status: ('A' for Active; 'I' for Inactive)
REMARK    1  A    between atoms: C2_2  and  C3_3
REMARK    2  A    between atoms: C3_3  and  C4_4
REMARK    3  A    between atoms: C4_4  and  C5_5
REMARK    4  A    between atoms: C5_5  and  O1_6
REMARK    5  A    between atoms: O1_6  and  C6_7
REMARK       I    between atoms: C6_7  and  N1_9
REMARK    6  A    between atoms: N2_12  and  C9_13
REMARK    7  A    between atoms: C9_13  and  O3_14
REMARK    8  A    between atoms: C9_13  and  C10_16
REMARK    9  A    between atoms: C10_16  and  C11_17
REMARK   10  A    between atoms: C10_16  and  N3_21
REMARK   11  A    between atoms: C11_17  and  C12_18
REMARK   12  A    between atoms: C12_18  and  S1_19
REMARK       I    between atoms: N3_21  and  C14_23
REMARK   13  A    between atoms: C14_23  and  C15_25
REMARK       I    between atoms: N4_30  and  C20_31
REMARK   14  A    between atoms: C20_31  and  C21_33
REMARK   15  A    between atoms: C22_34  and  C23_35
REMARK   16  A    between atoms: C23_35  and  O6_36
REMARK   17  A    between atoms: N5_38  and  O7_40
ROOT
HETATM    1  C10 UNL     1       4.406  -0.039  14.115  1.00  0.00     0.086 C
ENDROOT
BRANCH   1   2
HETATM    2  C9  UNL     1       5.293  -0.431  15.206  1.00  0.00     0.165 C
BRANCH   2   3
HETATM    3  N2  UNL     1       6.164  -1.498  15.339  1.00  0.00    -0.357 N
HETATM    4  C8  UNL     1       7.466  -1.550  14.741  1.00  0.00     0.145 C
HETATM    5  C7  UNL     1       7.994  -2.988  14.708  1.00  0.00     0.148 C
HETATM    6  N1  UNL     1       8.075  -3.464  16.079  1.00  0.00    -0.325 N
HETATM    7  C6  UNL     1       9.223  -4.178  16.474  1.00  0.00     0.362 C
HETATM    8  C25 UNL     1       6.961  -3.171  16.942  1.00  0.00     0.148 C
HETATM    9  O2  UNL     1      10.158  -4.410  15.640  1.00  0.00    -0.238 OA
HETATM   10  C24 UNL     1       5.780  -2.657  16.142  1.00  0.00     0.145 C
BRANCH   7  11
HETATM   11  O1  UNL     1       9.324  -4.627  17.791  1.00  0.00    -0.304 OA
BRANCH  11  12
HETATM   12  C5  UNL     1      10.537  -5.250  18.137  1.00  0.00     0.180 C
BRANCH  12  13
HETATM   13  C4  UNL     1      10.500  -6.741  18.115  1.00  0.00     0.027 C
BRANCH  13  14
HETATM   14  C3  UNL     1       9.177  -7.353  18.432  1.00  0.00     0.002 C
BRANCH  14  15
HETATM   15  C2  UNL     1       8.659  -7.974  17.141  1.00  0.00    -0.004 C
HETATM   16  C1  UNL     1       8.300  -9.425  17.308  1.00  0.00     0.005 C
ENDBRANCH  14  15
ENDBRANCH  13  14
ENDBRANCH  12  13
ENDBRANCH  11  12
ENDBRANCH   7  11
ENDBRANCH   2   3
BRANCH   2  17
HETATM   17  O3  UNL     1       5.244   0.384  16.234  1.00  0.00    -0.344 OA
ATOM     18  H3  UNL     1       5.794   1.156  16.166  1.00  0.00     0.219 HD
ENDBRANCH   2  17
ENDBRANCH   1   2
BRANCH   1  19
HETATM   19  C11 UNL     1       3.957  -1.096  13.195  1.00  0.00     0.041 C
BRANCH  19  20
HETATM   20  C12 UNL     1       3.376  -2.357  13.638  1.00  0.00     0.047 C
BRANCH  20  21
HETATM   21  S1  UNL     1       2.208  -2.476  14.934  1.00  0.00    -0.146 SA
HETATM   22  C13 UNL     1       1.246  -3.962  15.071  1.00  0.00     0.095 C
ENDBRANCH  20  21
ENDBRANCH  19  20
ENDBRANCH   1  19
BRANCH   1  23
HETATM   23  N3  UNL     1       4.696   1.210  13.486  1.00  0.00    -0.322 N
HETATM   24  C14 UNL     1       5.747   1.360  12.559  1.00  0.00     0.245 C
HETATM   25  O4  UNL     1       6.453   0.379  12.262  1.00  0.00    -0.271 OA
ATOM     26  H3  UNL     1       4.124   2.022  13.716  1.00  0.00     0.169 HD
BRANCH  24  27
HETATM   27  C15 UNL     1       6.037   2.666  11.928  1.00  0.00     0.179 C
HETATM   28  C16 UNL     1       7.529   2.749  11.697  1.00  0.00     0.035 C
HETATM   29  C17 UNL     1       7.874   2.648  10.230  1.00  0.00     0.004 C
HETATM   30  C18 UNL     1       6.921   1.718   9.511  1.00  0.00     0.020 C
HETATM   31  C19 UNL     1       5.566   2.361   9.492  1.00  0.00     0.127 C
HETATM   32  N4  UNL     1       5.269   2.928  10.766  1.00  0.00    -0.335 N
HETATM   33  C20 UNL     1       4.132   3.821  10.859  1.00  0.00     0.244 C
HETATM   34  O5  UNL     1       3.878   4.347  11.967  1.00  0.00    -0.268 OA
BRANCH  33  35
HETATM   35  C21 UNL     1       3.333   4.081   9.701  1.00  0.00     0.078 C
HETATM   36  C22 UNL     1       2.091   3.902   9.411  1.00  0.00     0.063 C
BRANCH  36  37
HETATM   37  C23 UNL     1       0.986   3.363  10.132  1.00  0.00     0.159 C
HETATM   38  N5  UNL     1       0.108   2.532   9.722  1.00  0.00    -0.248 N
ATOM     39  H5  UNL     1       0.201   2.207   8.759  1.00  0.00     0.196 HD
BRANCH  37  40
HETATM   40  O6  UNL     1       0.787   3.765  11.484  1.00  0.00    -0.345 OA
ATOM     41  H6  UNL     1      -0.078   4.047  11.755  1.00  0.00     0.219 HD
ENDBRANCH  37  40
BRANCH  38  42
HETATM   42  O7  UNL     1      -0.934   2.039  10.433  1.00  0.00    -0.288 OA
ATOM     43  H7  UNL     1      -1.789   2.440  10.540  1.00  0.00     0.244 HD
ENDBRANCH  38  42
ENDBRANCH  36  37
ENDBRANCH  33  35
ENDBRANCH  24  27
ENDBRANCH   1  23
TORSDOF 17
ENDMDL