MODEL 1
REMARK VINA RESULT: -4.144099709      0.000      0.000
REMARK  3 active torsions:
REMARK  status: ('A' for Active; 'I' for Inactive)
REMARK    1  A    between atoms: N1_1  and  C1_5
REMARK    2  A    between atoms: C1_5  and  C2_6
REMARK    3  A    between atoms: C2_6  and  N2_7
ROOT
HETATM    1  C2  UNL     1       4.210  31.917 -11.537  1.00  0.00     0.147 C
HETATM    2  C3  UNL     1       3.348  31.986 -10.296  1.00  0.00     0.040 C
HETATM    3  C4  UNL     1       2.315  32.779 -11.105  1.00  0.00     0.005 C
HETATM    4  C5  UNL     1       2.990  32.199 -12.345  1.00  0.00     0.040 C
ENDROOT
BRANCH   1   5
HETATM    5  C1  UNL     1       5.267  32.976 -11.487  1.00  0.00     0.268 C
BRANCH   5   6
HETATM    6  N1  UNL     1       5.867  33.145 -10.196  1.00  0.00    -0.077 N
ATOM      7  H13 UNL     1       5.633  32.361  -9.588  1.00  0.00     0.274 HD
ATOM      8  H12 UNL     1       6.878  33.024 -10.253  1.00  0.00     0.274 HD
ATOM      9  H11 UNL     1       5.638  34.030  -9.743  1.00  0.00     0.274 HD
ENDBRANCH   5   6
ENDBRANCH   1   5
BRANCH   1  10
HETATM   10  N2  UNL     1       4.715  30.570 -11.748  1.00  0.00    -0.069 N
ATOM     11  H23 UNL     1       4.552  30.276 -12.711  1.00  0.00     0.275 HD
ATOM     12  H22 UNL     1       5.735  30.568 -11.734  1.00  0.00     0.275 HD
ATOM     13  H21 UNL     1       4.349  29.875 -11.098  1.00  0.00     0.275 HD
ENDBRANCH   1  10
TORSDOF 3
ENDMDL