MODEL 4
REMARK VINA RESULT: -4.349694554      2.023      2.511
REMARK  1 active torsions:
REMARK  status: ('A' for Active; 'I' for Inactive)
REMARK    1  A    between atoms: O1_1  and  N1_3
ROOT
HETATM    1  N1  UNL     1       3.160  32.267 -11.140  1.00  0.00    -0.247 N
HETATM    2  C1  UNL     1       3.356  33.178 -12.109  1.00  0.00     0.122 A
HETATM    3  C2  UNL     1       2.504  34.230 -12.313  1.00  0.00     0.020 A
HETATM    4  C3  UNL     1       1.426  34.325 -11.482  1.00  0.00     0.003 A
HETATM    5  C4  UNL     1       1.216  33.397 -10.486  1.00  0.00     0.020 A
HETATM    6  C5  UNL     1       2.106  32.373 -10.338  1.00  0.00     0.122 A
ENDROOT
BRANCH   1   7
HETATM    7  O1  UNL     1       4.080  31.231 -11.007  1.00  0.00    -0.284 OA
ATOM      8  H1  UNL     1       4.993  31.450 -10.865  1.00  0.00     0.245 HD
ENDBRANCH   1   7
TORSDOF 1
ENDMDL