MODEL 2
REMARK VINA RESULT: -3.712235243      0.870      2.879
REMARK  2 active torsions:
REMARK  status: ('A' for Active; 'I' for Inactive)
REMARK    1  A    between atoms: N1_1  and  C1_5
REMARK    2  A    between atoms: C1_5  and  C2_6
ROOT
HETATM    1  C2  UNL     1       2.943  32.598 -11.830  1.00  0.00     0.087 A
HETATM    2  C3  UNL     1       4.322  32.440 -11.341  1.00  0.00     0.071 A
HETATM    3  N2  UNL     1       3.984  32.187 -10.167  1.00  0.00    -0.381 N
ATOM      4  H2  UNL     1       4.512  31.977  -9.320  1.00  0.00     0.164 HD
HETATM    5  C4  UNL     1       2.606  32.296 -10.436  1.00  0.00     0.071 A
ENDROOT
BRANCH   1   6
HETATM    6  C1  UNL     1       2.735  34.022 -12.301  1.00  0.00     0.244 C
BRANCH   6   7
HETATM    7  N1  UNL     1       1.922  34.802 -11.425  1.00  0.00    -0.078 N
ATOM      8  H13 UNL     1       1.743  35.723 -11.825  1.00  0.00     0.274 HD
ATOM      9  H12 UNL     1       0.968  34.439 -11.400  1.00  0.00     0.274 HD
ATOM     10  H11 UNL     1       2.301  34.885 -10.482  1.00  0.00     0.274 HD
ENDBRANCH   6   7
ENDBRANCH   1   6
TORSDOF 2
ENDMDL