MODEL 2
REMARK VINA RESULT: -3.950776143      1.276      1.276
REMARK  1 active torsions:
REMARK  status: ('A' for Active; 'I' for Inactive)
REMARK    1  A    between atoms: C1_4  and  C2_5
ROOT
HETATM    1  C2  UNL     1       4.546  32.995 -11.558  1.00  0.00     0.063 A
HETATM    2  C3  UNL     1       3.477  32.506 -12.294  1.00  0.00     0.119 A
HETATM    3  N2  UNL     1       2.651  31.793 -11.498  1.00  0.00    -0.360 N
ATOM      4  H2  UNL     1       1.790  31.320 -11.772  1.00  0.00     0.166 HD
HETATM    5  C4  UNL     1       3.201  31.834 -10.262  1.00  0.00     0.180 A
HETATM    6  N3  UNL     1       4.333  32.557 -10.310  1.00  0.00    -0.350 N
ATOM      7  H3  UNL     1       4.942  32.743  -9.512  1.00  0.00     0.166 HD
ENDROOT
BRANCH   1   8
HETATM    8  C1  UNL     1       5.638  33.808 -12.074  1.00  0.00     0.111 C
HETATM    9  N1  UNL     1       5.743  35.038 -11.735  1.00  0.00    -0.406 N
ATOM     10  H12 UNL     1       5.051  35.434 -11.100  1.00  0.00     0.155 HD
ATOM     11  H11 UNL     1       6.509  35.607 -12.097  1.00  0.00     0.155 HD
ENDBRANCH   1   8
TORSDOF 1
ENDMDL