MODEL 1
REMARK VINA RESULT: -4.131579890      0.000      0.000
REMARK  1 active torsions:
REMARK  status: ('A' for Active; 'I' for Inactive)
REMARK    1  A    between atoms: C3_3  and  C4_4
ROOT
HETATM    1  C4  UNL     1       3.174  32.421 -10.949  1.00  0.00     0.114 A
HETATM    2  N1  UNL     1       4.030  31.292 -11.039  1.00  0.00    -0.286 N
ATOM      3  H1  UNL     1       4.292  30.403 -11.465  1.00  0.00     0.188 HD
HETATM    4  N2  UNL     1       4.248  32.310 -10.111  1.00  0.00    -0.286 N
ATOM      5  H2  UNL     1       4.808  32.696  -9.351  1.00  0.00     0.188 HD
ENDROOT
BRANCH   1   6
HETATM    6  C3  UNL     1       1.980  32.953 -11.584  1.00  0.00     0.056 A
HETATM    7  C1  UNL     1       1.018  33.796 -10.777  1.00  0.00     0.013 A
HETATM    8  C2  UNL     1       1.865  34.455 -11.805  1.00  0.00     0.013 A
ENDBRANCH   1   6
TORSDOF 1
ENDMDL