MODEL 5
REMARK VINA RESULT: -3.529802201      2.197      3.529
REMARK  1 active torsions:
REMARK  status: ('A' for Active; 'I' for Inactive)
REMARK    1  A    between atoms: N2_3  and  C2_5
ROOT
HETATM    1  N1  UNL     1       6.656  35.226 -12.663  1.00  0.00    -0.097 NA
HETATM    2  C1  UNL     1       5.625  34.371 -12.228  1.00  0.00     0.187 C
HETATM    3  N2  UNL     1       4.447  34.404 -12.718  1.00  0.00    -0.360 N
ATOM      4  H2  UNL     1       4.283  35.090 -13.454  1.00  0.00     0.162 HD
ENDROOT
BRANCH   3   5
HETATM    5  C2  UNL     1       3.342  33.592 -12.355  1.00  0.00     0.245 A
HETATM    6  C3  UNL     1       2.015  34.325 -12.260  1.00  0.00     0.224 A
HETATM    7  O1  UNL     1       2.673  33.774 -11.157  1.00  0.00    -0.360 OA
ENDBRANCH   3   5
TORSDOF 1
ENDMDL