MODEL 3
REMARK VINA RESULT: -3.338069079      1.871      2.244
REMARK  1 active torsions:
REMARK  status: ('A' for Active; 'I' for Inactive)
REMARK    1  A    between atoms: N1_1  and  C1_5
ROOT
HETATM    1  C1  UNL     1      -1.041  39.798 -10.197  1.00  0.00     0.320 A
HETATM    2  C2  UNL     1      -0.547  38.431  -9.818  1.00  0.00     0.087 A
HETATM    3  C3  UNL     1      -1.551  38.562  -8.734  1.00  0.00     0.174 A
HETATM    4  O1  UNL     1      -1.914  39.856  -9.117  1.00  0.00    -0.359 OA
ENDROOT
BRANCH   1   5
HETATM    5  N1  UNL     1      -0.036  40.832 -10.165  1.00  0.00    -0.053 N
ATOM      6  H13 UNL     1      -0.423  41.713 -10.502  1.00  0.00     0.277 HD
ATOM      7  H12 UNL     1       0.177  41.090  -9.202  1.00  0.00     0.277 HD
ATOM      8  H11 UNL     1       0.822  40.607 -10.669  1.00  0.00     0.277 HD
ENDBRANCH   1   5
TORSDOF 1
ENDMDL