MODEL 2
REMARK VINA RESULT: -3.524403139      6.835      7.722
REMARK  2 active torsions:
REMARK  status: ('A' for Active; 'I' for Inactive)
REMARK    1  A    between atoms: N1_1  and  C1_5
REMARK    2  A    between atoms: C1_5  and  C2_6
ROOT
HETATM    1  C2  UNL     1      -1.831  39.495  -9.565  1.00  0.00     0.212 C
HETATM    2  C3  UNL     1      -1.140  40.822  -9.762  1.00  0.00     0.062 C
HETATM    3  C4  UNL     1      -2.468  41.112 -10.479  1.00  0.00     0.235 C
HETATM    4  N2  UNL     1      -2.393  39.698 -10.892  1.00  0.00    -0.069 N
ATOM      5  H21 UNL     1      -3.205  39.181 -11.229  1.00  0.00     0.277 HD
ATOM      6  H22 UNL     1      -1.917  39.398 -11.743  1.00  0.00     0.277 HD
ENDROOT
BRANCH   1   7
HETATM    7  C1  UNL     1      -0.936  38.304  -9.424  1.00  0.00     0.262 C
BRANCH   7   8
HETATM    8  N1  UNL     1       0.257  38.533 -10.198  1.00  0.00    -0.077 N
ATOM      9  H13 UNL     1       0.868  37.717 -10.226  1.00  0.00     0.274 HD
ATOM     10  H12 UNL     1       0.067  38.600 -11.198  1.00  0.00     0.274 HD
ATOM     11  H11 UNL     1       0.727  39.361  -9.832  1.00  0.00     0.274 HD
ENDBRANCH   7   8
ENDBRANCH   1   7
TORSDOF 2
ENDMDL