MODEL 4
REMARK VINA RESULT: -3.460987558      2.059      2.960
REMARK  2 active torsions:
REMARK  status: ('A' for Active; 'I' for Inactive)
REMARK    1  A    between atoms: N1_1  and  C1_5
REMARK    2  A    between atoms: C1_5  and  N2_6
ROOT
HETATM    1  C1  UNL     1      -1.581  38.361  -8.583  1.00  0.00     0.349 C
ENDROOT
BRANCH   1   2
HETATM    2  N1  UNL     1      -2.249  37.550  -9.610  1.00  0.00    -0.066 N
ATOM      3  H13 UNL     1      -2.871  38.089 -10.212  1.00  0.00     0.275 HD
ATOM      4  H12 UNL     1      -1.618  37.223 -10.343  1.00  0.00     0.275 HD
ATOM      5  H11 UNL     1      -2.720  36.793  -9.114  1.00  0.00     0.275 HD
ENDBRANCH   1   2
BRANCH   1   6
HETATM    6  N2  UNL     1      -1.740  39.737  -8.989  1.00  0.00    -0.170 NA
HETATM    7  C2  UNL     1      -0.821  40.177  -9.998  1.00  0.00     0.150 C
HETATM    8  C3  UNL     1      -2.012  41.104 -10.272  1.00  0.00     0.210 C
HETATM    9  O1  UNL     1      -2.749  39.968  -9.864  1.00  0.00    -0.301 OA
ENDBRANCH   1   6
TORSDOF 2
ENDMDL