MODEL 3
REMARK VINA RESULT: -3.872083323      6.471      7.288
REMARK  1 active torsions:
REMARK  status: ('A' for Active; 'I' for Inactive)
REMARK    1  A    between atoms: N1_1  and  C1_5
ROOT
HETATM    1  C1  UNL     1      -0.826  39.926 -10.520  1.00  0.00     0.192 A
HETATM    2  C2  UNL     1      -0.466  38.625 -10.090  1.00  0.00     0.022 A
HETATM    3  C3  UNL     1      -1.384  37.449  -9.759  1.00  0.00     0.007 C
HETATM    4  C4  UNL     1      -1.591  38.354  -8.522  1.00  0.00     0.007 C
HETATM    5  C5  UNL     1      -1.791  39.380  -9.639  1.00  0.00     0.022 A
ENDROOT
BRANCH   1   6
HETATM    6  N1  UNL     1      -0.085  41.112 -10.053  1.00  0.00    -0.074 N
ATOM      7  H13 UNL     1      -0.728  41.696  -9.517  1.00  0.00     0.274 HD
ATOM      8  H12 UNL     1       0.573  40.812  -9.335  1.00  0.00     0.274 HD
ATOM      9  H11 UNL     1       0.414  41.712 -10.710  1.00  0.00     0.274 HD
ENDBRANCH   1   6
TORSDOF 1
ENDMDL