MODEL 4
REMARK VINA RESULT: -5.593808564      2.518      6.410
REMARK  8 active torsions:
REMARK  status: ('A' for Active; 'I' for Inactive)
REMARK    1  A    between atoms: S1_2  and  N1_5
REMARK    2  A    between atoms: N1_5  and  N2_7
REMARK    3  A    between atoms: N2_7  and  C2_9
REMARK    4  A    between atoms: C3_13  and  O3_14
REMARK    5  A    between atoms: O3_14  and  C4_15
REMARK    6  A    between atoms: C6_20  and  N5_21
REMARK    7  A    between atoms: C7_26  and  N6_27
REMARK    8  A    between atoms: C8_31  and  O5_32
ROOT
HETATM    1  C2  UNL     1       2.793  76.145  17.504  1.00  0.00     0.450 C
HETATM    2  N3  UNL     1       1.682  75.745  18.356  1.00  0.00    -0.001 N
ATOM      3  H31 UNL     1       1.375  76.504  18.966  1.00  0.00     0.285 HD
ATOM      4  H32 UNL     1       1.971  75.083  19.075  1.00  0.00     0.285 HD
HETATM    5  C3  UNL     1       0.592  75.225  17.540  1.00  0.00     0.367 C
HETATM    6  C7  UNL     1       0.477  76.145  16.333  1.00  0.00     0.317 C
HETATM    7  C8  UNL     1       1.748  76.056  15.523  1.00  0.00     0.291 C
HETATM    8  C9  UNL     1       1.560  75.236  14.321  1.00  0.00     0.131 C
HETATM    9  N7  UNL     1       1.398  74.589  13.384  1.00  0.00    -0.191 NA
HETATM   10  O6  UNL     1       2.706  75.421  16.320  1.00  0.00    -0.291 OA
ENDROOT
BRANCH   7  11
HETATM   11  O5  UNL     1       2.258  77.299  15.180  1.00  0.00    -0.352 OA
ATOM     12  H5  UNL     1       1.860  78.010  15.669  1.00  0.00     0.214 HD
ENDBRANCH   7  11
BRANCH   6  13
HETATM   13  N6  UNL     1      -0.673  75.850  15.522  1.00  0.00    -0.065 N
ATOM     14  H63 UNL     1      -1.535  75.947  16.059  1.00  0.00     0.275 HD
ATOM     15  H62 UNL     1      -0.829  76.581  14.829  1.00  0.00     0.275 HD
ATOM     16  H61 UNL     1      -0.616  74.932  15.081  1.00  0.00     0.275 HD
ENDBRANCH   6  13
BRANCH   5  17
HETATM   17  O3  UNL     1      -0.560  75.266  18.290  1.00  0.00    -0.303 OA
BRANCH  17  18
HETATM   18  C4  UNL     1      -0.455  74.612  19.495  1.00  0.00     0.473 C
HETATM   19  N4  UNL     1      -0.298  73.197  19.231  1.00  0.00    -0.021 N
HETATM   20  C5  UNL     1      -0.946  72.520  20.313  1.00  0.00     0.299 C
ATOM     21  H42 UNL     1      -0.639  72.915  18.312  1.00  0.00     0.283 HD
ATOM     22  H41 UNL     1       0.672  72.913  19.095  1.00  0.00     0.283 HD
HETATM   23  C6  UNL     1      -1.550  73.630  21.155  1.00  0.00     0.348 C
HETATM   24  O4  UNL     1      -1.618  74.710  20.261  1.00  0.00    -0.304 OA
BRANCH  23  25
HETATM   25  N5  UNL     1      -2.900  73.313  21.566  1.00  0.00    -0.051 N
ATOM     26  H53 UNL     1      -2.912  72.819  22.458  1.00  0.00     0.277 HD
ATOM     27  H52 UNL     1      -3.413  74.151  21.841  1.00  0.00     0.277 HD
ATOM     28  H51 UNL     1      -3.399  72.792  20.845  1.00  0.00     0.277 HD
ENDBRANCH  23  25
ENDBRANCH  17  18
ENDBRANCH   5  17
BRANCH   1  29
HETATM   29  N2  UNL     1       4.006  75.936  18.164  1.00  0.00    -0.275 N
ATOM     30  H2  UNL     1       4.227  75.020  18.555  1.00  0.00     0.185 HD
BRANCH  29  31
HETATM   31  N1  UNL     1       4.883  76.954  18.281  1.00  0.00    -0.228 N
ATOM     32  H1  UNL     1       4.897  77.601  19.070  1.00  0.00     0.199 HD
BRANCH  31  33
HETATM   33  S1  UNL     1       5.970  77.043  16.960  1.00  0.00     0.239 S
HETATM   34  C1  UNL     1       7.297  78.157  17.441  1.00  0.00     0.187 C
HETATM   35  O1  UNL     1       5.332  77.482  15.693  1.00  0.00    -0.205 OA
HETATM   36  O2  UNL     1       6.617  75.688  16.789  1.00  0.00    -0.205 OA
ENDBRANCH  31  33
ENDBRANCH  29  31
ENDBRANCH   1  29
TORSDOF 8
ENDMDL