MODEL 5
REMARK VINA RESULT: -5.288584226      1.116      1.921
REMARK  8 active torsions:
REMARK  status: ('A' for Active; 'I' for Inactive)
REMARK    1  A    between atoms: N1_1  and  C1_4
REMARK    2  A    between atoms: N3_9  and  S1_10
REMARK    3  A    between atoms: S1_10  and  C3_13
REMARK    4  A    between atoms: C3_13  and  C4_14
REMARK    5  A    between atoms: C4_14  and  O4_15
REMARK    6  A    between atoms: C6_21  and  O5_22
REMARK    7  A    between atoms: C8_28  and  O6_29
REMARK    8  A    between atoms: N6_31  and  N7_32
ROOT
HETATM    1  C4  UNL     1       2.021  75.918  18.497  1.00  0.00     0.270 C
HETATM    2  N4  UNL     1       1.759  76.659  17.288  1.00  0.00    -0.035 N
ATOM      3  H41 UNL     1       1.394  77.589  17.493  1.00  0.00     0.281 HD
ATOM      4  H42 UNL     1       0.957  76.280  16.786  1.00  0.00     0.281 HD
HETATM    5  C5  UNL     1       2.937  76.728  16.432  1.00  0.00     0.307 C
HETATM    6  C6  UNL     1       4.124  77.031  17.293  1.00  0.00     0.277 C
HETATM    7  N5  UNL     1       3.725  77.582  18.600  1.00  0.00    -0.027 N
ATOM      8  H51 UNL     1       3.027  78.321  18.677  1.00  0.00     0.281 HD
ATOM      9  H52 UNL     1       4.357  78.166  19.149  1.00  0.00     0.281 HD
HETATM   10  C7  UNL     1       3.427  76.201  18.989  1.00  0.00     0.286 C
HETATM   11  C8  UNL     1       4.485  75.754  18.037  1.00  0.00     0.218 C
ENDROOT
BRANCH   1  12
HETATM   12  C3  UNL     1       1.075  76.381  19.586  1.00  0.00     0.236 C
BRANCH  12  13
HETATM   13  S1  UNL     1      -0.574  75.997  19.069  1.00  0.00     0.261 S
HETATM   14  O2  UNL     1      -1.423  77.221  19.261  1.00  0.00    -0.203 OA
HETATM   15  O3  UNL     1      -0.600  75.581  17.649  1.00  0.00    -0.203 OA
BRANCH  13  16
HETATM   16  N3  UNL     1      -1.252  74.749  20.069  1.00  0.00    -0.090 N
HETATM   17  C2  UNL     1      -0.966  73.435  20.018  1.00  0.00     0.371 A
HETATM   18  N2  UNL     1      -1.698  72.789  20.957  1.00  0.00    -0.136 N
HETATM   19  O1  UNL     1      -0.137  72.915  19.208  1.00  0.00    -0.243 OA
HETATM   20  C1  UNL     1      -2.444  73.703  21.596  1.00  0.00     0.717 A
ATOM     21  H2  UNL     1      -1.683  71.787  21.144  1.00  0.00     0.189 HD
HETATM   22  N6  UNL     1      -2.150  74.881  21.035  1.00  0.00    -0.006 N
BRANCH  20  23
HETATM   23  N1  UNL     1      -3.286  73.488  22.569  1.00  0.00    -0.231 N
ATOM     24  H12 UNL     1      -3.710  72.597  22.826  1.00  0.00     0.174 HD
ATOM     25  H11 UNL     1      -3.655  74.176  23.226  1.00  0.00     0.174 HD
ENDBRANCH  20  23
BRANCH  22  26
HETATM   26  N7  UNL     1      -2.695  76.124  21.386  1.00  0.00    -0.308 N
ATOM     27  H72 UNL     1      -3.695  76.257  21.533  1.00  0.00     0.179 HD
ATOM     28  H71 UNL     1      -2.177  76.990  21.527  1.00  0.00     0.179 HD
ENDBRANCH  22  26
ENDBRANCH  13  16
ENDBRANCH  12  13
ENDBRANCH   1  12
BRANCH   1  29
HETATM   29  O4  UNL     1       1.834  74.564  18.236  1.00  0.00    -0.362 OA
ATOM     30  H4  UNL     1       1.945  74.388  17.309  1.00  0.00     0.212 HD
ENDBRANCH   1  29
BRANCH  11  31
HETATM   31  O6  UNL     1       4.245  74.616  17.308  1.00  0.00    -0.388 OA
ATOM     32  H6  UNL     1       4.909  73.946  17.427  1.00  0.00     0.210 HD
ENDBRANCH  11  31
BRANCH   6  33
HETATM   33  O5  UNL     1       5.175  77.685  16.703  1.00  0.00    -0.362 OA
ATOM     34  H5  UNL     1       5.694  78.259  17.255  1.00  0.00     0.212 HD
ENDBRANCH   6  33
TORSDOF 8
ENDMDL