MODEL 4
REMARK VINA RESULT: -5.306814025      4.554      6.841
REMARK  8 active torsions:
REMARK  status: ('A' for Active; 'I' for Inactive)
REMARK    1  A    between atoms: N1_1  and  C1_5
REMARK    2  A    between atoms: C1_5  and  C2_6
REMARK    3  A    between atoms: C1_5  and  C3_9
REMARK    4  A    between atoms: N2_11  and  C5_12
REMARK    5  A    between atoms: C6_13  and  O3_14
REMARK    6  A    between atoms: C9_20  and  N4_21
REMARK    7  A    between atoms: C10_28  and  O5_29
REMARK    8  A    between atoms: C11_31  and  O6_32
ROOT
HETATM    1  C5  UNL     1       0.048  76.449  15.164  1.00  0.00     0.171 C
HETATM    2  C6  UNL     1      -0.493  77.769  14.668  1.00  0.00     0.162 C
HETATM    3  C7  UNL     1      -1.991  77.739  14.794  1.00  0.00     0.176 C
HETATM    4  N3  UNL     1      -2.633  77.012  13.728  1.00  0.00    -0.097 NA
HETATM    5  O4  UNL     1      -2.309  75.686  13.798  1.00  0.00    -0.264 OA
HETATM    6  C8  UNL     1      -1.096  75.426  13.175  1.00  0.00     0.216 C
HETATM    7  C9  UNL     1      -0.881  76.039  11.839  1.00  0.00     0.426 C
HETATM    8  N5  UNL     1      -0.602  74.753  11.207  1.00  0.00    -0.014 N
ATOM      9  H51 UNL     1       0.337  74.520  10.884  1.00  0.00     0.282 HD
ATOM     10  H52 UNL     1      -0.955  74.540  10.275  1.00  0.00     0.282 HD
HETATM   11  C10 UNL     1      -1.164  74.119  12.376  1.00  0.00     0.365 C
HETATM   12  C11 UNL     1       0.051  75.379  14.120  1.00  0.00     0.190 C
ENDROOT
BRANCH   1  13
HETATM   13  N2  UNL     1       1.381  76.639  15.685  1.00  0.00    -0.277 N
HETATM   14  C4  UNL     1       1.842  76.160  16.840  1.00  0.00     0.141 A
HETATM   15  C3  UNL     1       3.153  76.564  16.966  1.00  0.00     0.085 A
HETATM   16  N7  UNL     1       3.435  77.278  15.871  1.00  0.00    -0.286 N
HETATM   17  N6  UNL     1       2.367  77.310  15.121  1.00  0.00    -0.240 N
ATOM     18  H7  UNL     1       4.330  77.720  15.659  1.00  0.00     0.188 HD
ATOM     19  H6  UNL     1       2.304  77.788  14.223  1.00  0.00     0.208 HD
BRANCH  15  20
HETATM   20  C1  UNL     1       4.060  76.271  18.078  1.00  0.00     0.335 C
BRANCH  20  21
HETATM   21  N1  UNL     1       3.583  75.084  18.751  1.00  0.00    -0.060 N
ATOM     22  H13 UNL     1       4.046  74.961  19.652  1.00  0.00     0.275 HD
ATOM     23  H12 UNL     1       2.623  75.206  19.076  1.00  0.00     0.275 HD
ATOM     24  H11 UNL     1       3.672  74.247  18.175  1.00  0.00     0.275 HD
ENDBRANCH  20  21
BRANCH  20  25
HETATM   25  C2  UNL     1       5.463  76.142  17.636  1.00  0.00     0.210 C
HETATM   26  O1  UNL     1       5.952  75.008  17.488  1.00  0.00    -0.646 OA
HETATM   27  O2  UNL     1       6.212  77.275  17.394  1.00  0.00    -0.646 OA
ENDBRANCH  20  25
ENDBRANCH  15  20
ENDBRANCH   1  13
BRANCH   2  28
HETATM   28  O3  UNL     1      -0.037  78.746  15.583  1.00  0.00    -0.392 OA
ATOM     29  H3  UNL     1      -0.538  78.614  16.380  1.00  0.00     0.210 HD
ENDBRANCH   2  28
BRANCH  12  30
HETATM   30  O6  UNL     1       1.230  75.329  13.389  1.00  0.00    -0.390 OA
ATOM     31  H6  UNL     1       1.920  74.839  13.822  1.00  0.00     0.210 HD
ENDBRANCH  12  30
BRANCH   7  32
HETATM   32  N4  UNL     1      -2.098  76.587  11.228  1.00  0.00    -0.047 N
ATOM     33  H43 UNL     1      -2.128  76.366  10.233  1.00  0.00     0.276 HD
ATOM     34  H42 UNL     1      -2.920  76.074  11.546  1.00  0.00     0.276 HD
ATOM     35  H41 UNL     1      -2.224  77.588  11.375  1.00  0.00     0.276 HD
ENDBRANCH   7  32
BRANCH  11  36
HETATM   36  O5  UNL     1      -2.443  73.622  12.248  1.00  0.00    -0.367 OA
ATOM     37  H5  UNL     1      -2.502  72.878  11.661  1.00  0.00     0.212 HD
ENDBRANCH  11  36
TORSDOF 8
ENDMDL