MODEL 3
REMARK VINA RESULT: -5.795137166      0.731      1.707
REMARK  11 active torsions:
REMARK  status: ('A' for Active; 'I' for Inactive)
REMARK    1  A    between atoms: N1_1  and  N2_4
REMARK    2  A    between atoms: N2_4  and  C1_6
REMARK    3  A    between atoms: N6_13  and  C2_14
REMARK    4  A    between atoms: C2_14  and  O1_15
REMARK    5  A    between atoms: C2_14  and  C3_17
REMARK    6  A    between atoms: C3_17  and  O2_18
REMARK    7  A    between atoms: C3_17  and  C4_20
REMARK    8  A    between atoms: C4_20  and  O3_21
REMARK    9  A    between atoms: C4_20  and  C5_23
REMARK   10  A    between atoms: N8_31  and  O5_32
REMARK   11  A    between atoms: C10_34  and  O6_35
ROOT
HETATM    1  C3  UNL     1       0.280  74.766  19.218  1.00  0.00     0.198 C
ENDROOT
BRANCH   1   2
HETATM    2  C2  UNL     1      -0.177  73.338  19.473  1.00  0.00     0.292 C
BRANCH   2   3
HETATM    3  N6  UNL     1      -1.240  73.196  20.409  1.00  0.00    -0.073 N
HETATM    4  C1  UNL     1      -1.849  74.188  21.097  1.00  0.00     0.732 A
HETATM    5  N3  UNL     1      -2.800  73.640  21.885  1.00  0.00    -0.113 N
HETATM    6  N4  UNL     1      -2.773  72.336  21.682  1.00  0.00    -0.213 N
ATOM      7  H3  UNL     1      -3.423  74.140  22.520  1.00  0.00     0.207 HD
HETATM    8  N5  UNL     1      -1.837  72.095  20.800  1.00  0.00    -0.208 N
ATOM      9  H4  UNL     1      -3.372  71.644  22.130  1.00  0.00     0.210 HD
ATOM     10  H5  UNL     1      -1.599  71.163  20.459  1.00  0.00     0.210 HD
BRANCH   4  11
HETATM   11  N2  UNL     1      -1.603  75.452  21.052  1.00  0.00    -0.136 N
ATOM     12  H2  UNL     1      -0.715  75.813  21.400  1.00  0.00     0.205 HD
BRANCH  11  13
HETATM   13  N1  UNL     1      -2.549  76.322  20.528  1.00  0.00    -0.331 N
ATOM     14  H12 UNL     1      -2.293  77.297  20.375  1.00  0.00     0.177 HD
ATOM     15  H11 UNL     1      -3.483  75.981  20.303  1.00  0.00     0.177 HD
ENDBRANCH  11  13
ENDBRANCH   4  11
ENDBRANCH   2   3
BRANCH   2  16
HETATM   16  O1  UNL     1       0.994  72.670  19.925  1.00  0.00    -0.371 OA
ATOM     17  H1  UNL     1       1.525  73.241  20.467  1.00  0.00     0.212 HD
ENDBRANCH   2  16
ENDBRANCH   1   2
BRANCH   1  18
HETATM   18  O2  UNL     1      -0.599  75.306  18.291  1.00  0.00    -0.389 OA
ATOM     19  H2  UNL     1      -0.091  75.893  17.743  1.00  0.00     0.210 HD
ENDBRANCH   1  18
BRANCH   1  20
HETATM   20  C4  UNL     1       1.696  74.883  18.872  1.00  0.00     0.161 C
BRANCH  20  21
HETATM   21  O3  UNL     1       2.469  75.019  20.074  1.00  0.00    -0.392 OA
ATOM     22  H3  UNL     1       3.209  74.425  20.040  1.00  0.00     0.210 HD
ENDBRANCH  20  21
BRANCH  20  23
HETATM   23  C5  UNL     1       2.222  75.897  17.972  1.00  0.00     0.087 C
HETATM   24  C6  UNL     1       2.609  77.218  18.330  1.00  0.00     0.115 C
HETATM   25  N7  UNL     1       2.389  77.905  19.508  1.00  0.00    -0.354 N
HETATM   26  C9  UNL     1       4.139  77.148  18.305  1.00  0.00     0.121 C
HETATM   27  C7  UNL     1       3.424  78.894  19.564  1.00  0.00     0.219 C
ATOM     28  H7  UNL     1       1.649  77.742  20.191  1.00  0.00     0.162 HD
HETATM   29  O4  UNL     1       3.542  79.848  20.407  1.00  0.00    -0.274 OA
HETATM   30  C8  UNL     1       4.388  78.624  18.431  1.00  0.00     0.127 C
HETATM   31  N8  UNL     1       4.329  76.560  17.040  1.00  0.00    -0.163 NA
HETATM   32  C10 UNL     1       3.376  75.460  17.073  1.00  0.00     0.227 C
BRANCH  31  33
HETATM   33  O5  UNL     1       5.571  76.060  16.846  1.00  0.00    -0.310 OA
ATOM     34  H5  UNL     1       5.943  76.267  15.997  1.00  0.00     0.237 HD
ENDBRANCH  31  33
BRANCH  32  35
HETATM   35  O6  UNL     1       4.023  74.330  17.478  1.00  0.00    -0.379 OA
ATOM     36  H6  UNL     1       3.959  73.596  16.878  1.00  0.00     0.211 HD
ENDBRANCH  32  35
ENDBRANCH  20  23
ENDBRANCH   1  20
TORSDOF 11
ENDMDL