MODEL 3
REMARK VINA RESULT: -5.938849330      2.299      2.867
REMARK  9 active torsions:
REMARK  status: ('A' for Active; 'I' for Inactive)
REMARK    1  A    between atoms: N1_1  and  C1_5
REMARK    2  A    between atoms: C1_5  and  C2_6
REMARK    3  A    between atoms: C2_6  and  C3_7
REMARK       I    between atoms: C3_7  and  N2_9
REMARK    4  A    between atoms: C5_11  and  O2_12
REMARK    5  A    between atoms: C6_14  and  O3_15
REMARK    6  A    between atoms: C7_17  and  O4_18
REMARK    7  A    between atoms: O4_18  and  N3_19
REMARK    8  A    between atoms: N3_19  and  C8_21
REMARK    9  A    between atoms: C9_26  and  O5_27
ROOT
HETATM    1  C3  UNL     1       4.880  78.888  18.962  1.00  0.00     0.238 C
HETATM    2  O1  UNL     1       5.701  79.357  18.098  1.00  0.00    -0.272 OA
HETATM    3  N2  UNL     1       3.988  77.836  18.611  1.00  0.00    -0.246 N
HETATM    4  C4  UNL     1       4.093  77.374  17.263  1.00  0.00     0.183 C
HETATM    5  C5  UNL     1       4.143  75.871  17.137  1.00  0.00     0.170 C
HETATM    6  C6  UNL     1       2.848  75.210  17.546  1.00  0.00     0.197 C
HETATM    7  C7  UNL     1       2.607  75.313  19.031  1.00  0.00     0.293 C
HETATM    8  N7  UNL     1       2.115  76.647  19.298  1.00  0.00    -0.088 NA
HETATM    9  N8  UNL     1       3.169  77.451  19.670  1.00  0.00    -0.024 NA
ENDROOT
BRANCH   7  10
HETATM   10  O4  UNL     1       1.724  74.303  19.415  1.00  0.00    -0.252 OA
BRANCH  10  11
HETATM   11  N3  UNL     1       0.457  74.238  18.899  1.00  0.00    -0.243 N
ATOM     12  H3  UNL     1       0.245  74.579  17.962  1.00  0.00     0.196 HD
BRANCH  11  13
HETATM   13  C8  UNL     1      -0.471  73.715  19.666  1.00  0.00     0.209 A
HETATM   14  N4  UNL     1      -0.628  72.400  19.782  1.00  0.00    -0.277 N
HETATM   15  N5  UNL     1      -1.566  71.890  20.555  1.00  0.00    -0.263 N
ATOM     16  H4  UNL     1      -0.011  71.775  19.264  1.00  0.00     0.189 HD
HETATM   17  C9  UNL     1      -2.414  72.643  21.268  1.00  0.00     0.239 A
ATOM     18  H5  UNL     1      -1.649  70.875  20.614  1.00  0.00     0.190 HD
HETATM   19  N6  UNL     1      -2.265  73.985  21.158  1.00  0.00    -0.285 N
HETATM   20  C10 UNL     1      -1.325  74.545  20.383  1.00  0.00     0.295 A
ATOM     21  H6  UNL     1      -2.892  74.592  21.685  1.00  0.00     0.172 HD
HETATM   22  O6  UNL     1      -1.204  75.787  20.294  1.00  0.00    -0.264 OA
BRANCH  17  23
HETATM   23  O5  UNL     1      -3.363  72.037  22.051  1.00  0.00    -0.331 OA
ATOM     24  H5  UNL     1      -4.030  72.566  22.472  1.00  0.00     0.221 HD
ENDBRANCH  17  23
ENDBRANCH  11  13
ENDBRANCH  10  11
ENDBRANCH   7  10
BRANCH   6  25
HETATM   25  O3  UNL     1       1.813  75.786  16.849  1.00  0.00    -0.389 OA
ATOM     26  H3  UNL     1       1.154  76.085  17.465  1.00  0.00     0.210 HD
ENDBRANCH   6  25
BRANCH   5  27
HETATM   27  O2  UNL     1       5.238  75.335  17.802  1.00  0.00    -0.391 OA
ATOM     28  H2  UNL     1       5.021  74.518  18.236  1.00  0.00     0.210 HD
ENDBRANCH   5  27
BRANCH   1  29
HETATM   29  C2  UNL     1       4.903  79.485  20.322  1.00  0.00     0.131 C
BRANCH  29  30
HETATM   30  C1  UNL     1       6.292  79.909  20.698  1.00  0.00     0.239 C
BRANCH  30  31
HETATM   31  N1  UNL     1       6.430  81.314  20.313  1.00  0.00    -0.079 N
ATOM     32  H13 UNL     1       5.945  81.951  20.945  1.00  0.00     0.274 HD
ATOM     33  H12 UNL     1       7.372  81.678  20.458  1.00  0.00     0.274 HD
ATOM     34  H11 UNL     1       6.116  81.391  19.346  1.00  0.00     0.274 HD
ENDBRANCH  30  31
ENDBRANCH  29  30
ENDBRANCH   1  29
TORSDOF 9
ENDMDL