MODEL 1
REMARK VINA RESULT: -5.727144570      0.000      0.000
REMARK  7 active torsions:
REMARK  status: ('A' for Active; 'I' for Inactive)
REMARK    1  A    between atoms: C1_2  and  C2_4
REMARK    2  A    between atoms: N3_7  and  C4_8
REMARK    3  A    between atoms: C5_10  and  O3_11
REMARK    4  A    between atoms: C5_10  and  C6_13
REMARK    5  A    between atoms: C7_16  and  C8_17
REMARK    6  A    between atoms: C8_17  and  O5_18
REMARK    7  A    between atoms: C9_20  and  O6_21
ROOT
HETATM    1  C4  UNL     1       2.410  75.413  18.650  1.00  0.00     0.267 C
HETATM    2  O2  UNL     1       1.871  75.348  19.942  1.00  0.00    -0.319 OA
HETATM    3  C5  UNL     1       0.643  74.714  19.821  1.00  0.00     0.253 C
HETATM    4  C7  UNL     1       0.054  75.207  18.539  1.00  0.00     0.114 C
HETATM    5  C9  UNL     1       1.247  75.611  17.710  1.00  0.00     0.179 C
ENDROOT
BRANCH   1   6
HETATM    6  N3  UNL     1       3.401  76.442  18.540  1.00  0.00    -0.256 N
HETATM    7  C3  UNL     1       4.523  76.241  17.825  1.00  0.00     0.145 A
HETATM    8  C2  UNL     1       5.511  77.193  17.685  1.00  0.00     0.138 A
HETATM    9  N2  UNL     1       4.668  74.965  17.191  1.00  0.00    -0.081 NA
HETATM   10  C11 UNL     1       5.339  78.407  18.306  1.00  0.00     0.268 A
HETATM   11  N5  UNL     1       4.221  78.602  19.017  1.00  0.00    -0.274 N
HETATM   12  O8  UNL     1       6.225  79.321  18.207  1.00  0.00    -0.267 OA
HETATM   13  C10 UNL     1       3.271  77.642  19.132  1.00  0.00     0.332 A
ATOM     14  H5  UNL     1       4.080  79.497  19.485  1.00  0.00     0.173 HD
HETATM   15  O7  UNL     1       2.260  77.913  19.816  1.00  0.00    -0.246 OA
BRANCH   8  16
HETATM   16  C1  UNL     1       6.710  76.943  16.905  1.00  0.00     0.273 C
HETATM   17  N1  UNL     1       6.747  77.251  15.524  1.00  0.00    -0.057 NA
HETATM   18  O1  UNL     1       7.710  76.455  17.458  1.00  0.00    -0.271 OA
ENDBRANCH   8  16
ENDBRANCH   1   6
BRANCH   5  19
HETATM   19  O6  UNL     1       1.150  76.917  17.253  1.00  0.00    -0.391 OA
ATOM     20  H6  UNL     1       0.390  77.053  16.698  1.00  0.00     0.210 HD
ENDBRANCH   5  19
BRANCH   3  21
HETATM   21  O3  UNL     1       0.780  73.316  19.746  1.00  0.00    -0.358 OA
ATOM     22  H3  UNL     1       1.309  72.974  20.457  1.00  0.00     0.213 HD
ENDBRANCH   3  21
BRANCH   3  23
HETATM   23  C6  UNL     1      -0.199  75.007  21.008  1.00  0.00     0.294 C
HETATM   24  N4  UNL     1       0.168  76.010  21.975  1.00  0.00    -0.057 NA
HETATM   25  O4  UNL     1      -1.277  74.401  21.244  1.00  0.00    -0.271 OA
ENDBRANCH   3  23
BRANCH   4  26
HETATM   26  C8  UNL     1      -0.932  76.326  18.709  1.00  0.00     0.177 C
BRANCH  26  27
HETATM   27  O5  UNL     1      -1.651  76.419  17.501  1.00  0.00    -0.400 OA
ATOM     28  H5  UNL     1      -2.559  76.573  17.735  1.00  0.00     0.209 HD
ENDBRANCH  26  27
ENDBRANCH   4  26
TORSDOF 7
ENDMDL