MODEL 2
REMARK VINA RESULT: -4.933350407      1.052      1.367
REMARK  9 active torsions:
REMARK  status: ('A' for Active; 'I' for Inactive)
REMARK    1  A    between atoms: N1_1  and  N2_4
REMARK    2  A    between atoms: N2_4  and  C1_6
REMARK    3  A    between atoms: N5_15  and  C4_16
REMARK    4  A    between atoms: C5_18  and  C6_19
REMARK    5  A    between atoms: C6_19  and  O4_20
REMARK    6  A    between atoms: C6_19  and  C7_22
REMARK    7  A    between atoms: C7_22  and  O5_23
REMARK    8  A    between atoms: C9_26  and  O6_27
REMARK    9  A    between atoms: C9_26  and  C10_29
ROOT
HETATM    1  C4  UNL     1       2.317  76.600  17.722  1.00  0.00     0.296 C
HETATM    2  O3  UNL     1       1.725  77.234  18.853  1.00  0.00    -0.354 OA
HETATM    3  C5  UNL     1       0.444  76.685  18.881  1.00  0.00     0.158 C
HETATM    4  C8  UNL     1       0.102  76.200  17.510  1.00  0.00     0.088 C
HETATM    5  C9  UNL     1       1.294  76.834  16.720  1.00  0.00     0.193 C
ENDROOT
BRANCH   1   6
HETATM    6  N5  UNL     1       3.672  76.812  17.590  1.00  0.00    -0.100 N
HETATM    7  C1  UNL     1       4.347  77.961  17.505  1.00  0.00     0.709 A
HETATM    8  N3  UNL     1       5.683  78.027  17.379  1.00  0.00    -0.139 N
HETATM    9  C2  UNL     1       6.427  76.908  17.330  1.00  0.00     0.342 A
ATOM     10  H3  UNL     1       6.139  78.937  17.318  1.00  0.00     0.189 HD
HETATM   11  O1  UNL     1       7.671  77.010  17.212  1.00  0.00    -0.246 OA
HETATM   12  N4  UNL     1       5.790  75.748  17.413  1.00  0.00    -0.259 N
HETATM   13  C3  UNL     1       4.456  75.677  17.538  1.00  0.00     0.347 A
ATOM     14  H4  UNL     1       6.331  74.884  17.379  1.00  0.00     0.175 HD
HETATM   15  O2  UNL     1       3.952  74.527  17.608  1.00  0.00    -0.246 OA
BRANCH   7  16
HETATM   16  N2  UNL     1       3.699  79.038  17.547  1.00  0.00    -0.138 N
ATOM     17  H2  UNL     1       3.361  79.355  18.456  1.00  0.00     0.205 HD
BRANCH  16  18
HETATM   18  N1  UNL     1       3.412  79.821  16.441  1.00  0.00    -0.331 N
ATOM     19  H12 UNL     1       4.077  80.561  16.218  1.00  0.00     0.177 HD
ATOM     20  H11 UNL     1       2.589  79.702  15.850  1.00  0.00     0.177 HD
ENDBRANCH  16  18
ENDBRANCH   7  16
ENDBRANCH   1   6
BRANCH   5  21
HETATM   21  O6  UNL     1       0.801  78.134  16.578  1.00  0.00    -0.375 OA
ATOM     22  H6  UNL     1      -0.086  78.242  16.256  1.00  0.00     0.211 HD
ENDBRANCH   5  21
BRANCH   5  23
HETATM   23  C10 UNL     1       1.336  76.079  15.482  1.00  0.00     0.213 C
HETATM   24  O7  UNL     1       0.911  74.905  15.445  1.00  0.00    -0.646 OA
HETATM   25  O8  UNL     1       1.840  76.631  14.323  1.00  0.00    -0.646 OA
ENDBRANCH   5  23
BRANCH   3  26
HETATM   26  C6  UNL     1       0.400  75.630  19.940  1.00  0.00     0.170 C
BRANCH  26  27
HETATM   27  O4  UNL     1       1.460  75.784  20.803  1.00  0.00    -0.391 OA
ATOM     28  H4  UNL     1       1.629  74.969  21.262  1.00  0.00     0.210 HD
ENDBRANCH  26  27
BRANCH  26  29
HETATM   29  C7  UNL     1       0.458  74.278  19.230  1.00  0.00     0.198 C
BRANCH  29  30
HETATM   30  O5  UNL     1       1.666  73.644  19.511  1.00  0.00    -0.398 OA
ATOM     31  H5  UNL     1       1.880  73.031  18.817  1.00  0.00     0.209 HD
ENDBRANCH  29  30
ENDBRANCH  26  29
ENDBRANCH   3  26
TORSDOF 9
ENDMDL