MODEL 3
REMARK VINA RESULT: -5.370953565      3.109      5.436
REMARK  9 active torsions:
REMARK  status: ('A' for Active; 'I' for Inactive)
REMARK    1  A    between atoms: O1_2  and  N1_3
REMARK       I    between atoms: N1_3  and  C2_5
REMARK    2  A    between atoms: C2_5  and  C3_7
REMARK    3  A    between atoms: N2_9  and  C5_10
REMARK    4  A    between atoms: C6_12  and  C7_13
REMARK    5  A    between atoms: C7_13  and  O4_14
REMARK    6  A    between atoms: C8_19  and  O5_20
REMARK    7  A    between atoms: C9_22  and  O6_23
REMARK    8  A    between atoms: C9_22  and  O7_25
REMARK    9  A    between atoms: C11_31  and  N5_32
ROOT
HETATM    1  C3  UNL     1       2.602  75.763  17.038  1.00  0.00     0.093 A
HETATM    2  C4  UNL     1       2.099  75.885  15.765  1.00  0.00     0.119 A
HETATM    3  N2  UNL     1       0.810  76.024  15.475  1.00  0.00    -0.276 N
HETATM    4  C10 UNL     1      -0.047  76.041  16.519  1.00  0.00     0.330 A
HETATM    5  O8  UNL     1      -1.288  76.162  16.372  1.00  0.00    -0.246 OA
HETATM    6  N4  UNL     1       0.402  75.923  17.779  1.00  0.00    -0.294 N
ATOM      7  H4  UNL     1      -0.280  75.941  18.537  1.00  0.00     0.172 HD
HETATM    8  C11 UNL     1       1.706  75.785  18.097  1.00  0.00     0.120 A
ENDROOT
BRANCH   3   9
HETATM    9  C5  UNL     1       0.313  76.236  14.136  1.00  0.00     0.301 C
HETATM   10  O3  UNL     1       1.318  76.918  13.436  1.00  0.00    -0.326 OA
HETATM   11  C6  UNL     1       0.865  77.394  12.228  1.00  0.00     0.349 C
HETATM   12  N3  UNL     1      -0.109  76.518  11.642  1.00  0.00    -0.015 N
HETATM   13  C8  UNL     1       0.244  75.152  11.966  1.00  0.00     0.389 C
ATOM     14  H32 UNL     1      -1.063  76.751  11.921  1.00  0.00     0.283 HD
ATOM     15  H31 UNL     1      -0.216  76.667  10.639  1.00  0.00     0.283 HD
HETATM   16  C9  UNL     1      -0.104  74.970  13.451  1.00  0.00     0.258 C
BRANCH  11  17
HETATM   17  C7  UNL     1       2.053  77.602  11.316  1.00  0.00     0.225 C
BRANCH  17  18
HETATM   18  O4  UNL     1       2.831  76.458  11.162  1.00  0.00    -0.397 OA
ATOM     19  H4  UNL     1       2.551  75.912  10.437  1.00  0.00     0.209 HD
ENDBRANCH  17  18
ENDBRANCH  11  17
BRANCH  13  20
HETATM   20  O5  UNL     1      -0.540  74.315  11.158  1.00  0.00    -0.365 OA
ATOM     21  H5  UNL     1      -0.381  74.562  10.254  1.00  0.00     0.212 HD
ENDBRANCH  13  20
BRANCH  16  22
HETATM   22  O6  UNL     1       0.423  73.819  13.977  1.00  0.00    -0.359 OA
ATOM     23  H6  UNL     1       1.021  73.350  13.408  1.00  0.00     0.213 HD
ENDBRANCH  16  22
BRANCH  16  24
HETATM   24  O7  UNL     1      -1.520  74.951  13.471  1.00  0.00    -0.359 OA
ATOM     25  H7  UNL     1      -1.776  75.038  14.382  1.00  0.00     0.213 HD
ENDBRANCH  16  24
ENDBRANCH   3   9
BRANCH   1  26
HETATM   26  C2  UNL     1       4.030  75.690  17.283  1.00  0.00     0.280 C
HETATM   27  N1  UNL     1       4.835  76.831  17.240  1.00  0.00    -0.231 N
ATOM     28  H1  UNL     1       4.381  77.718  17.027  1.00  0.00     0.197 HD
HETATM   29  O2  UNL     1       4.521  74.565  17.527  1.00  0.00    -0.265 OA
BRANCH  27  30
HETATM   30  O1  UNL     1       6.176  76.852  17.459  1.00  0.00    -0.282 OA
HETATM   31  C1  UNL     1       6.777  77.177  16.250  1.00  0.00     0.237 C
ENDBRANCH  27  30
ENDBRANCH   1  26
BRANCH   8  32
HETATM   32  N5  UNL     1       2.114  75.667  19.296  1.00  0.00    -0.385 N
ATOM     33  H52 UNL     1       2.870  75.036  19.564  1.00  0.00     0.157 HD
ATOM     34  H51 UNL     1       1.695  76.217  20.045  1.00  0.00     0.157 HD
ENDBRANCH   8  32
TORSDOF 9
ENDMDL