MODEL 5
REMARK VINA RESULT: -5.211005599      1.702      2.399
REMARK  9 active torsions:
REMARK  status: ('A' for Active; 'I' for Inactive)
REMARK    1  A    between atoms: N1_1  and  C1_5
REMARK    2  A    between atoms: C1_5  and  C2_6
REMARK    3  A    between atoms: C1_5  and  C3_9
REMARK    4  A    between atoms: C3_9  and  O3_10
REMARK    5  A    between atoms: C4_12  and  O4_13
REMARK    6  A    between atoms: C5_15  and  N2_16
REMARK    7  A    between atoms: C10_26  and  C11_27
REMARK    8  A    between atoms: C11_27  and  O8_28
REMARK    9  A    between atoms: N4_30  and  N5_31
ROOT
HETATM    1  C3  UNL     1       2.296  76.684  18.638  1.00  0.00     0.218 C
HETATM    2  C4  UNL     1       1.662  75.542  19.399  1.00  0.00     0.227 C
HETATM    3  C5  UNL     1       0.356  75.232  18.668  1.00  0.00     0.268 C
HETATM    4  O7  UNL     1       0.739  74.678  17.460  1.00  0.00    -0.335 OA
HETATM    5  C10 UNL     1       1.408  75.564  16.663  1.00  0.00     0.267 C
HETATM    6  N4  UNL     1       1.983  76.703  17.266  1.00  0.00    -0.263 N
ENDROOT
BRANCH   1   7
HETATM    7  C1  UNL     1       3.813  76.482  18.756  1.00  0.00     0.342 C
BRANCH   7   8
HETATM    8  N1  UNL     1       4.457  77.778  19.018  1.00  0.00    -0.060 N
ATOM      9  H13 UNL     1       5.191  77.986  18.340  1.00  0.00     0.275 HD
ATOM     10  H12 UNL     1       3.840  78.563  18.810  1.00  0.00     0.275 HD
ATOM     11  H11 UNL     1       4.802  77.805  19.977  1.00  0.00     0.275 HD
ENDBRANCH   7   8
BRANCH   7  12
HETATM   12  C2  UNL     1       4.387  75.879  17.553  1.00  0.00     0.209 C
HETATM   13  O1  UNL     1       4.420  74.630  17.450  1.00  0.00    -0.646 OA
HETATM   14  O2  UNL     1       4.904  76.621  16.507  1.00  0.00    -0.646 OA
ENDBRANCH   7  12
ENDBRANCH   1   7
BRANCH   1  15
HETATM   15  O3  UNL     1       1.914  77.849  19.320  1.00  0.00    -0.365 OA
ATOM     16  H3  UNL     1       1.491  78.451  18.720  1.00  0.00     0.212 HD
ENDBRANCH   1  15
BRANCH   2  17
HETATM   17  O4  UNL     1       1.316  75.904  20.694  1.00  0.00    -0.386 OA
ATOM     18  H4  UNL     1       1.829  75.440  21.345  1.00  0.00     0.210 HD
ENDBRANCH   2  17
BRANCH   6  19
HETATM   19  N5  UNL     1       1.376  77.855  16.831  1.00  0.00    -0.342 N
ATOM     20  H52 UNL     1       1.953  78.673  17.027  1.00  0.00     0.176 HD
ATOM     21  H51 UNL     1       0.901  77.774  15.932  1.00  0.00     0.176 HD
ENDBRANCH   6  19
BRANCH   3  22
HETATM   22  N2  UNL     1      -0.479  74.347  19.445  1.00  0.00    -0.279 N
HETATM   23  C6  UNL     1      -0.301  73.002  19.451  1.00  0.00     0.104 A
HETATM   24  C7  UNL     1      -1.095  72.151  20.189  1.00  0.00     0.092 A
HETATM   25  C8  UNL     1      -2.113  72.691  20.953  1.00  0.00     0.250 A
HETATM   26  O5  UNL     1      -2.874  71.970  21.650  1.00  0.00    -0.268 OA
HETATM   27  N3  UNL     1      -2.265  74.032  20.926  1.00  0.00    -0.275 N
HETATM   28  C9  UNL     1      -1.476  74.843  20.197  1.00  0.00     0.331 A
ATOM     29  H3  UNL     1      -3.011  74.449  21.483  1.00  0.00     0.173 HD
HETATM   30  O6  UNL     1      -1.685  76.088  20.226  1.00  0.00    -0.246 OA
ENDBRANCH   3  22
BRANCH   5  31
HETATM   31  C11 UNL     1       0.592  75.925  15.410  1.00  0.00     0.219 C
BRANCH  31  32
HETATM   32  O8  UNL     1       1.496  76.197  14.370  1.00  0.00    -0.397 OA
ATOM     33  H8  UNL     1       1.385  75.529  13.705  1.00  0.00     0.209 HD
ENDBRANCH  31  32
ENDBRANCH   5  31
TORSDOF 9
ENDMDL