MODEL 1
REMARK VINA RESULT: -5.209575028      0.000      0.000
REMARK  10 active torsions:
REMARK  status: ('A' for Active; 'I' for Inactive)
REMARK    1  A    between atoms: N1_1  and  N2_4
REMARK       I    between atoms: N2_4  and  C1_6
REMARK    2  A    between atoms: C1_6  and  C2_8
REMARK    3  A    between atoms: C2_8  and  O2_9
REMARK    4  A    between atoms: C2_8  and  C3_11
REMARK    5  A    between atoms: C4_13  and  N3_14
REMARK    6  A    between atoms: C6_16  and  C7_17
REMARK    7  A    between atoms: C7_17  and  N4_18
REMARK    8  A    between atoms: C7_17  and  N5_22
REMARK    9  A    between atoms: C10_32  and  O6_33
REMARK   10  A    between atoms: C11_35  and  O7_36
ROOT
HETATM    1  C3  UNL     1       0.689  75.003  17.824  1.00  0.00     0.193 C
HETATM    2  O3  UNL     1       1.116  74.903  16.530  1.00  0.00    -0.352 OA
HETATM    3  C4  UNL     1       0.162  75.490  15.704  1.00  0.00     0.264 C
HETATM    4  C10 UNL     1      -0.498  76.574  16.486  1.00  0.00     0.198 C
HETATM    5  C11 UNL     1      -0.193  76.211  17.932  1.00  0.00     0.183 C
ENDROOT
BRANCH   3   6
HETATM    6  N3  UNL     1       0.817  75.903  14.500  1.00  0.00    -0.279 N
HETATM    7  C5  UNL     1       1.538  77.039  14.519  1.00  0.00     0.115 A
HETATM    8  C6  UNL     1       2.206  77.506  13.388  1.00  0.00     0.083 A
HETATM    9  C8  UNL     1       2.134  76.792  12.214  1.00  0.00     0.260 A
HETATM   10  O4  UNL     1       2.714  77.160  11.158  1.00  0.00    -0.267 OA
HETATM   11  N6  UNL     1       1.412  75.661  12.207  1.00  0.00    -0.275 N
HETATM   12  C9  UNL     1       0.788  75.255  13.323  1.00  0.00     0.331 A
ATOM     13  H6  UNL     1       1.338  75.109  11.353  1.00  0.00     0.173 HD
HETATM   14  O5  UNL     1       0.126  74.189  13.263  1.00  0.00    -0.246 OA
BRANCH   8  15
HETATM   15  C7  UNL     1       2.998  78.755  13.406  1.00  0.00     0.417 C
BRANCH  15  16
HETATM   16  N4  UNL     1       2.320  79.701  12.543  1.00  0.00    -0.046 N
ATOM     17  H43 UNL     1       2.888  79.997  11.748  1.00  0.00     0.277 HD
ATOM     18  H42 UNL     1       1.558  79.282  12.010  1.00  0.00     0.277 HD
ATOM     19  H41 UNL     1       2.017  80.478  13.130  1.00  0.00     0.277 HD
ENDBRANCH  15  16
BRANCH  15  20
HETATM   20  N5  UNL     1       4.360  78.545  12.956  1.00  0.00    -0.046 N
ATOM     21  H53 UNL     1       4.745  77.680  13.336  1.00  0.00     0.277 HD
ATOM     22  H52 UNL     1       4.390  78.312  11.964  1.00  0.00     0.277 HD
ATOM     23  H51 UNL     1       4.962  79.340  13.167  1.00  0.00     0.277 HD
ENDBRANCH  15  20
ENDBRANCH   8  15
ENDBRANCH   3   6
BRANCH   4  24
HETATM   24  O6  UNL     1      -1.909  76.534  16.384  1.00  0.00    -0.388 OA
ATOM     25  H6  UNL     1      -2.340  76.780  17.194  1.00  0.00     0.210 HD
ENDBRANCH   4  24
BRANCH   1  26
HETATM   26  C2  UNL     1       1.883  75.088  18.753  1.00  0.00     0.243 C
BRANCH  26  27
HETATM   27  C1  UNL     1       3.131  75.413  18.013  1.00  0.00     0.267 C
HETATM   28  N2  UNL     1       3.420  76.698  17.517  1.00  0.00    -0.274 N
ATOM     29  H2  UNL     1       2.753  77.457  17.662  1.00  0.00     0.189 HD
HETATM   30  O1  UNL     1       3.990  74.498  17.808  1.00  0.00    -0.269 OA
BRANCH  28  31
HETATM   31  N1  UNL     1       4.597  76.942  16.836  1.00  0.00    -0.343 N
ATOM     32  H12 UNL     1       5.476  76.628  17.249  1.00  0.00     0.176 HD
ATOM     33  H11 UNL     1       4.588  77.425  15.938  1.00  0.00     0.176 HD
ENDBRANCH  28  31
ENDBRANCH  26  27
BRANCH  26  34
HETATM   34  O2  UNL     1       2.053  73.896  19.422  1.00  0.00    -0.383 OA
ATOM     35  H2  UNL     1       2.250  74.077  20.334  1.00  0.00     0.210 HD
ENDBRANCH  26  34
ENDBRANCH   1  26
BRANCH   5  36
HETATM   36  O7  UNL     1       0.413  77.259  18.617  1.00  0.00    -0.390 OA
ATOM     37  H7  UNL     1       0.163  78.111  18.280  1.00  0.00     0.210 HD
ENDBRANCH   5  36
TORSDOF 10
ENDMDL