MODEL 2
REMARK VINA RESULT: -6.773876717      2.075      4.740
REMARK  17 active torsions:
REMARK  status: ('A' for Active; 'I' for Inactive)
REMARK    1  A    between atoms: C4_4  and  N1_5
REMARK    2  A    between atoms: N1_5  and  C5_7
REMARK    3  A    between atoms: C5_7  and  C6_8
REMARK    4  A    between atoms: C6_8  and  C7_9
REMARK    5  A    between atoms: C7_9  and  N2_10
REMARK    6  A    between atoms: N2_10  and  C8_13
REMARK    7  A    between atoms: C8_13  and  C9_14
REMARK    8  A    between atoms: C9_14  and  C10_15
REMARK    9  A    between atoms: C10_15  and  N3_16
REMARK   10  A    between atoms: N3_16  and  C11_19
REMARK   11  A    between atoms: C11_19  and  C12_20
REMARK   12  A    between atoms: C12_20  and  N4_21
REMARK   13  A    between atoms: N4_21  and  C13_24
REMARK   14  A    between atoms: C13_24  and  C14_25
REMARK   15  A    between atoms: C14_25  and  C15_26
REMARK   16  A    between atoms: C15_26  and  N5_27
REMARK   17  A    between atoms: N5_27  and  C16_29
ROOT
HETATM    1  N3  UNL     1       0.866  15.225  30.948  1.00  0.00    -0.073 N
ATOM      2  H31 UNL     1       1.667  15.611  30.450  1.00  0.00     0.277 HD
ATOM      3  H32 UNL     1       0.455  14.698  30.176  1.00  0.00     0.277 HD
ENDROOT
BRANCH   1   4
HETATM    4  C10 UNL     1      -0.039  16.277  31.449  1.00  0.00     0.234 C
BRANCH   4   5
HETATM    5  C9  UNL     1       0.150  17.439  30.510  1.00  0.00     0.055 C
BRANCH   5   6
HETATM    6  C8  UNL     1      -1.017  18.379  30.558  1.00  0.00     0.233 C
BRANCH   6   7
HETATM    7  N2  UNL     1      -2.126  17.896  29.779  1.00  0.00    -0.075 N
ATOM      8  H22 UNL     1      -2.871  18.591  29.735  1.00  0.00     0.277 HD
ATOM      9  H21 UNL     1      -2.622  17.153  30.272  1.00  0.00     0.277 HD
BRANCH   7  10
HETATM   10  C7  UNL     1      -1.737  17.467  28.451  1.00  0.00     0.234 C
BRANCH  10  11
HETATM   11  C6  UNL     1      -2.445  18.276  27.387  1.00  0.00     0.047 C
BRANCH  11  12
HETATM   12  C5  UNL     1      -3.579  19.030  28.033  1.00  0.00     0.121 C
BRANCH  12  13
HETATM   13  N1  UNL     1      -3.683  20.353  27.434  1.00  0.00    -0.390 N
ATOM     14  H1  UNL     1      -4.002  20.473  26.472  1.00  0.00     0.159 HD
BRANCH  13  15
HETATM   15  C4  UNL     1      -3.318  21.491  28.248  1.00  0.00     0.027 A
HETATM   16  C3  UNL     1      -2.915  21.312  29.548  1.00  0.00     0.029 A
HETATM   17  C2  UNL     1      -2.549  22.421  30.317  1.00  0.00     0.002 A
HETATM   18  C1  UNL     1      -2.573  23.690  29.836  1.00  0.00     0.000 A
HETATM   19  C22 UNL     1      -2.980  23.873  28.520  1.00  0.00     0.002 A
HETATM   20  C21 UNL     1      -3.344  22.758  27.758  1.00  0.00     0.029 A
ENDBRANCH  13  15
ENDBRANCH  12  13
ENDBRANCH  11  12
ENDBRANCH  10  11
ENDBRANCH   7  10
ENDBRANCH   6   7
ENDBRANCH   5   6
ENDBRANCH   4   5
ENDBRANCH   1   4
BRANCH   1  21
HETATM   21  C11 UNL     1       1.254  14.386  32.023  1.00  0.00     0.259 C
BRANCH  21  22
HETATM   22  C12 UNL     1       1.061  15.087  33.355  1.00  0.00     0.259 C
BRANCH  22  23
HETATM   23  N4  UNL     1       2.036  14.676  34.341  1.00  0.00    -0.073 N
ATOM     24  H42 UNL     1       1.603  14.108  35.069  1.00  0.00     0.277 HD
ATOM     25  H41 UNL     1       2.680  13.985  33.954  1.00  0.00     0.277 HD
BRANCH  23  26
HETATM   26  C13 UNL     1       2.745  15.780  34.903  1.00  0.00     0.234 C
BRANCH  26  27
HETATM   27  C14 UNL     1       2.786  16.934  33.914  1.00  0.00     0.046 C
BRANCH  27  28
HETATM   28  C15 UNL     1       4.239  17.105  33.471  1.00  0.00     0.115 C
BRANCH  28  29
HETATM   29  N5  UNL     1       4.606  16.039  32.603  1.00  0.00    -0.417 N
ATOM     30  H5  UNL     1       4.520  15.062  32.884  1.00  0.00     0.153 HD
BRANCH  29  31
HETATM   31  C16 UNL     1       5.097  16.410  31.318  1.00  0.00     0.076 C
HETATM   32  C17 UNL     1       4.044  16.721  30.280  1.00  0.00     0.024 C
HETATM   33  C18 UNL     1       4.960  17.132  29.111  1.00  0.00     0.002 C
HETATM   34  C19 UNL     1       5.942  18.066  29.796  1.00  0.00     0.002 C
HETATM   35  C20 UNL     1       5.916  17.664  31.275  1.00  0.00     0.024 C
ENDBRANCH  29  31
ENDBRANCH  28  29
ENDBRANCH  27  28
ENDBRANCH  26  27
ENDBRANCH  23  26
ENDBRANCH  22  23
ENDBRANCH  21  22
ENDBRANCH   1  21
TORSDOF 17
ENDMDL