MODEL 2
REMARK VINA RESULT: -7.472545132      1.162      1.552
REMARK  17 active torsions:
REMARK  status: ('A' for Active; 'I' for Inactive)
REMARK    1  A    between atoms: C4_5  and  C5_6
REMARK    2  A    between atoms: C5_6  and  N1_7
REMARK    3  A    between atoms: N1_7  and  C6_10
REMARK    4  A    between atoms: C6_10  and  C7_11
REMARK    5  A    between atoms: C7_11  and  C8_12
REMARK    6  A    between atoms: C8_12  and  C9_13
REMARK    7  A    between atoms: C9_13  and  N2_14
REMARK    8  A    between atoms: N2_14  and  C10_16
REMARK    9  A    between atoms: C10_16  and  C11_17
REMARK   10  A    between atoms: C11_17  and  C12_18
REMARK   11  A    between atoms: C12_18  and  C13_19
REMARK   12  A    between atoms: C13_19  and  N3_20
REMARK   13  A    between atoms: N3_20  and  C14_23
REMARK   14  A    between atoms: C14_23  and  C15_24
REMARK   15  A    between atoms: C15_24  and  C16_25
REMARK   16  A    between atoms: C16_25  and  N4_26
REMARK   17  A    between atoms: N4_26  and  C17_28
ROOT
HETATM    1  N2  UNL     1       0.664  17.388  30.124  1.00  0.00    -0.402 N
ATOM      2  H2  UNL     1       1.090  18.088  29.516  1.00  0.00     0.158 HD
ENDROOT
BRANCH   1   3
HETATM    3  C9  UNL     1       1.426  16.582  30.995  1.00  0.00     0.055 C
BRANCH   3   4
HETATM    4  C8  UNL     1       1.521  15.123  30.845  1.00  0.00     0.046 C
BRANCH   4   5
HETATM    5  C7  UNL     1       1.175  14.277  32.017  1.00  0.00     0.032 C
BRANCH   5   6
HETATM    6  C6  UNL     1       0.366  14.968  33.000  1.00  0.00     0.233 C
BRANCH   6   7
HETATM    7  N1  UNL     1       0.666  14.744  34.389  1.00  0.00    -0.071 N
ATOM      8  H12 UNL     1       0.515  13.770  34.651  1.00  0.00     0.277 HD
ATOM      9  H11 UNL     1      -0.027  15.180  34.996  1.00  0.00     0.277 HD
BRANCH   7  10
HETATM   10  C5  UNL     1       2.016  15.182  34.720  1.00  0.00     0.272 C
BRANCH  10  11
HETATM   11  C4  UNL     1       2.349  14.636  36.088  1.00  0.00    -0.017 A
HETATM   12  C3  UNL     1       3.525  15.085  36.719  1.00  0.00     0.015 A
HETATM   13  C2  UNL     1       3.773  14.721  38.018  1.00  0.00     0.075 A
HETATM   14  C1  UNL     1       2.851  13.910  38.660  1.00  0.00     0.245 A
HETATM   15  O1  UNL     1       3.131  13.606  39.844  1.00  0.00    -0.268 OA
HETATM   16  N5  UNL     1       1.726  13.466  38.078  1.00  0.00    -0.333 N
HETATM   17  C22 UNL     1       1.482  13.837  36.788  1.00  0.00     0.100 A
ATOM     18  H5  UNL     1       1.072  12.869  38.585  1.00  0.00     0.168 HD
ENDBRANCH  10  11
ENDBRANCH   7  10
ENDBRANCH   6   7
ENDBRANCH   5   6
ENDBRANCH   4   5
ENDBRANCH   3   4
ENDBRANCH   1   3
BRANCH   1  19
HETATM   19  C10 UNL     1      -0.731  17.162  30.152  1.00  0.00     0.118 C
BRANCH  19  20
HETATM   20  C11 UNL     1      -1.539  18.397  30.530  1.00  0.00     0.021 C
BRANCH  20  21
HETATM   21  C12 UNL     1      -2.741  18.398  29.617  1.00  0.00     0.029 C
BRANCH  21  22
HETATM   22  C13 UNL     1      -2.537  17.875  28.274  1.00  0.00     0.232 C
BRANCH  22  23
HETATM   23  N3  UNL     1      -2.739  18.672  27.121  1.00  0.00    -0.075 N
ATOM     24  H32 UNL     1      -1.871  19.045  26.736  1.00  0.00     0.277 HD
ATOM     25  H31 UNL     1      -3.023  18.131  26.304  1.00  0.00     0.277 HD
BRANCH  23  26
HETATM   26  C14 UNL     1      -3.717  19.730  27.487  1.00  0.00     0.237 C
BRANCH  26  27
HETATM   27  C15 UNL     1      -3.727  20.729  26.360  1.00  0.00     0.071 C
BRANCH  27  28
HETATM   28  C16 UNL     1      -3.685  22.166  26.861  1.00  0.00     0.057 C
BRANCH  28  29
HETATM   29  N4  UNL     1      -3.682  22.323  28.242  1.00  0.00    -0.398 N
ATOM     30  H4  UNL     1      -4.383  21.797  28.764  1.00  0.00     0.159 HD
BRANCH  29  31
HETATM   31  C17 UNL     1      -2.822  23.123  28.983  1.00  0.00     0.080 C
HETATM   32  C18 UNL     1      -3.414  24.555  29.133  1.00  0.00     0.025 C
HETATM   33  C19 UNL     1      -2.592  25.179  30.230  1.00  0.00     0.002 C
HETATM   34  C20 UNL     1      -1.920  24.071  30.967  1.00  0.00     0.002 C
HETATM   35  C21 UNL     1      -2.488  22.773  30.378  1.00  0.00     0.025 C
ENDBRANCH  29  31
ENDBRANCH  28  29
ENDBRANCH  27  28
ENDBRANCH  26  27
ENDBRANCH  23  26
ENDBRANCH  22  23
ENDBRANCH  21  22
ENDBRANCH  20  21
ENDBRANCH  19  20
ENDBRANCH   1  19
TORSDOF 17
ENDMDL