MODEL 5
REMARK VINA RESULT: -6.986978892      3.364      6.847
REMARK  17 active torsions:
REMARK  status: ('A' for Active; 'I' for Inactive)
REMARK    1  A    between atoms: C2_2  and  C3_6
REMARK    2  A    between atoms: C3_6  and  C4_7
REMARK    3  A    between atoms: C4_7  and  C5_9
REMARK    4  A    between atoms: C5_9  and  C6_10
REMARK    5  A    between atoms: C6_10  and  C7_11
REMARK       I    between atoms: C7_11  and  N2_13
REMARK    6  A    between atoms: N2_13  and  C8_15
REMARK    7  A    between atoms: C8_15  and  C9_16
REMARK    8  A    between atoms: C9_16  and  N3_17
REMARK    9  A    between atoms: N3_17  and  C10_20
REMARK   10  A    between atoms: C10_20  and  C11_21
REMARK   11  A    between atoms: C11_21  and  N4_22
REMARK   12  A    between atoms: N4_22  and  C12_25
REMARK   13  A    between atoms: C12_25  and  C13_26
REMARK   14  A    between atoms: C13_26  and  C14_27
REMARK   15  A    between atoms: C14_27  and  C15_28
REMARK   16  A    between atoms: C15_28  and  N5_29
REMARK   17  A    between atoms: N5_29  and  C16_31
ROOT
HETATM    1  N3  UNL     1      -3.714  19.037  27.942  1.00  0.00    -0.072 N
ATOM      2  H31 UNL     1      -4.051  19.391  28.837  1.00  0.00     0.277 HD
ATOM      3  H32 UNL     1      -4.604  18.801  27.504  1.00  0.00     0.277 HD
ENDROOT
BRANCH   1   4
HETATM    4  C9  UNL     1      -2.932  17.881  28.128  1.00  0.00     0.252 C
BRANCH   4   5
HETATM    5  C8  UNL     1      -1.476  18.139  28.087  1.00  0.00     0.150 C
BRANCH   5   6
HETATM    6  N2  UNL     1      -0.757  17.650  29.217  1.00  0.00    -0.359 N
HETATM    7  C7  UNL     1      -0.810  18.165  30.509  1.00  0.00     0.217 C
HETATM    8  O2  UNL     1      -1.446  19.124  30.946  1.00  0.00    -0.274 OA
ATOM      9  H2  UNL     1      -0.147  16.848  29.064  1.00  0.00     0.162 HD
BRANCH   7  10
HETATM   10  C6  UNL     1       0.045  17.432  31.534  1.00  0.00     0.110 C
BRANCH  10  11
HETATM   11  C5  UNL     1       0.243  16.034  31.044  1.00  0.00     0.088 C
BRANCH  11  12
HETATM   12  C4  UNL     1       0.856  15.156  32.075  1.00  0.00     0.132 C
HETATM   13  O1  UNL     1       1.674  14.324  31.712  1.00  0.00    -0.298 OA
BRANCH  12  14
HETATM   14  C3  UNL     1       0.451  15.329  33.494  1.00  0.00     0.129 C
BRANCH  14  15
HETATM   15  C2  UNL     1       1.726  15.453  34.277  1.00  0.00    -0.017 C
HETATM   16  C1  UNL     1       2.380  16.770  34.401  1.00  0.00     0.063 C
HETATM   17  N1  UNL     1       2.206  14.395  34.820  1.00  0.00    -0.406 N
ATOM     18  H12 UNL     1       3.073  14.479  35.353  1.00  0.00     0.155 HD
ATOM     19  H11 UNL     1       1.754  13.484  34.735  1.00  0.00     0.155 HD
ENDBRANCH  14  15
ENDBRANCH  12  14
ENDBRANCH  11  12
ENDBRANCH  10  11
ENDBRANCH   7  10
ENDBRANCH   5   6
ENDBRANCH   4   5
ENDBRANCH   1   4
BRANCH   1  20
HETATM   20  C10 UNL     1      -3.041  20.090  27.198  1.00  0.00     0.259 C
BRANCH  20  21
HETATM   21  C11 UNL     1      -4.132  20.940  26.598  1.00  0.00     0.259 C
BRANCH  21  22
HETATM   22  N4  UNL     1      -3.887  22.315  26.877  1.00  0.00    -0.074 N
ATOM     23  H42 UNL     1      -3.768  22.849  26.016  1.00  0.00     0.277 HD
ATOM     24  H41 UNL     1      -4.726  22.771  27.238  1.00  0.00     0.277 HD
BRANCH  22  25
HETATM   25  C12 UNL     1      -2.779  22.506  27.758  1.00  0.00     0.232 C
BRANCH  25  26
HETATM   26  C13 UNL     1      -3.230  23.316  28.944  1.00  0.00     0.029 C
BRANCH  26  27
HETATM   27  C14 UNL     1      -3.224  24.778  28.584  1.00  0.00     0.021 C
BRANCH  27  28
HETATM   28  C15 UNL     1      -2.704  25.576  29.750  1.00  0.00     0.120 C
BRANCH  28  29
HETATM   29  N5  UNL     1      -1.336  25.184  30.000  1.00  0.00    -0.390 N
ATOM     30  H5  UNL     1      -0.707  25.056  29.209  1.00  0.00     0.159 HD
BRANCH  29  31
HETATM   31  C16 UNL     1      -0.844  24.973  31.306  1.00  0.00     0.027 A
HETATM   32  C17 UNL     1       0.491  25.251  31.623  1.00  0.00     0.029 A
HETATM   33  C18 UNL     1       0.960  25.057  32.907  1.00  0.00     0.002 A
HETATM   34  C19 UNL     1       0.155  24.588  33.924  1.00  0.00     0.000 A
HETATM   35  C20 UNL     1      -1.161  24.311  33.620  1.00  0.00     0.002 A
HETATM   36  C21 UNL     1      -1.638  24.508  32.320  1.00  0.00     0.029 A
ENDBRANCH  29  31
ENDBRANCH  28  29
ENDBRANCH  27  28
ENDBRANCH  26  27
ENDBRANCH  25  26
ENDBRANCH  22  25
ENDBRANCH  21  22
ENDBRANCH  20  21
ENDBRANCH   1  20
TORSDOF 17
ENDMDL