MODEL 1
REMARK VINA RESULT: -7.615563613      0.000      0.000
REMARK  17 active torsions:
REMARK  status: ('A' for Active; 'I' for Inactive)
REMARK    1  A    between atoms: C4_4  and  C5_5
REMARK    2  A    between atoms: C5_5  and  N1_6
REMARK    3  A    between atoms: N1_6  and  C6_9
REMARK    4  A    between atoms: C6_9  and  C7_10
REMARK    5  A    between atoms: C7_10  and  C8_11
REMARK    6  A    between atoms: C8_11  and  C9_12
REMARK    7  A    between atoms: C9_12  and  N2_13
REMARK    8  A    between atoms: N2_13  and  C10_15
REMARK    9  A    between atoms: C10_15  and  C11_16
REMARK   10  A    between atoms: C11_16  and  C12_17
REMARK   11  A    between atoms: C12_17  and  C13_18
REMARK   12  A    between atoms: C13_18  and  N3_19
REMARK   13  A    between atoms: N3_19  and  C14_21
REMARK   14  A    between atoms: C14_21  and  C15_22
REMARK   15  A    between atoms: C15_22  and  N4_23
REMARK   16  A    between atoms: N4_23  and  C16_26
REMARK   17  A    between atoms: C16_26  and  C17_27
ROOT
HETATM    1  C11 UNL     1      -1.400  18.537  30.739  1.00  0.00     0.021 C
ENDROOT
BRANCH   1   2
HETATM    2  C10 UNL     1      -2.154  19.432  29.805  1.00  0.00     0.113 C
BRANCH   2   3
HETATM    3  N2  UNL     1      -3.491  18.980  29.620  1.00  0.00    -0.421 N
ATOM      4  H2  UNL     1      -4.096  18.757  30.411  1.00  0.00     0.153 HD
BRANCH   3   5
HETATM    5  C9  UNL     1      -3.944  18.852  28.272  1.00  0.00     0.113 C
BRANCH   5   6
HETATM    6  C8  UNL     1      -2.718  19.204  27.398  1.00  0.00     0.021 C
BRANCH   6   7
HETATM    7  C7  UNL     1      -3.267  20.042  26.260  1.00  0.00     0.029 C
BRANCH   7   8
HETATM    8  C6  UNL     1      -4.317  21.012  26.676  1.00  0.00     0.232 C
BRANCH   8   9
HETATM    9  N1  UNL     1      -3.827  22.357  26.900  1.00  0.00    -0.071 N
ATOM     10  H12 UNL     1      -4.402  23.067  26.447  1.00  0.00     0.277 HD
ATOM     11  H11 UNL     1      -2.957  22.547  26.402  1.00  0.00     0.277 HD
BRANCH   9  12
HETATM   12  C5  UNL     1      -3.709  22.559  28.326  1.00  0.00     0.270 C
BRANCH  12  13
HETATM   13  C4  UNL     1      -2.781  23.646  28.668  1.00  0.00    -0.033 A
HETATM   14  C3  UNL     1      -3.286  24.822  29.174  1.00  0.00     0.009 A
HETATM   15  C2  UNL     1      -2.450  25.890  29.509  1.00  0.00     0.001 A
HETATM   16  C1  UNL     1      -1.097  25.725  29.315  1.00  0.00     0.000 A
HETATM   17  C23 UNL     1      -0.579  24.561  28.812  1.00  0.00     0.001 A
HETATM   18  C22 UNL     1      -1.431  23.510  28.486  1.00  0.00     0.009 A
ENDBRANCH  12  13
ENDBRANCH   9  12
ENDBRANCH   8   9
ENDBRANCH   7   8
ENDBRANCH   6   7
ENDBRANCH   5   6
ENDBRANCH   3   5
ENDBRANCH   2   3
ENDBRANCH   1   2
BRANCH   1  19
HETATM   19  C12 UNL     1      -0.944  17.239  30.061  1.00  0.00     0.021 C
BRANCH  19  20
HETATM   20  C13 UNL     1       0.323  16.830  30.751  1.00  0.00     0.113 C
BRANCH  20  21
HETATM   21  N3  UNL     1       0.434  15.459  31.096  1.00  0.00    -0.420 N
ATOM     22  H3  UNL     1      -0.389  14.879  31.259  1.00  0.00     0.153 HD
BRANCH  21  23
HETATM   23  C14 UNL     1       1.764  14.930  31.203  1.00  0.00     0.141 C
BRANCH  23  24
HETATM   24  C15 UNL     1       2.759  16.010  31.555  1.00  0.00     0.251 C
BRANCH  24  25
HETATM   25  N4  UNL     1       3.308  15.877  32.875  1.00  0.00    -0.070 N
ATOM     26  H42 UNL     1       3.483  14.904  33.126  1.00  0.00     0.277 HD
ATOM     27  H41 UNL     1       4.269  16.214  32.932  1.00  0.00     0.277 HD
BRANCH  25  28
HETATM   28  C16 UNL     1       2.434  16.541  33.820  1.00  0.00     0.272 C
BRANCH  28  29
HETATM   29  C17 UNL     1       2.056  15.592  34.924  1.00  0.00    -0.017 A
HETATM   30  C18 UNL     1       3.024  15.190  35.812  1.00  0.00     0.011 A
HETATM   31  C19 UNL     1       2.675  14.326  36.807  1.00  0.00     0.018 A
HETATM   32  C20 UNL     1       1.377  13.879  36.901  1.00  0.00     0.087 A
HETATM   33  N5  UNL     1       0.441  14.268  36.041  1.00  0.00    -0.375 N
HETATM   34  C21 UNL     1       0.785  15.121  35.061  1.00  0.00     0.096 A
ATOM     35  H5  UNL     1      -0.517  13.928  36.125  1.00  0.00     0.164 HD
ENDBRANCH  28  29
ENDBRANCH  25  28
ENDBRANCH  24  25
ENDBRANCH  23  24
ENDBRANCH  21  23
ENDBRANCH  20  21
ENDBRANCH  19  20
ENDBRANCH   1  19
TORSDOF 17
ENDMDL