MODEL 3
REMARK VINA RESULT: -6.566536817      2.811      9.743
REMARK  18 active torsions:
REMARK  status: ('A' for Active; 'I' for Inactive)
REMARK    1  A    between atoms: C2_2  and  C4_4
REMARK    2  A    between atoms: C4_4  and  S1_5
REMARK    3  A    between atoms: S1_5  and  C5_6
REMARK    4  A    between atoms: C5_6  and  C6_7
REMARK    5  A    between atoms: C6_7  and  C7_8
REMARK    6  A    between atoms: C7_8  and  N2_12
REMARK    7  A    between atoms: N2_12  and  C8_14
REMARK    8  A    between atoms: C8_14  and  C9_15
REMARK    9  A    between atoms: C9_15  and  C10_16
REMARK   10  A    between atoms: C10_16  and  C11_17
REMARK   11  A    between atoms: C11_17  and  N3_18
REMARK   12  A    between atoms: N3_18  and  C12_21
REMARK   13  A    between atoms: C12_21  and  C13_22
REMARK   14  A    between atoms: C13_22  and  C14_23
REMARK   15  A    between atoms: C14_23  and  N4_24
REMARK   16  A    between atoms: N4_24  and  C15_27
REMARK   17  A    between atoms: C15_27  and  C16_28
REMARK   18  A    between atoms: C16_28  and  C17_29
ROOT
HETATM    1  N3  UNL     1       0.529  17.431  30.674  1.00  0.00    -0.075 N
ATOM      2  H31 UNL     1       1.427  17.913  30.721  1.00  0.00     0.277 HD
ATOM      3  H32 UNL     1       0.873  16.484  30.515  1.00  0.00     0.277 HD
ENDROOT
BRANCH   1   4
HETATM    4  C11 UNL     1      -0.286  17.908  29.554  1.00  0.00     0.236 C
BRANCH   4   5
HETATM    5  C10 UNL     1      -1.624  17.291  29.535  1.00  0.00     0.056 C
BRANCH   5   6
HETATM    6  C9  UNL     1      -2.524  17.500  28.416  1.00  0.00    -0.008 C
BRANCH   6   7
HETATM    7  C8  UNL     1      -3.250  18.713  28.090  1.00  0.00     0.085 C
BRANCH   7   8
HETATM    8  N2  UNL     1      -3.133  19.477  26.931  1.00  0.00    -0.356 N
ATOM      9  H2  UNL     1      -2.746  18.955  26.144  1.00  0.00     0.166 HD
BRANCH   8  10
HETATM   10  C7  UNL     1      -3.433  20.812  26.614  1.00  0.00     0.075 C
HETATM   11  N1  UNL     1      -3.858  21.069  25.386  1.00  0.00    -0.389 N
ATOM     12  H12 UNL     1      -4.075  22.038  25.155  1.00  0.00     0.157 HD
ATOM     13  H11 UNL     1      -3.913  20.270  24.754  1.00  0.00     0.157 HD
BRANCH  10  14
HETATM   14  C6  UNL     1      -3.354  21.958  27.519  1.00  0.00     0.086 C
BRANCH  14  15
HETATM   15  C5  UNL     1      -2.096  22.135  28.299  1.00  0.00     0.081 C
BRANCH  15  16
HETATM   16  S1  UNL     1      -2.552  22.276  30.041  1.00  0.00    -0.164 SA
BRANCH  16  17
HETATM   17  C4  UNL     1      -2.148  23.899  30.687  1.00  0.00     0.106 C
BRANCH  17  18
HETATM   18  C2  UNL     1      -2.048  24.902  29.634  1.00  0.00    -0.084 C
HETATM   19  C1  UNL     1      -0.854  25.349  29.275  1.00  0.00     0.014 C
HETATM   20  C3  UNL     1      -3.213  25.431  28.912  1.00  0.00     0.043 C
ENDBRANCH  17  18
ENDBRANCH  16  17
ENDBRANCH  15  16
ENDBRANCH  14  15
ENDBRANCH  10  14
ENDBRANCH   8  10
ENDBRANCH   7   8
ENDBRANCH   6   7
ENDBRANCH   5   6
ENDBRANCH   4   5
ENDBRANCH   1   4
BRANCH   1  21
HETATM   21  C12 UNL     1      -0.204  17.535  31.924  1.00  0.00     0.233 C
BRANCH  21  22
HETATM   22  C13 UNL     1       0.493  16.673  32.949  1.00  0.00     0.055 C
BRANCH  22  23
HETATM   23  C14 UNL     1       0.934  15.364  32.385  1.00  0.00     0.233 C
BRANCH  23  24
HETATM   24  N4  UNL     1       1.644  14.593  33.381  1.00  0.00    -0.075 N
ATOM     25  H42 UNL     1       1.176  13.707  33.569  1.00  0.00     0.277 HD
ATOM     26  H41 UNL     1       2.525  14.233  33.014  1.00  0.00     0.277 HD
BRANCH  24  27
HETATM   27  C15 UNL     1       1.850  15.345  34.595  1.00  0.00     0.234 C
BRANCH  27  28
HETATM   28  C16 UNL     1       2.324  14.422  35.724  1.00  0.00     0.060 C
BRANCH  28  29
HETATM   29  C17 UNL     1       1.324  14.377  36.847  1.00  0.00     0.187 C
HETATM   30  C18 UNL     1       1.171  15.730  37.514  1.00  0.00     0.034 C
HETATM   31  C19 UNL     1       0.796  15.315  38.928  1.00  0.00     0.029 C
HETATM   32  C20 UNL     1       1.597  14.068  39.140  1.00  0.00     0.233 C
HETATM   33  N5  UNL     1       1.795  13.481  37.858  1.00  0.00    -0.071 N
ATOM     34  H52 UNL     1       1.367  12.558  37.785  1.00  0.00     0.277 HD
ATOM     35  H51 UNL     1       2.765  13.204  37.706  1.00  0.00     0.277 HD
ENDBRANCH  28  29
ENDBRANCH  27  28
ENDBRANCH  24  27
ENDBRANCH  23  24
ENDBRANCH  22  23
ENDBRANCH  21  22
ENDBRANCH   1  21
TORSDOF 18
ENDMDL