MODEL 2
REMARK VINA RESULT: -7.404276765      1.343      1.791
REMARK  16 active torsions:
REMARK  status: ('A' for Active; 'I' for Inactive)
REMARK    1  A    between atoms: C4_4  and  N1_5
REMARK    2  A    between atoms: N1_5  and  C5_7
REMARK    3  A    between atoms: C6_8  and  N2_9
REMARK    4  A    between atoms: N2_9  and  C7_11
REMARK    5  A    between atoms: C7_11  and  C8_12
REMARK    6  A    between atoms: C8_12  and  C9_13
REMARK    7  A    between atoms: C9_13  and  N3_14
REMARK    8  A    between atoms: N3_14  and  C10_17
REMARK    9  A    between atoms: C10_17  and  C11_18
REMARK   10  A    between atoms: C11_18  and  C12_19
REMARK   11  A    between atoms: C12_19  and  C13_20
REMARK   12  A    between atoms: C13_20  and  N4_21
REMARK   13  A    between atoms: N4_21  and  C14_24
REMARK   14  A    between atoms: C14_24  and  C15_25
REMARK   15  A    between atoms: C15_25  and  N5_26
REMARK   16  A    between atoms: N5_26  and  C16_28
ROOT
HETATM    1  N3  UNL     1      -0.247  18.001  31.189  1.00  0.00    -0.075 N
ATOM      2  H31 UNL     1      -1.145  18.346  31.527  1.00  0.00     0.277 HD
ATOM      3  H32 UNL     1       0.331  18.814  31.403  1.00  0.00     0.277 HD
ENDROOT
BRANCH   1   4
HETATM    4  C9  UNL     1      -0.288  17.752  29.763  1.00  0.00     0.234 C
BRANCH   4   5
HETATM    5  C8  UNL     1      -1.786  17.657  29.336  1.00  0.00     0.047 C
BRANCH   5   6
HETATM    6  C7  UNL     1      -2.364  18.918  29.975  1.00  0.00     0.120 C
BRANCH   6   7
HETATM    7  N2  UNL     1      -3.686  19.133  29.512  1.00  0.00    -0.398 N
ATOM      8  H2  UNL     1      -4.479  19.331  30.121  1.00  0.00     0.158 HD
BRANCH   7   9
HETATM    9  C6  UNL     1      -3.774  19.041  28.111  1.00  0.00     0.100 C
HETATM   10  C5  UNL     1      -3.370  20.059  27.179  1.00  0.00     0.104 C
BRANCH  10  11
HETATM   11  N1  UNL     1      -3.901  21.354  27.073  1.00  0.00    -0.371 N
ATOM     12  H1  UNL     1      -4.765  21.551  26.568  1.00  0.00     0.164 HD
BRANCH  11  13
HETATM   13  C4  UNL     1      -3.146  22.374  27.724  1.00  0.00    -0.014 C
HETATM   14  C3  UNL     1      -3.690  22.859  29.027  1.00  0.00     0.052 C
HETATM   15  C2  UNL     1      -3.117  24.233  29.318  1.00  0.00     0.006 C
HETATM   16  C1  UNL     1      -1.629  24.148  29.334  1.00  0.00     0.001 C
HETATM   17  C22 UNL     1      -1.024  23.540  28.104  1.00  0.00     0.006 C
HETATM   18  C21 UNL     1      -1.671  22.206  27.756  1.00  0.00     0.052 C
ENDBRANCH  11  13
ENDBRANCH  10  11
ENDBRANCH   7   9
ENDBRANCH   6   7
ENDBRANCH   5   6
ENDBRANCH   4   5
ENDBRANCH   1   4
BRANCH   1  19
HETATM   19  C10 UNL     1       0.172  16.872  31.923  1.00  0.00     0.232 C
BRANCH  19  20
HETATM   20  C11 UNL     1       0.433  15.621  31.214  1.00  0.00     0.029 C
BRANCH  20  21
HETATM   21  C12 UNL     1       1.267  14.640  31.964  1.00  0.00     0.029 C
BRANCH  21  22
HETATM   22  C13 UNL     1       1.975  15.341  33.126  1.00  0.00     0.232 C
BRANCH  22  23
HETATM   23  N4  UNL     1       1.766  14.601  34.340  1.00  0.00    -0.074 N
ATOM     24  H42 UNL     1       1.708  13.598  34.163  1.00  0.00     0.277 HD
ATOM     25  H41 UNL     1       2.598  14.606  34.930  1.00  0.00     0.277 HD
BRANCH  23  26
HETATM   26  C14 UNL     1       0.578  15.094  35.068  1.00  0.00     0.251 C
BRANCH  26  27
HETATM   27  C15 UNL     1       1.033  15.368  36.515  1.00  0.00     0.141 C
BRANCH  27  28
HETATM   28  N5  UNL     1       0.671  14.238  37.276  1.00  0.00    -0.415 N
ATOM     29  H5  UNL     1      -0.215  13.749  37.143  1.00  0.00     0.153 HD
BRANCH  28  30
HETATM   30  C16 UNL     1       1.617  13.833  38.229  1.00  0.00     0.076 C
HETATM   31  C17 UNL     1       1.470  14.347  39.620  1.00  0.00     0.024 C
HETATM   32  C18 UNL     1       2.877  14.333  40.195  1.00  0.00     0.002 C
HETATM   33  C19 UNL     1       3.822  14.122  39.047  1.00  0.00     0.002 C
HETATM   34  C20 UNL     1       3.006  14.387  37.816  1.00  0.00     0.024 C
ENDBRANCH  28  30
ENDBRANCH  27  28
ENDBRANCH  26  27
ENDBRANCH  23  26
ENDBRANCH  22  23
ENDBRANCH  21  22
ENDBRANCH  20  21
ENDBRANCH  19  20
ENDBRANCH   1  19
TORSDOF 16
ENDMDL