MODEL 5
REMARK VINA RESULT: -6.975739067      1.688      9.565
REMARK  17 active torsions:
REMARK  status: ('A' for Active; 'I' for Inactive)
REMARK    1  A    between atoms: C4_4  and  N1_5
REMARK    2  A    between atoms: N1_5  and  C5_8
REMARK    3  A    between atoms: C5_8  and  C6_9
REMARK    4  A    between atoms: C6_9  and  N2_10
REMARK    5  A    between atoms: N2_10  and  C7_13
REMARK    6  A    between atoms: C7_13  and  C8_14
REMARK    7  A    between atoms: C8_14  and  C9_15
REMARK    8  A    between atoms: C9_15  and  C10_16
REMARK    9  A    between atoms: C10_16  and  N3_17
REMARK   10  A    between atoms: N3_17  and  C11_19
REMARK   11  A    between atoms: C11_19  and  C12_20
REMARK   12  A    between atoms: C12_20  and  C13_21
REMARK   13  A    between atoms: C13_21  and  C14_22
REMARK   14  A    between atoms: C14_22  and  N4_23
REMARK   15  A    between atoms: N4_23  and  C15_26
REMARK   16  A    between atoms: C15_26  and  C16_27
REMARK   17  A    between atoms: C16_27  and  C17_28
ROOT
HETATM    1  C10 UNL     1      -1.748  19.194  30.431  1.00  0.00     0.060 C
ENDROOT
BRANCH   1   2
HETATM    2  C9  UNL     1      -0.814  18.270  31.134  1.00  0.00     0.046 C
BRANCH   2   3
HETATM    3  C8  UNL     1       0.168  17.555  30.274  1.00  0.00     0.032 C
BRANCH   3   4
HETATM    4  C7  UNL     1       0.052  16.055  30.577  1.00  0.00     0.232 C
BRANCH   4   5
HETATM    5  N2  UNL     1       1.353  15.498  30.818  1.00  0.00    -0.074 N
ATOM      6  H22 UNL     1       1.982  16.182  31.240  1.00  0.00     0.277 HD
ATOM      7  H21 UNL     1       1.860  15.338  29.947  1.00  0.00     0.277 HD
BRANCH   5   8
HETATM    8  C6  UNL     1       1.269  14.300  31.607  1.00  0.00     0.259 C
BRANCH   8   9
HETATM    9  C5  UNL     1       0.234  14.413  32.741  1.00  0.00     0.260 C
BRANCH   9  10
HETATM   10  N1  UNL     1       0.929  14.558  33.976  1.00  0.00    -0.069 N
ATOM     11  H12 UNL     1       1.933  14.633  33.812  1.00  0.00     0.277 HD
ATOM     12  H11 UNL     1       0.903  13.685  34.503  1.00  0.00     0.277 HD
BRANCH  10  13
HETATM   13  C4  UNL     1       0.481  15.632  34.783  1.00  0.00     0.186 C
HETATM   14  C3  UNL     1       0.803  16.952  34.111  1.00  0.00     0.033 C
HETATM   15  C2  UNL     1       2.265  17.205  34.031  1.00  0.00     0.002 C
HETATM   16  C1  UNL     1       3.136  16.411  34.934  1.00  0.00     0.000 C
HETATM   17  C22 UNL     1       2.524  15.940  36.207  1.00  0.00     0.002 C
HETATM   18  C21 UNL     1       1.071  15.614  36.152  1.00  0.00     0.033 C
ENDBRANCH  10  13
ENDBRANCH   9  10
ENDBRANCH   8   9
ENDBRANCH   5   8
ENDBRANCH   4   5
ENDBRANCH   3   4
ENDBRANCH   2   3
ENDBRANCH   1   2
BRANCH   1  19
HETATM   19  N3  UNL     1      -3.020  18.717  30.119  1.00  0.00    -0.382 N
ATOM     20  H3  UNL     1      -3.754  18.804  30.823  1.00  0.00     0.163 HD
BRANCH  19  21
HETATM   21  C11 UNL     1      -3.342  18.131  28.908  1.00  0.00     0.060 C
BRANCH  21  22
HETATM   22  C12 UNL     1      -3.990  18.923  27.843  1.00  0.00     0.046 C
BRANCH  22  23
HETATM   23  C13 UNL     1      -3.170  19.938  27.141  1.00  0.00     0.032 C
BRANCH  23  24
HETATM   24  C14 UNL     1      -3.930  20.835  26.217  1.00  0.00     0.232 C
BRANCH  24  25
HETATM   25  N4  UNL     1      -3.905  22.227  26.604  1.00  0.00    -0.075 N
ATOM     26  H42 UNL     1      -3.236  22.751  26.040  1.00  0.00     0.277 HD
ATOM     27  H41 UNL     1      -4.765  22.700  26.323  1.00  0.00     0.277 HD
BRANCH  25  28
HETATM   28  C15 UNL     1      -3.649  22.412  28.019  1.00  0.00     0.234 C
BRANCH  28  29
HETATM   29  C16 UNL     1      -2.930  23.707  28.295  1.00  0.00     0.060 C
BRANCH  29  30
HETATM   30  C17 UNL     1      -1.768  23.467  29.201  1.00  0.00     0.187 C
HETATM   31  C18 UNL     1      -0.926  24.697  29.320  1.00  0.00     0.034 C
HETATM   32  C19 UNL     1      -0.842  24.925  30.820  1.00  0.00     0.029 C
HETATM   33  C20 UNL     1      -2.122  24.267  31.338  1.00  0.00     0.233 C
HETATM   34  N5  UNL     1      -2.209  23.085  30.529  1.00  0.00    -0.071 N
ATOM     35  H52 UNL     1      -3.133  22.654  30.540  1.00  0.00     0.277 HD
ATOM     36  H51 UNL     1      -1.695  22.292  30.913  1.00  0.00     0.277 HD
ENDBRANCH  29  30
ENDBRANCH  28  29
ENDBRANCH  25  28
ENDBRANCH  24  25
ENDBRANCH  23  24
ENDBRANCH  22  23
ENDBRANCH  21  22
ENDBRANCH  19  21
ENDBRANCH   1  19
TORSDOF 17
ENDMDL