MODEL 3
REMARK VINA RESULT: -7.444518344      1.145      1.524
REMARK  17 active torsions:
REMARK  status: ('A' for Active; 'I' for Inactive)
REMARK    1  A    between atoms: C5_5  and  C6_6
REMARK    2  A    between atoms: C6_6  and  N1_7
REMARK    3  A    between atoms: N1_7  and  C7_9
REMARK    4  A    between atoms: C7_9  and  C8_10
REMARK    5  A    between atoms: C11_13  and  N2_14
REMARK    6  A    between atoms: N2_14  and  C12_17
REMARK    7  A    between atoms: C12_17  and  C13_18
REMARK    8  A    between atoms: C13_18  and  C14_19
REMARK    9  A    between atoms: C14_19  and  N3_20
REMARK   10  A    between atoms: N3_20  and  C15_22
REMARK   11  A    between atoms: C15_22  and  C16_23
REMARK   12  A    between atoms: C16_23  and  C17_24
REMARK   13  A    between atoms: C17_24  and  C18_25
REMARK   14  A    between atoms: C18_25  and  N4_26
REMARK   15  A    between atoms: N4_26  and  C19_28
REMARK   16  A    between atoms: C19_28  and  C20_29
REMARK   17  A    between atoms: C20_29  and  N5_30
ROOT
HETATM    1  N2  UNL     1      -0.183  17.888  30.036  1.00  0.00    -0.071 N
ATOM      2  H21 UNL     1       0.709  18.293  29.753  1.00  0.00     0.277 HD
ATOM      3  H22 UNL     1      -0.072  16.944  29.668  1.00  0.00     0.277 HD
ENDROOT
BRANCH   1   4
HETATM    4  C11 UNL     1      -1.263  18.554  29.376  1.00  0.00     0.186 C
HETATM    5  C10 UNL     1      -0.921  18.694  27.892  1.00  0.00     0.034 C
HETATM    6  C9  UNL     1      -2.036  17.988  27.140  1.00  0.00     0.012 C
HETATM    7  C8  UNL     1      -3.210  18.232  28.058  1.00  0.00     0.026 C
HETATM    8  C21 UNL     1      -2.561  17.835  29.416  1.00  0.00     0.042 C
BRANCH   7   9
HETATM    9  C7  UNL     1      -3.527  19.701  28.118  1.00  0.00     0.060 C
BRANCH   9  10
HETATM   10  N1  UNL     1      -4.217  20.203  27.004  1.00  0.00    -0.396 N
ATOM     11  H1  UNL     1      -5.156  19.878  26.770  1.00  0.00     0.159 HD
BRANCH  10  12
HETATM   12  C6  UNL     1      -3.554  21.184  26.216  1.00  0.00     0.183 C
BRANCH  12  13
HETATM   13  C5  UNL     1      -2.924  22.164  27.184  1.00  0.00     0.070 A
HETATM   14  C4  UNL     1      -1.631  22.254  27.606  1.00  0.00     0.037 A
HETATM   15  C3  UNL     1      -1.594  23.325  28.489  1.00  0.00     0.035 A
HETATM   16  C2  UNL     1      -2.865  23.832  28.560  1.00  0.00     0.049 A
HETATM   17  C1  UNL     1      -3.360  24.995  29.372  1.00  0.00     0.076 C
HETATM   18  O1  UNL     1      -3.630  23.124  27.778  1.00  0.00    -0.318 OA
ENDBRANCH  12  13
ENDBRANCH  10  12
ENDBRANCH   9  10
ENDBRANCH   7   9
ENDBRANCH   1   4
BRANCH   1  19
HETATM   19  C12 UNL     1      -0.284  17.857  31.458  1.00  0.00     0.237 C
BRANCH  19  20
HETATM   20  C13 UNL     1       0.048  16.517  32.039  1.00  0.00     0.072 C
BRANCH  20  21
HETATM   21  C14 UNL     1       0.821  15.616  31.131  1.00  0.00     0.061 C
BRANCH  21  22
HETATM   22  N3  UNL     1       2.154  15.349  31.421  1.00  0.00    -0.382 N
ATOM     23  H3  UNL     1       2.394  14.417  31.760  1.00  0.00     0.163 HD
BRANCH  22  24
HETATM   24  C15 UNL     1       3.183  16.280  31.275  1.00  0.00     0.060 C
BRANCH  24  25
HETATM   25  C16 UNL     1       4.072  16.525  32.456  1.00  0.00     0.046 C
BRANCH  25  26
HETATM   26  C17 UNL     1       3.280  17.027  33.657  1.00  0.00     0.024 C
BRANCH  26  27
HETATM   27  C18 UNL     1       3.601  16.141  34.870  1.00  0.00     0.114 C
BRANCH  27  28
HETATM   28  N4  UNL     1       2.752  15.006  34.877  1.00  0.00    -0.420 N
ATOM     29  H4  UNL     1       3.130  14.086  34.652  1.00  0.00     0.153 HD
BRANCH  28  30
HETATM   30  C19 UNL     1       1.390  15.146  35.193  1.00  0.00     0.141 C
BRANCH  30  31
HETATM   31  C20 UNL     1       1.204  14.743  36.669  1.00  0.00     0.248 C
BRANCH  31  32
HETATM   32  N5  UNL     1       1.346  13.315  36.840  1.00  0.00    -0.078 N
ATOM     33  H53 UNL     1       0.452  12.835  36.746  1.00  0.00     0.274 HD
ATOM     34  H52 UNL     1       1.835  12.889  36.052  1.00  0.00     0.274 HD
ATOM     35  H51 UNL     1       1.800  13.096  37.726  1.00  0.00     0.274 HD
ENDBRANCH  31  32
ENDBRANCH  30  31
ENDBRANCH  28  30
ENDBRANCH  27  28
ENDBRANCH  26  27
ENDBRANCH  25  26
ENDBRANCH  24  25
ENDBRANCH  22  24
ENDBRANCH  21  22
ENDBRANCH  20  21
ENDBRANCH  19  20
ENDBRANCH   1  19
TORSDOF 17
ENDMDL