MODEL 1
REMARK VINA RESULT: -6.888211193      0.000      0.000
REMARK  18 active torsions:
REMARK  status: ('A' for Active; 'I' for Inactive)
REMARK    1  A    between atoms: C4_4  and  N1_5
REMARK    2  A    between atoms: N1_5  and  C5_7
REMARK    3  A    between atoms: C5_7  and  C6_8
REMARK    4  A    between atoms: C6_8  and  C7_9
REMARK    5  A    between atoms: C7_9  and  N2_10
REMARK    6  A    between atoms: N2_10  and  C8_12
REMARK    7  A    between atoms: C8_12  and  C9_13
REMARK    8  A    between atoms: C9_13  and  C10_14
REMARK    9  A    between atoms: C10_14  and  N3_15
REMARK   10  A    between atoms: N3_15  and  C11_18
REMARK   11  A    between atoms: C11_18  and  C12_19
REMARK   12  A    between atoms: C12_19  and  C13_20
REMARK   13  A    between atoms: C13_20  and  N4_21
REMARK   14  A    between atoms: N4_21  and  C14_24
REMARK   15  A    between atoms: C14_24  and  C15_25
REMARK   16  A    between atoms: C15_25  and  C16_26
REMARK   17  A    between atoms: C16_26  and  N5_27
REMARK   18  A    between atoms: N5_27  and  C17_30
ROOT
HETATM    1  N3  UNL     1      -0.605  17.979  31.201  1.00  0.00    -0.072 N
ATOM      2  H31 UNL     1      -0.928  18.048  32.166  1.00  0.00     0.277 HD
ATOM      3  H32 UNL     1       0.206  18.593  31.277  1.00  0.00     0.277 HD
ENDROOT
BRANCH   1   4
HETATM    4  C10 UNL     1      -1.574  18.469  30.266  1.00  0.00     0.261 C
BRANCH   4   5
HETATM    5  C9  UNL     1      -2.139  17.484  29.337  1.00  0.00     0.017 C
BRANCH   5   6
HETATM    6  C8  UNL     1      -2.293  17.732  27.909  1.00  0.00     0.080 C
BRANCH   6   7
HETATM    7  N2  UNL     1      -2.555  18.929  27.253  1.00  0.00    -0.399 N
ATOM      8  H2  UNL     1      -1.872  19.327  26.609  1.00  0.00     0.158 HD
BRANCH   7   9
HETATM    9  C7  UNL     1      -3.794  19.590  27.493  1.00  0.00     0.124 C
BRANCH   9  10
HETATM   10  C6  UNL     1      -3.946  20.700  26.418  1.00  0.00     0.063 C
BRANCH  10  11
HETATM   11  C5  UNL     1      -3.716  22.040  27.012  1.00  0.00     0.057 C
BRANCH  11  12
HETATM   12  N1  UNL     1      -3.557  22.161  28.381  1.00  0.00    -0.398 N
ATOM     13  H1  UNL     1      -4.340  21.848  28.954  1.00  0.00     0.159 HD
BRANCH  12  14
HETATM   14  C4  UNL     1      -2.454  22.661  29.068  1.00  0.00     0.080 C
HETATM   15  C3  UNL     1      -2.790  23.820  29.965  1.00  0.00     0.025 C
HETATM   16  C2  UNL     1      -2.737  25.126  29.162  1.00  0.00     0.002 C
HETATM   17  C1  UNL     1      -1.274  25.430  28.943  1.00  0.00     0.000 C
HETATM   18  C22 UNL     1      -0.529  24.183  28.527  1.00  0.00     0.002 C
HETATM   19  C21 UNL     1      -1.408  23.075  28.030  1.00  0.00     0.025 C
ENDBRANCH  12  14
ENDBRANCH  11  12
ENDBRANCH  10  11
ENDBRANCH   9  10
ENDBRANCH   7   9
ENDBRANCH   6   7
ENDBRANCH   5   6
ENDBRANCH   4   5
ENDBRANCH   1   4
BRANCH   1  20
HETATM   20  C11 UNL     1      -0.232  16.604  30.831  1.00  0.00     0.234 C
BRANCH  20  21
HETATM   21  C12 UNL     1       1.262  16.422  30.800  1.00  0.00     0.055 C
BRANCH  21  22
HETATM   22  C13 UNL     1       1.652  15.033  31.297  1.00  0.00     0.233 C
BRANCH  22  23
HETATM   23  N4  UNL     1       1.948  15.106  32.717  1.00  0.00    -0.075 N
ATOM     24  H42 UNL     1       1.107  14.922  33.265  1.00  0.00     0.277 HD
ATOM     25  H41 UNL     1       2.521  14.312  33.002  1.00  0.00     0.277 HD
BRANCH  23  26
HETATM   26  C14 UNL     1       2.554  16.335  33.133  1.00  0.00     0.233 C
BRANCH  26  27
HETATM   27  C15 UNL     1       1.897  16.922  34.367  1.00  0.00     0.055 C
BRANCH  27  28
HETATM   28  C16 UNL     1       0.460  16.447  34.492  1.00  0.00     0.234 C
BRANCH  28  29
HETATM   29  N5  UNL     1       0.211  15.766  35.729  1.00  0.00    -0.071 N
ATOM     30  H52 UNL     1      -0.497  16.258  36.274  1.00  0.00     0.277 HD
ATOM     31  H51 UNL     1      -0.280  14.887  35.563  1.00  0.00     0.277 HD
BRANCH  29  32
HETATM   32  C17 UNL     1       1.407  15.539  36.529  1.00  0.00     0.185 A
HETATM   33  C18 UNL     1       1.700  14.066  36.787  1.00  0.00     0.033 A
HETATM   34  C19 UNL     1       1.464  14.232  38.267  1.00  0.00     0.004 A
HETATM   35  C20 UNL     1       1.128  15.678  38.012  1.00  0.00     0.033 A
ENDBRANCH  29  32
ENDBRANCH  28  29
ENDBRANCH  27  28
ENDBRANCH  26  27
ENDBRANCH  23  26
ENDBRANCH  22  23
ENDBRANCH  21  22
ENDBRANCH  20  21
ENDBRANCH   1  20
TORSDOF 18
ENDMDL