MODEL 1
REMARK VINA RESULT: -9.681823170      0.000      0.000
REMARK  18 active torsions:
REMARK  status: ('A' for Active; 'I' for Inactive)
REMARK       I    between atoms: C1_4  and  N3_6
REMARK    1  A    between atoms: N3_6  and  C2_8
REMARK    2  A    between atoms: N4_11  and  C5_12
REMARK    3  A    between atoms: C5_12  and  C6_13
REMARK    4  A    between atoms: C5_12  and  C18_30
REMARK    5  A    between atoms: C6_13  and  C7_14
REMARK       I    between atoms: C7_14  and  N5_16
REMARK    6  A    between atoms: N5_16  and  C8_18
REMARK    7  A    between atoms: C11_21  and  O2_22
REMARK       I    between atoms: C18_30  and  N6_32
REMARK    8  A    between atoms: N6_32  and  C19_34
REMARK    9  A    between atoms: C19_34  and  C20_35
REMARK   10  A    between atoms: C19_34  and  C21_38
REMARK   11  A    between atoms: C20_35  and  O4_36
REMARK       I    between atoms: C21_38  and  N7_40
REMARK       I    between atoms: N7_40  and  C22_42
REMARK   12  A    between atoms: C22_42  and  C23_44
REMARK       I    between atoms: C23_44  and  N8_46
REMARK   13  A    between atoms: N8_46  and  S1_48
REMARK   14  A    between atoms: S1_48  and  N9_49
REMARK   15  A    between atoms: S1_48  and  O8_52
REMARK   16  A    between atoms: S1_48  and  O9_54
REMARK   17  A    between atoms: S1_48  and  N10_56
REMARK   18  A    between atoms: N10_56  and  N11_58
ROOT
HETATM    1  C18 UNL     1      -0.226 -43.670 -23.659  1.00  0.00     0.242 C
HETATM    2  O3  UNL     1       0.057 -44.420 -22.705  1.00  0.00    -0.271 OA
HETATM    3  N6  UNL     1       0.183 -44.047 -24.967  1.00  0.00    -0.344 N
ATOM      4  H6  UNL     1      -0.051 -43.429 -25.744  1.00  0.00     0.163 HD
ENDROOT
BRANCH   1   5
HETATM    5  C5  UNL     1      -0.971 -42.417 -23.399  1.00  0.00     0.189 C
BRANCH   5   6
HETATM    6  N4  UNL     1      -0.139 -41.411 -22.783  1.00  0.00    -0.350 N
HETATM    7  C4  UNL     1       1.051 -41.040 -23.284  1.00  0.00     0.094 A
HETATM    8  C3  UNL     1       1.579 -40.071 -22.459  1.00  0.00     0.048 A
HETATM    9  C2  UNL     1       0.695 -39.843 -21.432  1.00  0.00     0.051 A
HETATM   10  C24 UNL     1      -0.375 -40.708 -21.673  1.00  0.00     0.121 A
BRANCH   9  11
HETATM   11  N3  UNL     1       0.811 -38.928 -20.340  1.00  0.00    -0.330 N
HETATM   12  C1  UNL     1       1.301 -39.351 -19.078  1.00  0.00     0.186 C
HETATM   13  N1  UNL     1       0.606 -40.174 -18.380  1.00  0.00    -0.373 N
HETATM   14  N2  UNL     1       2.533 -38.886 -18.579  1.00  0.00    -0.064 NA
ATOM     15  H12 UNL     1       0.959 -40.479 -17.472  1.00  0.00     0.158 HD
ATOM     16  H11 UNL     1      -0.286 -40.511 -18.742  1.00  0.00     0.158 HD
ATOM     17  H3  UNL     1       0.537 -37.954 -20.470  1.00  0.00     0.168 HD
ENDBRANCH   9  11
ENDBRANCH   5   6
BRANCH   5  18
HETATM   18  C6  UNL     1      -1.836 -41.945 -24.502  1.00  0.00     0.138 C
BRANCH  18  19
HETATM   19  C7  UNL     1      -2.876 -40.942 -24.090  1.00  0.00     0.224 C
HETATM   20  O1  UNL     1      -3.770 -41.230 -23.292  1.00  0.00    -0.273 OA
HETATM   21  N5  UNL     1      -2.783 -39.658 -24.659  1.00  0.00    -0.326 N
ATOM     22  H5  UNL     1      -2.002 -39.531 -25.303  1.00  0.00     0.169 HD
BRANCH  21  23
HETATM   23  C8  UNL     1      -3.583 -38.533 -24.484  1.00  0.00     0.046 A
HETATM   24  C9  UNL     1      -4.765 -38.328 -25.168  1.00  0.00     0.033 A
HETATM   25  C10 UNL     1      -5.529 -37.206 -24.990  1.00  0.00     0.039 A
HETATM   26  C11 UNL     1      -5.164 -36.222 -24.125  1.00  0.00     0.076 A
HETATM   27  C12 UNL     1      -3.980 -36.411 -23.428  1.00  0.00     0.009 A
HETATM   28  C13 UNL     1      -3.638 -35.381 -22.545  1.00  0.00     0.015 A
HETATM   29  C17 UNL     1      -3.187 -37.533 -23.587  1.00  0.00     0.004 A
HETATM   30  C14 UNL     1      -2.473 -35.524 -21.830  1.00  0.00     0.001 A
HETATM   31  C15 UNL     1      -1.662 -36.616 -21.956  1.00  0.00     0.001 A
HETATM   32  C16 UNL     1      -2.031 -37.620 -22.843  1.00  0.00     0.014 A
BRANCH  26  33
HETATM   33  O2  UNL     1      -5.922 -35.068 -23.922  1.00  0.00    -0.360 OA
ATOM     34  H2  UNL     1      -5.563 -34.272 -23.547  1.00  0.00     0.217 HD
ENDBRANCH  26  33
ENDBRANCH  21  23
ENDBRANCH  18  19
ENDBRANCH   5  18
ENDBRANCH   1   5
BRANCH   3  35
HETATM   35  C19 UNL     1       0.920 -45.276 -25.257  1.00  0.00     0.200 C
BRANCH  35  36
HETATM   36  C20 UNL     1       2.406 -45.028 -24.937  1.00  0.00     0.199 C
BRANCH  36  37
HETATM   37  O4  UNL     1       2.693 -45.694 -23.760  1.00  0.00    -0.398 OA
ATOM     38  H4  UNL     1       3.151 -45.085 -23.191  1.00  0.00     0.209 HD
ENDBRANCH  36  37
ENDBRANCH  35  36
BRANCH  35  39
HETATM   39  C21 UNL     1       0.703 -45.699 -26.640  1.00  0.00     0.249 C
HETATM   40  O5  UNL     1       1.435 -45.171 -27.555  1.00  0.00    -0.271 OA
HETATM   41  N7  UNL     1      -0.239 -46.644 -27.087  1.00  0.00    -0.287 N
HETATM   42  C22 UNL     1      -0.338 -47.027 -28.445  1.00  0.00     0.317 C
ATOM     43  H7  UNL     1      -0.871 -47.068 -26.409  1.00  0.00     0.172 HD
HETATM   44  O6  UNL     1       0.428 -46.475 -29.273  1.00  0.00    -0.262 OA
BRANCH  42  45
HETATM   45  C23 UNL     1      -1.291 -48.033 -28.901  1.00  0.00     0.323 C
HETATM   46  O7  UNL     1      -0.874 -49.202 -29.117  1.00  0.00    -0.261 OA
HETATM   47  N8  UNL     1      -2.630 -47.704 -29.097  1.00  0.00    -0.248 N
ATOM     48  H8  UNL     1      -2.954 -46.754 -28.917  1.00  0.00     0.182 HD
BRANCH  47  49
HETATM   49  S1  UNL     1      -3.860 -49.033 -29.698  1.00  0.00     0.136 SA
BRANCH  49  50
HETATM   50  N9  UNL     1      -3.374 -50.803 -29.220  1.00  0.00    -0.330 N
ATOM     51  H92 UNL     1      -2.401 -51.094 -29.129  1.00  0.00     0.169 HD
ATOM     52  H91 UNL     1      -4.170 -51.423 -29.065  1.00  0.00     0.169 HD
ENDBRANCH  49  50
BRANCH  49  53
HETATM   53  O8  UNL     1      -5.229 -48.660 -30.651  1.00  0.00    -0.292 OA
ATOM     54  H8  UNL     1      -5.207 -48.657 -31.601  1.00  0.00     0.232 HD
ENDBRANCH  49  53
BRANCH  49  55
HETATM   55  O9  UNL     1      -2.974 -49.235 -31.018  1.00  0.00    -0.292 OA
ATOM     56  H9  UNL     1      -3.708 -48.943 -31.546  1.00  0.00     0.232 HD
ENDBRANCH  49  55
BRANCH  49  57
HETATM   57  N10 UNL     1      -4.846 -48.885 -28.241  1.00  0.00    -0.237 N
ATOM     58  H10 UNL     1      -4.465 -48.481 -27.385  1.00  0.00     0.199 HD
BRANCH  57  59
HETATM   59  N11 UNL     1      -6.193 -49.349 -28.303  1.00  0.00    -0.336 N
ATOM     60 2H11 UNL     1      -6.863 -48.899 -28.928  1.00  0.00     0.177 HD
ATOM     61 1H11 UNL     1      -6.452 -50.135 -27.706  1.00  0.00     0.177 HD
ENDBRANCH  57  59
ENDBRANCH  49  57
ENDBRANCH  47  49
ENDBRANCH  42  45
ENDBRANCH  35  39
ENDBRANCH   3  35
TORSDOF 18
ENDMDL