MODEL 3
REMARK VINA RESULT: -10.806617927      3.689      4.875
REMARK  19 active torsions:
REMARK  status: ('A' for Active; 'I' for Inactive)
REMARK    1  A    between atoms: N1_1  and  C1_4
REMARK    2  A    between atoms: C1_4  and  N2_5
REMARK    3  A    between atoms: C1_4  and  C17_32
REMARK    4  A    between atoms: N2_5  and  C2_7
REMARK    5  A    between atoms: C5_10  and  N3_11
REMARK    6  A    between atoms: N3_11  and  C6_13
REMARK    7  A    between atoms: C6_13  and  C7_14
REMARK       I    between atoms: C7_14  and  N4_16
REMARK    8  A    between atoms: N4_16  and  N5_18
REMARK       I    between atoms: N5_18  and  C8_20
REMARK    9  A    between atoms: C8_20  and  C9_22
REMARK   10  A    between atoms: C12_25  and  O3_26
REMARK   11  A    between atoms: C17_32  and  N6_33
REMARK   12  A    between atoms: C17_32  and  C22_44
REMARK   13  A    between atoms: N6_33  and  C18_36
REMARK   14  A    between atoms: C18_36  and  C19_37
REMARK   15  A    between atoms: C19_37  and  C20_38
REMARK   16  A    between atoms: C20_38  and  N7_39
REMARK       I    between atoms: N7_39  and  C21_41
REMARK       I    between atoms: C22_44  and  N8_46
REMARK   17  A    between atoms: N8_46  and  C23_48
REMARK   18  A    between atoms: C24_51  and  N10_52
REMARK   19  A    between atoms: N10_52  and  O7_54
ROOT
HETATM    1  C17 UNL     1       0.944 -44.762 -26.586  1.00  0.00     0.344 C
ENDROOT
BRANCH   1   2
HETATM    2  C1  UNL     1       0.010 -44.263 -25.555  1.00  0.00     0.116 C
BRANCH   2   3
HETATM    3  N1  UNL     1      -0.094 -42.967 -25.467  1.00  0.00    -0.387 N
ATOM      4  H12 UNL     1       0.748 -42.476 -25.164  1.00  0.00     0.157 HD
ATOM      5  H11 UNL     1      -0.974 -42.497 -25.676  1.00  0.00     0.157 HD
ENDBRANCH   2   3
BRANCH   2   6
HETATM    6  N2  UNL     1      -0.710 -45.098 -24.698  1.00  0.00    -0.344 N
ATOM      7  H2  UNL     1      -0.983 -46.007 -25.070  1.00  0.00     0.167 HD
BRANCH   6   8
HETATM    8  C2  UNL     1      -1.101 -44.817 -23.364  1.00  0.00     0.033 A
HETATM    9  C3  UNL     1      -0.227 -45.011 -22.296  1.00  0.00     0.031 A
HETATM   10  C4  UNL     1      -0.555 -44.748 -20.992  1.00  0.00     0.031 A
HETATM   11  C5  UNL     1      -1.811 -44.264 -20.681  1.00  0.00     0.028 A
HETATM   12  C15 UNL     1      -2.694 -44.064 -21.715  1.00  0.00     0.031 A
HETATM   13  C16 UNL     1      -2.347 -44.334 -23.024  1.00  0.00     0.031 A
BRANCH  11  14
HETATM   14  N3  UNL     1      -2.152 -43.984 -19.301  1.00  0.00    -0.381 N
ATOM     15  H3  UNL     1      -2.684 -44.639 -18.729  1.00  0.00     0.160 HD
BRANCH  14  16
HETATM   16  C6  UNL     1      -1.694 -42.729 -18.792  1.00  0.00     0.224 C
BRANCH  16  17
HETATM   17  C7  UNL     1      -2.281 -41.594 -19.482  1.00  0.00     0.253 C
HETATM   18  O1  UNL     1      -3.513 -41.349 -19.249  1.00  0.00    -0.270 OA
HETATM   19  N4  UNL     1      -1.619 -40.754 -20.368  1.00  0.00    -0.266 N
ATOM     20  H4  UNL     1      -0.634 -40.931 -20.567  1.00  0.00     0.190 HD
BRANCH  19  21
HETATM   21  N5  UNL     1      -2.253 -39.667 -21.007  1.00  0.00    -0.263 N
HETATM   22  C8  UNL     1      -2.609 -39.738 -22.359  1.00  0.00     0.270 C
HETATM   23  O2  UNL     1      -2.338 -40.814 -22.993  1.00  0.00    -0.266 OA
ATOM     24  H5  UNL     1      -2.455 -38.820 -20.477  1.00  0.00     0.190 HD
BRANCH  22  25
HETATM   25  C9  UNL     1      -3.268 -38.657 -23.084  1.00  0.00     0.033 A
HETATM   26  C10 UNL     1      -3.162 -37.363 -22.616  1.00  0.00     0.020 A
HETATM   27  C11 UNL     1      -3.776 -36.343 -23.298  1.00  0.00     0.037 A
HETATM   28  C12 UNL     1      -4.489 -36.601 -24.432  1.00  0.00     0.065 A
HETATM   29  C13 UNL     1      -4.607 -37.902 -24.920  1.00  0.00     0.037 A
HETATM   30  C14 UNL     1      -3.985 -38.920 -24.227  1.00  0.00     0.020 A
BRANCH  28  31
HETATM   31  O3  UNL     1      -5.119 -35.579 -25.138  1.00  0.00    -0.361 OA
ATOM     32  H3  UNL     1      -5.507 -34.837 -24.690  1.00  0.00     0.217 HD
ENDBRANCH  28  31
ENDBRANCH  22  25
ENDBRANCH  19  21
ENDBRANCH  16  17
ENDBRANCH  14  16
ENDBRANCH  11  14
ENDBRANCH   6   8
ENDBRANCH   2   6
ENDBRANCH   1   2
BRANCH   1  33
HETATM   33  N6  UNL     1       0.551 -46.081 -27.060  1.00  0.00    -0.055 N
ATOM     34  H62 UNL     1       1.045 -46.814 -26.552  1.00  0.00     0.278 HD
ATOM     35  H61 UNL     1      -0.405 -46.300 -26.781  1.00  0.00     0.278 HD
BRANCH  33  36
HETATM   36  C18 UNL     1       0.722 -46.235 -28.486  1.00  0.00     0.235 C
BRANCH  36  37
HETATM   37  C19 UNL     1      -0.621 -46.569 -29.083  1.00  0.00     0.047 C
BRANCH  37  38
HETATM   38  C20 UNL     1      -1.185 -47.858 -28.586  1.00  0.00     0.127 C
BRANCH  38  39
HETATM   39  N7  UNL     1      -2.232 -48.336 -29.447  1.00  0.00    -0.335 N
HETATM   40  C21 UNL     1      -2.285 -49.694 -29.892  1.00  0.00     0.283 C
HETATM   41  O4  UNL     1      -1.361 -50.479 -29.493  1.00  0.00    -0.630 OA
HETATM   42  O5  UNL     1      -3.264 -50.200 -30.716  1.00  0.00    -0.630 OA
ATOM     43  H7  UNL     1      -2.958 -47.687 -29.749  1.00  0.00     0.165 HD
ENDBRANCH  38  39
ENDBRANCH  37  38
ENDBRANCH  36  37
ENDBRANCH  33  36
ENDBRANCH   1  33
BRANCH   1  44
HETATM   44  C22 UNL     1       2.367 -44.637 -26.262  1.00  0.00     0.274 C
HETATM   45  O6  UNL     1       2.966 -43.567 -26.552  1.00  0.00    -0.270 OA
HETATM   46  N8  UNL     1       3.066 -45.666 -25.641  1.00  0.00    -0.157 N
ATOM     47  H8  UNL     1       2.594 -46.106 -24.851  1.00  0.00     0.187 HD
BRANCH  46  48
HETATM   48  C23 UNL     1       4.218 -46.135 -25.924  1.00  0.00     0.702 C
HETATM   49  N9  UNL     1       4.595 -46.033 -27.241  1.00  0.00    -0.020 N
HETATM   50  C24 UNL     1       5.301 -46.906 -27.973  1.00  0.00     0.719 C
ATOM     51  H9  UNL     1       4.300 -45.185 -27.724  1.00  0.00     0.203 HD
HETATM   52  N11 UNL     1       6.058 -47.936 -27.550  1.00  0.00    -0.149 N
HETATM   53  C25 UNL     1       6.364 -48.257 -26.272  1.00  0.00     0.328 C
ATOM     54  H11 UNL     1       6.444 -48.542 -28.274  1.00  0.00     0.188 HD
HETATM   55  O8  UNL     1       7.067 -49.282 -26.167  1.00  0.00    -0.261 OA
HETATM   56  C26 UNL     1       5.987 -47.586 -25.130  1.00  0.00     0.328 C
HETATM   57  O9  UNL     1       6.675 -47.860 -24.110  1.00  0.00    -0.261 OA
HETATM   58  N12 UNL     1       4.991 -46.688 -24.963  1.00  0.00    -0.151 N
ATOM     59  H12 UNL     1       4.803 -46.394 -24.004  1.00  0.00     0.188 HD
BRANCH  50  60
HETATM   60  N10 UNL     1       5.257 -46.757 -29.255  1.00  0.00    -0.098 N
ATOM     61  H10 UNL     1       4.532 -47.226 -29.800  1.00  0.00     0.213 HD
BRANCH  60  62
HETATM   62  O7  UNL     1       6.193 -45.962 -29.889  1.00  0.00    -0.276 OA
ATOM     63  H7  UNL     1       6.018 -45.629 -30.761  1.00  0.00     0.245 HD
ENDBRANCH  60  62
ENDBRANCH  50  60
ENDBRANCH  46  48
ENDBRANCH   1  44
TORSDOF 19
ENDMDL