MODEL 1
REMARK VINA RESULT: -10.345894246      0.000      0.000
REMARK  15 active torsions:
REMARK  status: ('A' for Active; 'I' for Inactive)
REMARK       I    between atoms: N1_2  and  C2_4
REMARK    1  A    between atoms: C2_4  and  C3_6
REMARK    2  A    between atoms: C7_15  and  N4_16
REMARK    3  A    between atoms: N4_16  and  C8_18
REMARK    4  A    between atoms: C8_18  and  C9_19
REMARK    5  A    between atoms: C8_18  and  C10_26
REMARK       I    between atoms: C9_19  and  N5_21
REMARK    6  A    between atoms: N5_21  and  N6_23
REMARK    7  A    between atoms: C10_26  and  C11_28
REMARK    8  A    between atoms: C11_28  and  C12_29
REMARK    9  A    between atoms: C11_28  and  N11_49
REMARK   10  A    between atoms: C12_29  and  C13_30
REMARK   11  A    between atoms: N7_32  and  C15_33
REMARK   12  A    between atoms: C15_33  and  C16_34
REMARK   13  A    between atoms: C16_34  and  O4_35
REMARK   14  A    between atoms: C18_40  and  N9_41
REMARK       I    between atoms: N11_49  and  C21_51
REMARK   15  A    between atoms: C21_51  and  C22_53
ROOT
HETATM    1  C11 UNL     1      -0.529 -43.947 -24.031  1.00  0.00     0.161 C
ENDROOT
BRANCH   1   2
HETATM    2  C10 UNL     1      -0.180 -42.692 -24.593  1.00  0.00     0.181 C
HETATM    3  O3  UNL     1      -0.236 -42.335 -25.721  1.00  0.00    -0.293 OA
BRANCH   2   4
HETATM    4  C8  UNL     1       0.382 -41.554 -23.690  1.00  0.00     0.248 C
BRANCH   4   5
HETATM    5  N4  UNL     1      -0.175 -40.286 -24.042  1.00  0.00    -0.370 N
ATOM      6  H4  UNL     1       0.442 -39.655 -24.553  1.00  0.00     0.161 HD
BRANCH   5   7
HETATM    7  C7  UNL     1      -1.480 -39.793 -23.770  1.00  0.00     0.049 A
HETATM    8  C3  UNL     1      -1.863 -39.558 -22.450  1.00  0.00     0.073 A
HETATM    9  C4  UNL     1      -3.193 -39.151 -22.214  1.00  0.00     0.109 A
HETATM   10  N2  UNL     1      -4.068 -38.993 -23.185  1.00  0.00    -0.352 N
HETATM   11  C5  UNL     1      -3.723 -39.211 -24.469  1.00  0.00     0.100 A
ATOM     12  H2  UNL     1      -5.019 -38.701 -22.961  1.00  0.00     0.166 HD
HETATM   13  N3  UNL     1      -4.542 -39.082 -25.387  1.00  0.00    -0.385 N
HETATM   14  C6  UNL     1      -2.408 -39.615 -24.750  1.00  0.00     0.078 A
ATOM     15  H32 UNL     1      -5.497 -38.789 -25.183  1.00  0.00     0.157 HD
ATOM     16  H31 UNL     1      -4.281 -39.247 -26.359  1.00  0.00     0.157 HD
BRANCH   8  17
HETATM   17  C2  UNL     1      -0.982 -39.548 -21.311  1.00  0.00     0.254 C
HETATM   18  N1  UNL     1      -1.325 -40.196 -20.100  1.00  0.00    -0.361 N
HETATM   19  C1  UNL     1      -0.366 -40.128 -18.986  1.00  0.00     0.149 C
ATOM     20  H1  UNL     1      -2.210 -40.693 -20.002  1.00  0.00     0.162 HD
HETATM   21  O1  UNL     1       0.139 -38.940 -21.374  1.00  0.00    -0.268 OA
ENDBRANCH   8  17
ENDBRANCH   5   7
ENDBRANCH   4   5
BRANCH   4  22
HETATM   22  C9  UNL     1       1.836 -41.599 -24.122  1.00  0.00     0.265 C
HETATM   23  O2  UNL     1       2.690 -41.096 -23.388  1.00  0.00    -0.269 OA
HETATM   24  N5  UNL     1       2.190 -42.205 -25.342  1.00  0.00    -0.275 N
ATOM     25  H5  UNL     1       1.488 -42.623 -25.953  1.00  0.00     0.189 HD
BRANCH  24  26
HETATM   26  N6  UNL     1       3.564 -42.207 -25.683  1.00  0.00    -0.343 N
ATOM     27  H62 UNL     1       4.153 -41.402 -25.470  1.00  0.00     0.176 HD
ATOM     28  H61 UNL     1       3.924 -43.042 -26.144  1.00  0.00     0.176 HD
ENDBRANCH  24  26
ENDBRANCH   4  22
ENDBRANCH   2   4
ENDBRANCH   1   2
BRANCH   1  29
HETATM   29  C12 UNL     1       0.361 -45.129 -24.395  1.00  0.00     0.074 C
BRANCH  29  30
HETATM   30  C13 UNL     1       0.544 -45.404 -25.803  1.00  0.00    -0.021 A
HETATM   31  C14 UNL     1      -0.449 -45.635 -26.763  1.00  0.00     0.101 A
HETATM   32  N7  UNL     1       0.104 -46.008 -27.932  1.00  0.00    -0.339 N
HETATM   33  C17 UNL     1       1.436 -46.032 -27.790  1.00  0.00     0.139 A
HETATM   34  N8  UNL     1       2.455 -46.308 -28.665  1.00  0.00    -0.176 N
HETATM   35  C20 UNL     1       1.721 -45.658 -26.482  1.00  0.00     0.085 A
HETATM   36  C18 UNL     1       3.718 -46.221 -28.289  1.00  0.00     0.680 A
ATOM     37  H8  UNL     1       2.234 -46.584 -29.621  1.00  0.00     0.186 HD
HETATM   38  N10 UNL     1       4.023 -45.859 -27.047  1.00  0.00    -0.155 N
HETATM   39  C19 UNL     1       3.056 -45.586 -26.176  1.00  0.00     0.274 A
ATOM     40  H10 UNL     1       5.000 -45.792 -26.761  1.00  0.00     0.187 HD
HETATM   41  O5  UNL     1       3.418 -45.235 -25.017  1.00  0.00    -0.267 OA
BRANCH  32  42
HETATM   42  C15 UNL     1      -0.619 -46.356 -29.137  1.00  0.00     0.156 C
BRANCH  42  43
HETATM   43  C16 UNL     1      -1.785 -47.296 -28.911  1.00  0.00     0.184 C
BRANCH  43  44
HETATM   44  O4  UNL     1      -1.428 -48.596 -28.662  1.00  0.00    -0.399 OA
ATOM     45  H4  UNL     1      -2.075 -49.097 -28.180  1.00  0.00     0.209 HD
ENDBRANCH  43  44
ENDBRANCH  42  43
ENDBRANCH  32  42
BRANCH  36  46
HETATM   46  N9  UNL     1       4.686 -46.485 -29.092  1.00  0.00    -0.234 N
ATOM     47  H92 UNL     1       4.559 -46.265 -30.080  1.00  0.00     0.174 HD
ATOM     48  H91 UNL     1       5.561 -46.895 -28.765  1.00  0.00     0.174 HD
ENDBRANCH  36  46
ENDBRANCH  29  30
ENDBRANCH   1  29
BRANCH   1  49
HETATM   49  N11 UNL     1      -0.733 -43.978 -22.571  1.00  0.00    -0.343 N
HETATM   50  C21 UNL     1      -1.961 -43.451 -22.133  1.00  0.00     0.276 C
HETATM   51  O6  UNL     1      -2.765 -42.987 -23.017  1.00  0.00    -0.265 OA
ATOM     52  H11 UNL     1      -0.037 -44.354 -21.928  1.00  0.00     0.163 HD
BRANCH  50  53
HETATM   53  C22 UNL     1      -2.370 -43.395 -20.757  1.00  0.00     0.146 A
HETATM   54  C23 UNL     1      -1.691 -44.108 -19.723  1.00  0.00     0.059 A
HETATM   55  C24 UNL     1      -2.327 -43.834 -18.544  1.00  0.00     0.018 A
HETATM   56  C25 UNL     1      -2.123 -44.233 -17.239  1.00  0.00     0.021 A
HETATM   57  C28 UNL     1      -3.357 -42.984 -18.866  1.00  0.00     0.161 A
HETATM   58  C26 UNL     1      -2.960 -43.770 -16.232  1.00  0.00     0.075 A
HETATM   59  C27 UNL     1      -3.985 -42.914 -16.586  1.00  0.00     0.247 A
HETATM   60  O7  UNL     1      -4.735 -42.494 -15.677  1.00  0.00    -0.268 OA
HETATM   61  N12 UNL     1      -4.154 -42.549 -17.876  1.00  0.00    -0.303 N
ATOM     62  H12 UNL     1      -4.920 -41.916 -18.109  1.00  0.00     0.171 HD
HETATM   63  O8  UNL     1      -3.343 -42.756 -20.170  1.00  0.00    -0.287 OA
ENDBRANCH  50  53
ENDBRANCH   1  49
TORSDOF 15
ENDMDL