MODEL 2
REMARK VINA RESULT: -8.928225285      3.402      6.366
REMARK  19 active torsions:
REMARK  status: ('A' for Active; 'I' for Inactive)
REMARK    1  A    between atoms: N1_1  and  N2_4
REMARK    2  A    between atoms: N2_4  and  N3_6
REMARK    3  A    between atoms: C1_8  and  N4_9
REMARK    4  A    between atoms: C1_8  and  C17_52
REMARK    5  A    between atoms: N4_9  and  C2_11
REMARK    6  A    between atoms: C2_11  and  C3_12
REMARK    7  A    between atoms: C3_12  and  C4_13
REMARK    8  A    between atoms: C4_13  and  N5_14
REMARK    9  A    between atoms: N5_14  and  C5_17
REMARK   10  A    between atoms: C5_17  and  C6_18
REMARK   11  A    between atoms: C5_17  and  C7_25
REMARK       I    between atoms: C6_18  and  N6_20
REMARK   12  A    between atoms: N6_20  and  N7_22
REMARK       I    between atoms: C7_25  and  N8_27
REMARK   13  A    between atoms: N8_27  and  N9_29
REMARK       I    between atoms: N9_29  and  C8_31
REMARK   14  A    between atoms: C8_31  and  C9_33
REMARK   15  A    between atoms: C10_37  and  N11_38
REMARK   16  A    between atoms: N11_38  and  S2_40
REMARK   17  A    between atoms: S2_40  and  C11_43
REMARK   18  A    between atoms: C17_52  and  N14_53
REMARK   19  A    between atoms: C17_52  and  C18_57
ROOT
HETATM    1  C5  UNL     1      -3.578 -38.423 -23.294  1.00  0.00     0.371 C
ENDROOT
BRANCH   1   2
HETATM    2  N5  UNL     1      -2.590 -37.396 -23.359  1.00  0.00    -0.053 N
ATOM      3  H52 UNL     1      -2.807 -36.739 -24.108  1.00  0.00     0.278 HD
ATOM      4  H51 UNL     1      -1.708 -37.773 -23.707  1.00  0.00     0.278 HD
BRANCH   2   5
HETATM    5  C4  UNL     1      -2.384 -36.707 -22.145  1.00  0.00     0.235 C
BRANCH   5   6
HETATM    6  C3  UNL     1      -3.708 -36.411 -21.418  1.00  0.00     0.047 C
BRANCH   6   7
HETATM    7  C2  UNL     1      -3.602 -36.624 -19.941  1.00  0.00     0.122 C
BRANCH   7   8
HETATM    8  N4  UNL     1      -3.608 -38.031 -19.638  1.00  0.00    -0.377 N
ATOM      9  H4  UNL     1      -4.416 -38.581 -19.929  1.00  0.00     0.160 HD
BRANCH   8  10
HETATM   10  C1  UNL     1      -2.560 -38.697 -18.961  1.00  0.00     0.128 C
HETATM   11  N3  UNL     1      -2.793 -39.943 -18.613  1.00  0.00    -0.273 N
ATOM     12  H3  UNL     1      -2.065 -40.464 -18.122  1.00  0.00     0.190 HD
BRANCH  11  13
HETATM   13  N2  UNL     1      -4.000 -40.571 -18.893  1.00  0.00    -0.248 N
ATOM     14  H2  UNL     1      -4.875 -40.061 -18.776  1.00  0.00     0.207 HD
BRANCH  13  15
HETATM   15  N1  UNL     1      -4.026 -41.878 -19.329  1.00  0.00    -0.331 N
ATOM     16  H12 UNL     1      -3.321 -42.526 -18.977  1.00  0.00     0.178 HD
ATOM     17  H11 UNL     1      -4.736 -42.190 -19.991  1.00  0.00     0.178 HD
ENDBRANCH  13  15
ENDBRANCH  11  13
BRANCH  10  18
HETATM   18  C17 UNL     1      -1.256 -38.139 -18.607  1.00  0.00     0.284 C
BRANCH  18  19
HETATM   19  N14 UNL     1      -1.053 -38.137 -17.165  1.00  0.00    -0.064 N
ATOM     20 3H14 UNL     1      -1.743 -38.718 -16.689  1.00  0.00     0.275 HD
ATOM     21 2H14 UNL     1      -0.211 -38.649 -16.905  1.00  0.00     0.275 HD
ATOM     22 1H14 UNL     1      -1.042 -37.187 -16.793  1.00  0.00     0.275 HD
ENDBRANCH  18  19
BRANCH  18  23
HETATM   23  C18 UNL     1      -0.093 -38.724 -19.296  1.00  0.00    -0.021 A
HETATM   24  C19 UNL     1      -0.215 -39.020 -20.632  1.00  0.00     0.010 A
HETATM   25  C20 UNL     1       0.840 -39.566 -21.361  1.00  0.00     0.001 A
HETATM   26  C21 UNL     1       2.036 -39.814 -20.732  1.00  0.00     0.000 A
HETATM   27  C22 UNL     1       2.184 -39.523 -19.383  1.00  0.00     0.001 A
HETATM   28  C23 UNL     1       1.102 -38.975 -18.680  1.00  0.00     0.010 A
ENDBRANCH  18  23
ENDBRANCH  10  18
ENDBRANCH   8  10
ENDBRANCH   7   8
ENDBRANCH   6   7
ENDBRANCH   5   6
ENDBRANCH   2   5
ENDBRANCH   1   2
BRANCH   1  29
HETATM   29  C6  UNL     1      -4.402 -38.455 -24.495  1.00  0.00     0.276 C
HETATM   30  O1  UNL     1      -4.183 -39.251 -25.461  1.00  0.00    -0.269 OA
HETATM   31  N6  UNL     1      -5.526 -37.565 -24.631  1.00  0.00    -0.274 N
ATOM     32  H6  UNL     1      -5.758 -36.911 -23.884  1.00  0.00     0.189 HD
BRANCH  31  33
HETATM   33  N7  UNL     1      -6.306 -37.609 -25.818  1.00  0.00    -0.343 N
ATOM     34  H72 UNL     1      -7.123 -38.218 -25.859  1.00  0.00     0.176 HD
ATOM     35  H71 UNL     1      -6.035 -37.029 -26.612  1.00  0.00     0.176 HD
ENDBRANCH  31  33
ENDBRANCH   1  29
BRANCH   1  36
HETATM   36  C7  UNL     1      -3.068 -39.714 -22.847  1.00  0.00     0.276 C
HETATM   37  O2  UNL     1      -3.517 -40.243 -21.793  1.00  0.00    -0.269 OA
HETATM   38  N8  UNL     1      -2.080 -40.410 -23.573  1.00  0.00    -0.265 N
ATOM     39  H8  UNL     1      -1.711 -39.975 -24.418  1.00  0.00     0.190 HD
BRANCH  38  40
HETATM   40  N9  UNL     1      -1.575 -41.656 -23.205  1.00  0.00    -0.261 N
HETATM   41  C8  UNL     1      -0.436 -42.168 -23.815  1.00  0.00     0.304 C
HETATM   42  O3  UNL     1       0.159 -41.518 -24.694  1.00  0.00    -0.263 OA
ATOM     43  H9  UNL     1      -2.046 -42.198 -22.481  1.00  0.00     0.190 HD
BRANCH  41  44
HETATM   44  C9  UNL     1       0.094 -43.512 -23.428  1.00  0.00     0.184 A
HETATM   45  N10 UNL     1      -0.508 -44.225 -22.459  1.00  0.00    -0.305 N
HETATM   46  S1  UNL     1       0.424 -45.609 -22.334  1.00  0.00     0.025 SA
ATOM     47  H10 UNL     1      -1.342 -43.980 -21.925  1.00  0.00     0.176 HD
HETATM   48  C10 UNL     1       1.571 -45.241 -23.529  1.00  0.00     0.176 A
HETATM   49  N13 UNL     1       1.167 -44.048 -23.972  1.00  0.00    -0.316 N
ATOM     50  H13 UNL     1       1.676 -43.564 -24.712  1.00  0.00     0.169 HD
BRANCH  48  51
HETATM   51  N11 UNL     1       2.627 -45.891 -23.966  1.00  0.00    -0.259 N
ATOM     52  H11 UNL     1       3.115 -46.570 -23.381  1.00  0.00     0.181 HD
BRANCH  51  53
HETATM   53  S2  UNL     1       3.152 -45.549 -25.567  1.00  0.00     0.264 S
HETATM   54  O4  UNL     1       1.944 -45.671 -26.475  1.00  0.00    -0.200 OA
HETATM   55  O5  UNL     1       3.680 -44.137 -25.664  1.00  0.00    -0.200 OA
BRANCH  53  56
HETATM   56  C11 UNL     1       4.366 -46.694 -26.129  1.00  0.00     0.080 A
HETATM   57  C12 UNL     1       4.429 -47.148 -27.428  1.00  0.00     0.027 A
HETATM   58  C13 UNL     1       5.402 -48.069 -27.842  1.00  0.00     0.028 A
HETATM   59  C14 UNL     1       6.336 -48.552 -26.948  1.00  0.00     0.046 A
HETATM   60  N12 UNL     1       7.299 -49.481 -27.409  1.00  0.00    -0.102 NA
HETATM   61  C15 UNL     1       6.267 -48.094 -25.652  1.00  0.00     0.028 A
HETATM   62  C16 UNL     1       5.314 -47.191 -25.241  1.00  0.00     0.027 A
ENDBRANCH  53  56
ENDBRANCH  51  53
ENDBRANCH  48  51
ENDBRANCH  41  44
ENDBRANCH  38  40
ENDBRANCH   1  36
TORSDOF 19
ENDMDL