MODEL 5
REMARK VINA RESULT: -8.285869768      1.943      3.734
REMARK  18 active torsions:
REMARK  status: ('A' for Active; 'I' for Inactive)
REMARK    1  A    between atoms: N1_1  and  C1_4
REMARK    2  A    between atoms: N3_9  and  C3_10
REMARK    3  A    between atoms: C3_10  and  C4_11
REMARK       I    between atoms: C4_11  and  N4_13
REMARK    4  A    between atoms: N4_13  and  C5_15
REMARK    5  A    between atoms: C5_15  and  C6_16
REMARK    6  A    between atoms: C5_15  and  C7_19
REMARK       I    between atoms: C7_19  and  N5_21
REMARK    7  A    between atoms: N5_21  and  C8_23
REMARK    8  A    between atoms: C8_23  and  C9_24
REMARK    9  A    between atoms: C8_23  and  C12_31
REMARK   10  A    between atoms: C9_24  and  C10_25
REMARK   11  A    between atoms: C10_25  and  C11_26
REMARK   12  A    between atoms: C11_26  and  N6_27
REMARK   13  A    between atoms: C12_31  and  N7_32
REMARK   14  A    between atoms: C12_31  and  N8_36
REMARK       I    between atoms: N8_36  and  C13_38
REMARK   15  A    between atoms: C13_38  and  C14_40
REMARK   16  A    between atoms: C16_42  and  N9_43
REMARK   17  A    between atoms: N9_43  and  C17_45
REMARK   18  A    between atoms: C17_45  and  N10_47
REMARK       I    between atoms: N10_47  and  C18_49
ROOT
HETATM    1  C8  UNL     1       0.050 -42.536 -24.841  1.00  0.00     0.134 C
ENDROOT
BRANCH   1   2
HETATM    2  N5  UNL     1       0.485 -43.542 -25.776  1.00  0.00    -0.350 N
HETATM    3  C7  UNL     1       0.143 -44.910 -25.666  1.00  0.00     0.251 C
HETATM    4  O5  UNL     1      -0.579 -45.260 -24.701  1.00  0.00    -0.271 OA
ATOM      5  H5  UNL     1       1.070 -43.252 -26.560  1.00  0.00     0.163 HD
BRANCH   3   6
HETATM    6  C5  UNL     1       0.586 -45.952 -26.620  1.00  0.00     0.278 C
BRANCH   6   7
HETATM    7  N4  UNL     1       1.944 -45.704 -27.023  1.00  0.00    -0.338 N
HETATM    8  C4  UNL     1       2.994 -45.760 -26.090  1.00  0.00     0.237 C
HETATM    9  O2  UNL     1       2.738 -46.030 -24.892  1.00  0.00    -0.272 OA
ATOM     10  H4  UNL     1       2.148 -45.484 -27.998  1.00  0.00     0.163 HD
BRANCH   8  11
HETATM   11  C3  UNL     1       4.396 -45.507 -26.488  1.00  0.00     0.245 C
BRANCH  11  12
HETATM   12  N3  UNL     1       4.999 -46.796 -26.881  1.00  0.00    -0.258 N
HETATM   13  C2  UNL     1       4.910 -47.408 -28.064  1.00  0.00     0.335 A
HETATM   14  N2  UNL     1       5.517 -48.548 -28.216  1.00  0.00    -0.287 N
HETATM   15  O1  UNL     1       4.226 -46.846 -29.005  1.00  0.00    -0.246 OA
HETATM   16  C1  UNL     1       6.198 -49.044 -27.180  1.00  0.00     0.163 A
ATOM     17  H2  UNL     1       5.474 -49.051 -29.103  1.00  0.00     0.172 HD
HETATM   18  S3  UNL     1       5.956 -47.853 -25.982  1.00  0.00     0.029 SA
BRANCH  16  19
HETATM   19  N1  UNL     1       6.875 -50.172 -27.130  1.00  0.00    -0.378 N
ATOM     20  H12 UNL     1       7.116 -50.827 -27.873  1.00  0.00     0.158 HD
ATOM     21  H11 UNL     1       7.295 -50.609 -26.310  1.00  0.00     0.158 HD
ENDBRANCH  16  19
ENDBRANCH  11  12
ENDBRANCH   8  11
ENDBRANCH   6   7
BRANCH   6  22
HETATM   22  C6  UNL     1      -0.305 -45.916 -27.806  1.00  0.00     0.206 C
HETATM   23  O3  UNL     1      -1.120 -44.975 -27.932  1.00  0.00    -0.646 OA
HETATM   24  O4  UNL     1      -0.223 -46.906 -28.743  1.00  0.00    -0.646 OA
ENDBRANCH   6  22
ENDBRANCH   3   6
ENDBRANCH   1   2
BRANCH   1  25
HETATM   25  C9  UNL     1      -1.135 -41.748 -25.355  1.00  0.00     0.030 C
BRANCH  25  26
HETATM   26  C10 UNL     1      -2.043 -41.390 -24.224  1.00  0.00     0.029 C
BRANCH  26  27
HETATM   27  C11 UNL     1      -2.188 -42.513 -23.220  1.00  0.00     0.230 C
BRANCH  27  28
HETATM   28  N6  UNL     1      -3.402 -42.436 -22.472  1.00  0.00    -0.079 N
ATOM     29  H63 UNL     1      -3.404 -43.115 -21.710  1.00  0.00     0.274 HD
ATOM     30  H62 UNL     1      -3.441 -41.575 -21.927  1.00  0.00     0.274 HD
ATOM     31  H61 UNL     1      -4.234 -42.537 -23.053  1.00  0.00     0.274 HD
ENDBRANCH  27  28
ENDBRANCH  26  27
ENDBRANCH  25  26
ENDBRANCH   1  25
BRANCH   1  32
HETATM   32  C12 UNL     1       1.223 -41.618 -24.533  1.00  0.00     0.307 C
BRANCH  32  33
HETATM   33  N7  UNL     1       2.467 -42.229 -24.947  1.00  0.00    -0.056 N
ATOM     34  H73 UNL     1       2.351 -42.790 -25.791  1.00  0.00     0.276 HD
ATOM     35  H72 UNL     1       3.125 -41.539 -25.311  1.00  0.00     0.276 HD
ATOM     36  H71 UNL     1       2.871 -42.772 -24.184  1.00  0.00     0.276 HD
ENDBRANCH  32  33
BRANCH  32  37
HETATM   37  N8  UNL     1       1.319 -41.371 -23.104  1.00  0.00    -0.326 N
HETATM   38  C13 UNL     1       0.966 -40.115 -22.561  1.00  0.00     0.270 C
HETATM   39  O6  UNL     1       0.561 -39.211 -23.362  1.00  0.00    -0.266 OA
ATOM     40  H8  UNL     1       1.646 -42.113 -22.485  1.00  0.00     0.165 HD
BRANCH  38  41
HETATM   41  C14 UNL     1       1.039 -39.801 -21.142  1.00  0.00     0.106 A
HETATM   42  C15 UNL     1      -0.128 -39.607 -20.397  1.00  0.00     0.084 A
HETATM   43  C16 UNL     1      -0.063 -39.309 -19.055  1.00  0.00     0.111 A
HETATM   44  N12 UNL     1       1.116 -39.195 -18.419  1.00  0.00    -0.319 N
HETATM   45  C19 UNL     1       2.235 -39.381 -19.132  1.00  0.00     0.178 A
ATOM     46  H12 UNL     1       1.158 -38.974 -17.425  1.00  0.00     0.169 HD
HETATM   47  S2  UNL     1       3.659 -39.241 -18.356  1.00  0.00    -0.040 SA
HETATM   48  N13 UNL     1       2.186 -39.676 -20.465  1.00  0.00    -0.328 N
ATOM     49  H13 UNL     1       3.065 -39.808 -20.966  1.00  0.00     0.168 HD
BRANCH  43  50
HETATM   50  N9  UNL     1      -1.138 -39.131 -18.358  1.00  0.00    -0.319 N
ATOM     51  H9  UNL     1      -1.685 -38.276 -18.452  1.00  0.00     0.169 HD
BRANCH  50  52
HETATM   52  C17 UNL     1      -1.535 -40.147 -17.463  1.00  0.00     0.181 C
HETATM   53  S1  UNL     1      -1.681 -39.867 -15.885  1.00  0.00    -0.040 SA
BRANCH  52  54
HETATM   54  N10 UNL     1      -1.813 -41.444 -17.981  1.00  0.00    -0.288 N
HETATM   55  C18 UNL     1      -2.889 -41.709 -18.853  1.00  0.00     0.334 C
HETATM   56  N11 UNL     1      -3.119 -43.013 -19.336  1.00  0.00    -0.040 NA
HETATM   57  O7  UNL     1      -3.643 -40.778 -19.201  1.00  0.00    -0.251 OA
ATOM     58  H10 UNL     1      -1.205 -42.217 -17.709  1.00  0.00     0.172 HD
ENDBRANCH  52  54
ENDBRANCH  50  52
ENDBRANCH  43  50
ENDBRANCH  38  41
ENDBRANCH  32  37
ENDBRANCH   1  32
TORSDOF 18
ENDMDL