MODEL 4
REMARK VINA RESULT: -11.265442976      1.199      1.403
REMARK  17 active torsions:
REMARK  status: ('A' for Active; 'I' for Inactive)
REMARK       I    between atoms: C1_4  and  N2_5
REMARK       I    between atoms: C1_4  and  N3_8
REMARK    1  A    between atoms: N3_8  and  N4_10
REMARK    2  A    between atoms: N4_10  and  C2_11
REMARK    3  A    between atoms: C2_11  and  C3_12
REMARK    4  A    between atoms: C2_11  and  C20_52
REMARK       I    between atoms: C3_12  and  N5_14
REMARK    5  A    between atoms: N5_14  and  N6_16
REMARK    6  A    between atoms: N6_16  and  C4_18
REMARK    7  A    between atoms: C8_22  and  S1_23
REMARK    8  A    between atoms: S1_23  and  N7_26
REMARK       I    between atoms: N7_26  and  C9_27
REMARK    9  A    between atoms: C9_27  and  C10_29
REMARK   10  A    between atoms: C10_29  and  N8_30
REMARK   11  A    between atoms: C10_29  and  C11_34
REMARK   12  A    between atoms: C11_34  and  C12_36
REMARK   13  A    between atoms: C14_40  and  C15_41
REMARK   14  A    between atoms: C15_41  and  O7_42
REMARK   15  A    between atoms: C15_41  and  C16_44
REMARK   16  A    between atoms: C17_47  and  O9_48
REMARK   17  A    between atoms: C23_55  and  O10_56
ROOT
HETATM    1  C4  UNL     1       0.375 -44.164 -24.038  1.00  0.00     0.049 A
HETATM    2  C5  UNL     1      -0.701 -44.407 -24.912  1.00  0.00     0.032 A
HETATM    3  C6  UNL     1      -0.514 -45.022 -26.124  1.00  0.00     0.016 A
HETATM    4  C7  UNL     1       0.766 -45.420 -26.518  1.00  0.00     0.001 A
HETATM    5  C8  UNL     1       1.008 -46.077 -27.725  1.00  0.00     0.104 A
HETATM    6  C13 UNL     1       2.321 -46.464 -28.033  1.00  0.00     0.040 A
HETATM    7  C14 UNL     1       3.376 -46.226 -27.209  1.00  0.00     0.015 A
HETATM    8  C17 UNL     1       3.145 -45.589 -26.017  1.00  0.00     0.086 A
HETATM    9  C18 UNL     1       1.824 -45.185 -25.675  1.00  0.00     0.012 A
HETATM   10  C19 UNL     1       1.589 -44.561 -24.461  1.00  0.00     0.046 A
ENDROOT
BRANCH   1  11
HETATM   11  N6  UNL     1       0.152 -43.545 -22.808  1.00  0.00    -0.298 N
ATOM     12  H6  UNL     1       0.498 -44.056 -21.996  1.00  0.00     0.187 HD
BRANCH  11  13
HETATM   13  N5  UNL     1      -0.459 -42.357 -22.532  1.00  0.00    -0.263 N
HETATM   14  C3  UNL     1      -0.194 -41.062 -23.140  1.00  0.00     0.303 C
HETATM   15  O1  UNL     1       0.693 -40.973 -24.001  1.00  0.00    -0.263 OA
ATOM     16  H5  UNL     1      -1.186 -42.380 -21.816  1.00  0.00     0.190 HD
BRANCH  14  17
HETATM   17  C2  UNL     1      -1.036 -39.960 -22.661  1.00  0.00     0.211 C
BRANCH  17  18
HETATM   18  N4  UNL     1      -0.907 -39.581 -21.519  1.00  0.00    -0.304 NA
BRANCH  18  19
HETATM   19  N3  UNL     1      -0.787 -39.309 -20.280  1.00  0.00    -0.065 N
HETATM   20  C1  UNL     1       0.281 -39.695 -19.382  1.00  0.00     0.694 C
HETATM   21  N1  UNL     1      -0.056 -40.416 -18.395  1.00  0.00    -0.233 N
HETATM   22  N2  UNL     1       1.574 -39.292 -19.644  1.00  0.00    -0.233 N
ATOM     23  H12 UNL     1       0.696 -40.688 -17.763  1.00  0.00     0.174 HD
ATOM     24  H11 UNL     1      -1.012 -40.714 -18.201  1.00  0.00     0.174 HD
ATOM     25  H22 UNL     1       2.326 -39.564 -19.012  1.00  0.00     0.174 HD
ATOM     26  H21 UNL     1       1.845 -38.712 -20.438  1.00  0.00     0.174 HD
ATOM     27  H3  UNL     1      -1.537 -38.751 -19.871  1.00  0.00     0.221 HD
ENDBRANCH  18  19
ENDBRANCH  17  18
BRANCH  17  28
HETATM   28  C20 UNL     1      -2.138 -39.418 -23.471  1.00  0.00     0.013 A
HETATM   29  C21 UNL     1      -2.783 -40.073 -24.475  1.00  0.00     0.018 A
HETATM   30  C22 UNL     1      -3.895 -39.513 -25.094  1.00  0.00     0.037 A
HETATM   31  C23 UNL     1      -4.390 -38.295 -24.737  1.00  0.00     0.065 A
HETATM   32  C24 UNL     1      -3.753 -37.602 -23.724  1.00  0.00     0.037 A
HETATM   33  C25 UNL     1      -2.663 -38.162 -23.122  1.00  0.00     0.018 A
BRANCH  31  34
HETATM   34  O10 UNL     1      -5.517 -37.689 -25.318  1.00  0.00    -0.361 OA
ATOM     35  H10 UNL     1      -6.315 -37.470 -24.851  1.00  0.00     0.217 HD
ENDBRANCH  31  34
ENDBRANCH  17  28
ENDBRANCH  14  17
ENDBRANCH  11  13
ENDBRANCH   1  11
BRANCH   8  36
HETATM   36  O9  UNL     1       4.101 -45.317 -25.067  1.00  0.00    -0.359 OA
ATOM     37  H9  UNL     1       3.950 -44.837 -24.262  1.00  0.00     0.217 HD
ENDBRANCH   8  36
BRANCH   5  38
HETATM   38  S1  UNL     1      -0.278 -46.411 -28.824  1.00  0.00     0.328 S
HETATM   39  O2  UNL     1       0.170 -45.952 -30.269  1.00  0.00    -0.186 OA
HETATM   40  O3  UNL     1      -1.348 -45.329 -28.530  1.00  0.00    -0.186 OA
BRANCH  38  41
HETATM   41  N7  UNL     1      -1.034 -47.860 -28.866  1.00  0.00    -0.278 NA
HETATM   42  C9  UNL     1      -1.658 -49.085 -28.893  1.00  0.00     0.342 C
HETATM   43  O4  UNL     1      -1.307 -50.201 -28.509  1.00  0.00    -0.253 OA
BRANCH  42  44
HETATM   44  C10 UNL     1      -3.071 -49.141 -29.500  1.00  0.00     0.368 C
BRANCH  44  45
HETATM   45  N8  UNL     1      -3.049 -49.105 -30.915  1.00  0.00    -0.058 N
ATOM     46  H83 UNL     1      -2.546 -49.907 -31.296  1.00  0.00     0.275 HD
ATOM     47  H82 UNL     1      -3.974 -49.294 -31.302  1.00  0.00     0.275 HD
ATOM     48  H81 UNL     1      -2.672 -48.229 -31.275  1.00  0.00     0.275 HD
ENDBRANCH  44  45
BRANCH  44  49
HETATM   49  C11 UNL     1      -4.005 -48.216 -28.876  1.00  0.00     0.254 C
HETATM   50  O5  UNL     1      -3.652 -47.066 -28.558  1.00  0.00    -0.285 OA
BRANCH  49  51
HETATM   51  C12 UNL     1      -5.387 -48.641 -28.580  1.00  0.00     0.303 C
HETATM   52  N9  UNL     1      -5.557 -49.628 -27.577  1.00  0.00    -0.054 NA
HETATM   53  O6  UNL     1      -6.368 -48.174 -29.196  1.00  0.00    -0.268 OA
ENDBRANCH  49  51
ENDBRANCH  44  49
ENDBRANCH  42  44
ENDBRANCH  38  41
ENDBRANCH   5  38
BRANCH   7  54
HETATM   54  C15 UNL     1       4.797 -46.487 -27.597  1.00  0.00     0.243 C
BRANCH  54  55
HETATM   55  O7  UNL     1       4.679 -46.582 -29.058  1.00  0.00    -0.382 OA
ATOM     56  H7  UNL     1       5.594 -46.586 -29.316  1.00  0.00     0.211 HD
ENDBRANCH  54  55
BRANCH  54  57
HETATM   57  C16 UNL     1       5.299 -47.819 -27.264  1.00  0.00     0.264 C
HETATM   58  N10 UNL     1       5.543 -48.139 -25.882  1.00  0.00    -0.059 NA
HETATM   59  O8  UNL     1       5.527 -48.691 -28.131  1.00  0.00    -0.274 OA
ENDBRANCH  54  57
ENDBRANCH   7  54
TORSDOF 17
ENDMDL