MODEL 1
REMARK VINA RESULT: -10.521894070      0.000      0.000
REMARK  16 active torsions:
REMARK  status: ('A' for Active; 'I' for Inactive)
REMARK    1  A    between atoms: N1_1  and  C1_4
REMARK    2  A    between atoms: C5_15  and  N5_16
REMARK    3  A    between atoms: N5_16  and  C6_17
REMARK    4  A    between atoms: C8_22  and  N7_23
REMARK    5  A    between atoms: N7_23  and  C9_25
REMARK    6  A    between atoms: C11_27  and  C12_28
REMARK       I    between atoms: C12_28  and  N8_30
REMARK    7  A    between atoms: N8_30  and  C13_32
REMARK    8  A    between atoms: C18_37  and  C19_38
REMARK       I    between atoms: C19_38  and  N9_40
REMARK    9  A    between atoms: N9_40  and  C20_42
REMARK   10  A    between atoms: C20_42  and  C21_43
REMARK   11  A    between atoms: C20_42  and  C24_48
REMARK   12  A    between atoms: C21_43  and  C22_44
REMARK   13  A    between atoms: C22_44  and  C23_45
REMARK   14  A    between atoms: C24_48  and  N10_49
REMARK   15  A    between atoms: C25_51  and  N11_52
REMARK   16  A    between atoms: N11_52  and  N12_54
ROOT
HETATM    1  C9  UNL     1       0.720 -44.785 -23.660  1.00  0.00     0.107 A
HETATM    2  C10 UNL     1      -0.271 -43.850 -23.581  1.00  0.00     0.083 A
HETATM    3  C11 UNL     1      -1.185 -43.838 -22.514  1.00  0.00     0.108 A
HETATM    4  N13 UNL     1      -1.069 -44.763 -21.568  1.00  0.00    -0.304 N
ATOM      5  H13 UNL     1      -1.713 -44.783 -20.778  1.00  0.00     0.171 HD
HETATM    6  C26 UNL     1      -0.065 -45.691 -21.676  1.00  0.00     0.326 A
HETATM    7  O6  UNL     1       0.036 -46.570 -20.769  1.00  0.00    -0.247 OA
HETATM    8  N14 UNL     1       0.806 -45.708 -22.687  1.00  0.00    -0.295 N
ATOM      9  H14 UNL     1       1.535 -46.421 -22.722  1.00  0.00     0.172 HD
ENDROOT
BRANCH   3  10
HETATM   10  C12 UNL     1      -2.192 -42.770 -22.486  1.00  0.00     0.273 C
HETATM   11  O2  UNL     1      -3.293 -43.029 -21.977  1.00  0.00    -0.266 OA
HETATM   12  N8  UNL     1      -1.897 -41.529 -23.019  1.00  0.00    -0.321 N
ATOM     13  H8  UNL     1      -0.948 -41.443 -23.383  1.00  0.00     0.169 HD
BRANCH  12  14
HETATM   14  C13 UNL     1      -2.684 -40.352 -23.147  1.00  0.00     0.050 A
HETATM   15  C14 UNL     1      -3.225 -40.076 -24.375  1.00  0.00     0.030 A
HETATM   16  C15 UNL     1      -3.853 -38.867 -24.674  1.00  0.00     0.002 A
HETATM   17  C16 UNL     1      -3.904 -37.958 -23.657  1.00  0.00     0.001 A
HETATM   18  C17 UNL     1      -3.382 -38.183 -22.407  1.00  0.00     0.019 A
HETATM   19  C18 UNL     1      -2.758 -39.414 -22.147  1.00  0.00     0.058 A
BRANCH  19  20
HETATM   20  C19 UNL     1      -2.368 -39.708 -20.790  1.00  0.00     0.254 C
HETATM   21  O3  UNL     1      -3.218 -39.964 -19.917  1.00  0.00    -0.268 OA
HETATM   22  N9  UNL     1      -1.007 -39.737 -20.325  1.00  0.00    -0.351 N
ATOM     23  H9  UNL     1      -0.237 -39.563 -20.970  1.00  0.00     0.163 HD
BRANCH  22  24
HETATM   24  C20 UNL     1      -0.738 -40.025 -18.889  1.00  0.00     0.103 C
BRANCH  24  25
HETATM   25  C21 UNL     1      -0.472 -41.475 -18.718  1.00  0.00     0.037 C
BRANCH  25  26
HETATM   26  C22 UNL     1      -1.490 -42.347 -18.089  1.00  0.00     0.115 C
BRANCH  26  27
HETATM   27  C23 UNL     1      -1.613 -43.734 -18.456  1.00  0.00     0.172 C
HETATM   28  O4  UNL     1      -0.653 -44.570 -18.284  1.00  0.00    -0.648 OA
HETATM   29  O5  UNL     1      -2.800 -44.207 -19.018  1.00  0.00    -0.648 OA
ENDBRANCH  26  27
ENDBRANCH  25  26
ENDBRANCH  24  25
BRANCH  24  30
HETATM   30  C24 UNL     1       0.266 -39.057 -18.388  1.00  0.00     0.145 C
BRANCH  30  31
HETATM   31  N10 UNL     1       1.604 -39.696 -18.268  1.00  0.00    -0.383 N
HETATM   32  C25 UNL     1       2.538 -39.317 -19.075  1.00  0.00     0.192 C
ATOM     33  H10 UNL     1       1.779 -40.416 -17.566  1.00  0.00     0.160 HD
BRANCH  32  34
HETATM   34  N11 UNL     1       3.821 -39.876 -19.011  1.00  0.00    -0.303 N
ATOM     35  H11 UNL     1       4.162 -40.441 -19.789  1.00  0.00     0.187 HD
BRANCH  34  36
HETATM   36  N12 UNL     1       4.632 -39.673 -17.907  1.00  0.00    -0.344 N
ATOM     37 2H12 UNL     1       4.267 -39.911 -16.985  1.00  0.00     0.176 HD
ATOM     38 1H12 UNL     1       5.573 -39.293 -18.010  1.00  0.00     0.176 HD
ENDBRANCH  34  36
ENDBRANCH  32  34
ENDBRANCH  30  31
ENDBRANCH  24  30
ENDBRANCH  22  24
ENDBRANCH  19  20
ENDBRANCH  12  14
ENDBRANCH   3  10
BRANCH   1  39
HETATM   39  N7  UNL     1       1.667 -44.771 -24.747  1.00  0.00    -0.365 N
ATOM     40  H7  UNL     1       1.665 -45.501 -25.460  1.00  0.00     0.161 HD
BRANCH  39  41
HETATM   41  C8  UNL     1       2.626 -43.681 -24.788  1.00  0.00     0.172 C
HETATM   42  C6  UNL     1       3.472 -43.698 -26.054  1.00  0.00     0.387 C
HETATM   43  N6  UNL     1       2.425 -42.811 -26.656  1.00  0.00    -0.039 N
HETATM   44  C7  UNL     1       2.072 -42.405 -25.333  1.00  0.00     0.266 C
ATOM     45  H62 UNL     1       2.671 -42.121 -27.365  1.00  0.00     0.281 HD
ATOM     46  H61 UNL     1       1.722 -43.190 -27.290  1.00  0.00     0.281 HD
BRANCH  42  47
HETATM   47  N5  UNL     1       3.599 -44.824 -26.755  1.00  0.00    -0.392 NA
BRANCH  47  48
HETATM   48  C5  UNL     1       3.952 -45.811 -27.298  1.00  0.00     0.206 A
HETATM   49  N4  UNL     1       3.510 -46.142 -28.578  1.00  0.00    -0.326 N
HETATM   50  C4  UNL     1       3.880 -47.235 -29.212  1.00  0.00     0.183 A
ATOM     51  H4  UNL     1       2.866 -45.505 -29.047  1.00  0.00     0.169 HD
HETATM   52  N3  UNL     1       4.719 -48.126 -28.669  1.00  0.00    -0.346 N
HETATM   53  C3  UNL     1       5.212 -47.916 -27.441  1.00  0.00     0.135 A
ATOM     54  H3  UNL     1       4.983 -48.963 -29.188  1.00  0.00     0.167 HD
HETATM   55  C2  UNL     1       6.066 -48.849 -26.884  1.00  0.00     0.288 A
HETATM   56  C27 UNL     1       4.845 -46.792 -26.767  1.00  0.00     0.139 A
HETATM   57  N2  UNL     1       6.519 -48.592 -25.644  1.00  0.00    -0.154 N
HETATM   58  O1  UNL     1       6.443 -49.897 -27.444  1.00  0.00    -0.265 OA
HETATM   59  C1  UNL     1       6.156 -47.484 -24.982  1.00  0.00     0.679 A
ATOM     60  H2  UNL     1       7.153 -49.255 -25.198  1.00  0.00     0.187 HD
HETATM   61  N15 UNL     1       5.310 -46.553 -25.525  1.00  0.00    -0.185 N
ATOM     62  H15 UNL     1       5.043 -45.714 -25.010  1.00  0.00     0.184 HD
BRANCH  59  63
HETATM   63  N1  UNL     1       6.595 -47.235 -23.777  1.00  0.00    -0.234 N
ATOM     64  H12 UNL     1       7.607 -47.251 -23.652  1.00  0.00     0.174 HD
ATOM     65  H11 UNL     1       5.956 -47.038 -23.007  1.00  0.00     0.174 HD
ENDBRANCH  59  63
ENDBRANCH  47  48
ENDBRANCH  42  47
ENDBRANCH  39  41
ENDBRANCH   1  39
TORSDOF 16
ENDMDL