MODEL 4
REMARK VINA RESULT: -10.621876198      1.148      1.944
REMARK  17 active torsions:
REMARK  status: ('A' for Active; 'I' for Inactive)
REMARK    1  A    between atoms: N1_1  and  C1_4
REMARK    2  A    between atoms: C2_7  and  N3_8
REMARK    3  A    between atoms: C4_14  and  C5_15
REMARK    4  A    between atoms: C5_15  and  N5_16
REMARK       I    between atoms: N5_16  and  C6_18
REMARK    5  A    between atoms: C6_18  and  C7_20
REMARK    6  A    between atoms: C8_22  and  C9_23
REMARK    7  A    between atoms: C11_27  and  C12_28
REMARK    8  A    between atoms: C12_28  and  O4_29
REMARK    9  A    between atoms: C12_28  and  N7_31
REMARK   10  A    between atoms: N7_31  and  C13_33
REMARK   11  A    between atoms: C13_33  and  C14_34
REMARK   12  A    between atoms: C13_33  and  C18_42
REMARK   13  A    between atoms: C14_34  and  C15_35
REMARK   14  A    between atoms: C15_35  and  C16_36
REMARK   15  A    between atoms: C16_36  and  N8_37
REMARK       I    between atoms: C18_42  and  N11_44
REMARK   16  A    between atoms: N11_44  and  N12_46
REMARK   17  A    between atoms: C23_55  and  N15_56
ROOT
HETATM    1  C7  UNL     1       0.112 -43.002 -23.897  1.00  0.00     0.158 A
HETATM    2  O2  UNL     1      -0.194 -43.969 -23.014  1.00  0.00    -0.299 OA
HETATM    3  C8  UNL     1      -1.410 -43.855 -22.587  1.00  0.00     0.142 A
HETATM    4  C10 UNL     1      -1.959 -42.765 -23.202  1.00  0.00     0.061 A
HETATM    5  C11 UNL     1      -0.969 -42.212 -24.052  1.00  0.00     0.057 A
ENDROOT
BRANCH   5   6
HETATM    6  C12 UNL     1      -1.167 -41.032 -24.868  1.00  0.00     0.150 C
BRANCH   6   7
HETATM    7  O4  UNL     1      -1.156 -41.221 -26.167  1.00  0.00    -0.346 OA
ATOM      8  H4  UNL     1      -1.586 -40.555 -26.689  1.00  0.00     0.219 HD
ENDBRANCH   6   7
BRANCH   6   9
HETATM    9  N7  UNL     1      -1.378 -39.710 -24.504  1.00  0.00    -0.357 N
ATOM     10  H7  UNL     1      -0.706 -39.003 -24.804  1.00  0.00     0.162 HD
BRANCH   9  11
HETATM   11  C13 UNL     1      -2.540 -39.290 -23.696  1.00  0.00     0.177 C
BRANCH  11  12
HETATM   12  C14 UNL     1      -3.203 -38.106 -24.305  1.00  0.00     0.036 C
BRANCH  12  13
HETATM   13  C15 UNL     1      -4.587 -38.399 -24.787  1.00  0.00     0.022 C
BRANCH  13  14
HETATM   14  C16 UNL     1      -5.553 -37.386 -24.208  1.00  0.00     0.122 C
BRANCH  14  15
HETATM   15  N8  UNL     1      -5.088 -37.034 -22.912  1.00  0.00    -0.367 N
HETATM   16  C17 UNL     1      -5.605 -36.139 -22.180  1.00  0.00     0.196 C
HETATM   17  N9  UNL     1      -6.723 -35.389 -22.602  1.00  0.00    -0.067 NA
HETATM   18  N10 UNL     1      -5.045 -35.893 -20.904  1.00  0.00    -0.067 NA
ATOM     19  H8  UNL     1      -4.280 -37.539 -22.545  1.00  0.00     0.161 HD
ENDBRANCH  14  15
ENDBRANCH  13  14
ENDBRANCH  12  13
ENDBRANCH  11  12
BRANCH  11  20
HETATM   20  C18 UNL     1      -2.012 -38.863 -22.345  1.00  0.00     0.259 C
HETATM   21  O5  UNL     1      -2.054 -37.669 -22.070  1.00  0.00    -0.269 OA
HETATM   22  N11 UNL     1      -1.506 -39.841 -21.488  1.00  0.00    -0.261 N
ATOM     23  H11 UNL     1      -1.516 -40.804 -21.826  1.00  0.00     0.190 HD
BRANCH  22  24
HETATM   24  N12 UNL     1      -0.981 -39.620 -20.194  1.00  0.00    -0.259 N
HETATM   25  C19 UNL     1      -1.702 -39.392 -19.079  1.00  0.00     0.119 A
HETATM   26  C20 UNL     1      -0.848 -39.207 -17.983  1.00  0.00     0.051 A
HETATM   27  C21 UNL     1       0.415 -39.333 -18.488  1.00  0.00     0.067 A
HETATM   28  N13 UNL     1       1.600 -39.234 -17.836  1.00  0.00    -0.350 N
HETATM   29  C24 UNL     1       0.315 -39.584 -19.830  1.00  0.00     0.126 A
HETATM   30  C22 UNL     1       2.722 -39.392 -18.549  1.00  0.00     0.182 A
ATOM     31  H13 UNL     1       1.635 -39.045 -16.835  1.00  0.00     0.166 HD
HETATM   32  N14 UNL     1       2.661 -39.635 -19.843  1.00  0.00    -0.337 N
HETATM   33  C23 UNL     1       1.481 -39.747 -20.564  1.00  0.00     0.131 A
ATOM     34  H14 UNL     1       3.539 -39.748 -20.349  1.00  0.00     0.168 HD
BRANCH  33  35
HETATM   35  N15 UNL     1       1.545 -39.968 -21.753  1.00  0.00    -0.383 N
ATOM     36 2H15 UNL     1       2.122 -39.461 -22.424  1.00  0.00     0.157 HD
ATOM     37 1H15 UNL     1       0.984 -40.726 -22.140  1.00  0.00     0.157 HD
ENDBRANCH  33  35
ENDBRANCH  22  24
ENDBRANCH  11  20
ENDBRANCH   9  11
ENDBRANCH   6   9
ENDBRANCH   5   6
BRANCH   1  38
HETATM   38  C6  UNL     1       1.433 -42.970 -24.500  1.00  0.00     0.276 C
HETATM   39  N5  UNL     1       1.946 -43.723 -25.548  1.00  0.00    -0.350 N
ATOM     40  H5  UNL     1       1.342 -44.411 -25.998  1.00  0.00     0.163 HD
HETATM   41  O1  UNL     1       2.249 -42.105 -23.985  1.00  0.00    -0.265 OA
BRANCH  39  42
HETATM   42  C5  UNL     1       3.297 -43.575 -26.023  1.00  0.00     0.181 C
BRANCH  42  43
HETATM   43  C4  UNL     1       3.918 -44.788 -26.556  1.00  0.00     0.043 A
HETATM   44  N4  UNL     1       4.626 -45.598 -25.755  1.00  0.00    -0.351 N
HETATM   45  C3  UNL     1       5.187 -46.710 -26.236  1.00  0.00     0.122 A
ATOM     46  H4  UNL     1       4.737 -45.362 -24.769  1.00  0.00     0.166 HD
HETATM   47  C2  UNL     1       5.920 -47.540 -25.393  1.00  0.00     0.145 A
HETATM   48  C26 UNL     1       5.075 -47.084 -27.555  1.00  0.00     0.151 A
HETATM   49  N2  UNL     1       6.489 -48.668 -25.885  1.00  0.00    -0.175 N
HETATM   50  C1  UNL     1       6.368 -49.015 -27.175  1.00  0.00     0.679 A
ATOM     51  H2  UNL     1       7.024 -49.269 -25.257  1.00  0.00     0.186 HD
HETATM   52  N17 UNL     1       5.663 -48.225 -28.005  1.00  0.00    -0.174 N
ATOM     53  H17 UNL     1       5.568 -48.487 -28.986  1.00  0.00     0.186 HD
HETATM   54  N16 UNL     1       4.364 -46.273 -28.372  1.00  0.00    -0.348 N
HETATM   55  C25 UNL     1       3.795 -45.139 -27.871  1.00  0.00     0.116 A
ATOM     56  H16 UNL     1       4.254 -46.508 -29.358  1.00  0.00     0.167 HD
BRANCH  47  57
HETATM   57  N3  UNL     1       6.009 -47.168 -24.170  1.00  0.00    -0.383 N
ATOM     58  H32 UNL     1       6.380 -47.856 -23.515  1.00  0.00     0.157 HD
ATOM     59  H31 UNL     1       5.734 -46.245 -23.834  1.00  0.00     0.157 HD
ENDBRANCH  47  57
BRANCH  50  60
HETATM   60  N1  UNL     1       6.918 -50.094 -27.619  1.00  0.00    -0.234 N
ATOM     61  H12 UNL     1       7.932 -50.196 -27.602  1.00  0.00     0.174 HD
ATOM     62  H11 UNL     1       6.346 -50.851 -27.992  1.00  0.00     0.174 HD
ENDBRANCH  50  60
ENDBRANCH  42  43
ENDBRANCH  39  42
ENDBRANCH   1  38
BRANCH   3  63
HETATM   63  C9  UNL     1      -2.063 -44.751 -21.612  1.00  0.00     0.288 C
HETATM   64  N6  UNL     1      -1.970 -44.497 -20.234  1.00  0.00    -0.055 NA
HETATM   65  O3  UNL     1      -2.700 -45.739 -22.022  1.00  0.00    -0.269 OA
ENDBRANCH   3  63
TORSDOF 17
ENDMDL