MODEL 5
REMARK VINA RESULT: -9.904609533      0.572      1.174
REMARK  19 active torsions:
REMARK  status: ('A' for Active; 'I' for Inactive)
REMARK    1  A    between atoms: N1_1  and  C1_4
REMARK    2  A    between atoms: C2_7  and  N3_8
REMARK    3  A    between atoms: C3_13  and  N5_14
REMARK    4  A    between atoms: N5_14  and  C4_16
REMARK    5  A    between atoms: C4_16  and  C5_17
REMARK       I    between atoms: C5_17  and  N6_19
REMARK    6  A    between atoms: N6_19  and  C6_21
REMARK    7  A    between atoms: C6_21  and  C7_22
REMARK    8  A    between atoms: C7_22  and  N7_23
REMARK    9  A    between atoms: C7_22  and  C11_34
REMARK       I    between atoms: N7_23  and  C8_25
REMARK   10  A    between atoms: C8_25  and  C9_27
REMARK   11  A    between atoms: C9_27  and  N8_28
REMARK   12  A    between atoms: C9_27  and  C10_32
REMARK       I    between atoms: C11_34  and  N9_36
REMARK   13  A    between atoms: N9_36  and  C12_38
REMARK   14  A    between atoms: C12_38  and  C13_39
REMARK   15  A    between atoms: C14_40  and  C15_41
REMARK   16  A    between atoms: C15_41  and  O5_43
REMARK   17  A    between atoms: O5_43  and  N10_44
REMARK   18  A    between atoms: N12_50  and  C17_51
REMARK   19  A    between atoms: C17_51  and  C18_52
ROOT
HETATM    1  C7  UNL     1      -0.229 -46.343 -28.687  1.00  0.00     0.194 C
ENDROOT
BRANCH   1   2
HETATM    2  C6  UNL     1       0.755 -46.070 -29.775  1.00  0.00     0.157 C
BRANCH   2   3
HETATM    3  N6  UNL     1       2.038 -45.593 -29.370  1.00  0.00    -0.357 N
HETATM    4  C5  UNL     1       3.109 -46.504 -29.321  1.00  0.00     0.235 C
HETATM    5  O1  UNL     1       2.957 -47.694 -29.621  1.00  0.00    -0.272 OA
ATOM      6  H6  UNL     1       2.175 -44.613 -29.121  1.00  0.00     0.162 HD
BRANCH   4   7
HETATM    7  C4  UNL     1       4.470 -46.017 -28.895  1.00  0.00     0.240 C
BRANCH   7   8
HETATM    8  N5  UNL     1       4.628 -46.082 -27.488  1.00  0.00    -0.216 N
ATOM      9  H5  UNL     1       4.137 -45.360 -26.960  1.00  0.00     0.178 HD
BRANCH   8  10
HETATM   10  C3  UNL     1       5.289 -46.905 -26.793  1.00  0.00     0.707 A
HETATM   11  N4  UNL     1       5.693 -48.092 -27.320  1.00  0.00    -0.022 N
HETATM   12  C2  UNL     1       6.390 -48.979 -26.607  1.00  0.00     0.705 A
ATOM     13  H4  UNL     1       5.457 -48.311 -28.287  1.00  0.00     0.203 HD
HETATM   14  N2  UNL     1       6.731 -48.737 -25.313  1.00  0.00    -0.022 N
HETATM   15  C1  UNL     1       6.333 -47.577 -24.813  1.00  0.00     0.705 A
ATOM     16  H2  UNL     1       7.264 -49.409 -24.760  1.00  0.00     0.203 HD
HETATM   17  N14 UNL     1       5.625 -46.671 -25.529  1.00  0.00    -0.022 N
ATOM     18  H14 UNL     1       5.345 -45.794 -25.089  1.00  0.00     0.203 HD
BRANCH  12  19
HETATM   19  N3  UNL     1       6.759 -50.098 -27.136  1.00  0.00    -0.234 N
ATOM     20  H32 UNL     1       7.617 -50.151 -27.685  1.00  0.00     0.174 HD
ATOM     21  H31 UNL     1       6.172 -50.919 -26.987  1.00  0.00     0.174 HD
ENDBRANCH  12  19
BRANCH  15  22
HETATM   22  N1  UNL     1       6.652 -47.327 -23.586  1.00  0.00    -0.234 N
ATOM     23  H12 UNL     1       7.509 -46.817 -23.375  1.00  0.00     0.174 HD
ATOM     24  H11 UNL     1       6.014 -47.664 -22.864  1.00  0.00     0.174 HD
ENDBRANCH  15  22
ENDBRANCH   8  10
ENDBRANCH   7   8
ENDBRANCH   4   7
ENDBRANCH   2   3
ENDBRANCH   1   2
BRANCH   1  25
HETATM   25  N7  UNL     1      -0.843 -47.643 -28.725  1.00  0.00    -0.344 N
HETATM   26  C8  UNL     1      -2.231 -47.909 -28.763  1.00  0.00     0.249 C
HETATM   27  O2  UNL     1      -3.042 -46.961 -28.777  1.00  0.00    -0.271 OA
ATOM     28  H7  UNL     1      -0.219 -48.449 -28.726  1.00  0.00     0.163 HD
BRANCH  26  29
HETATM   29  C9  UNL     1      -2.760 -49.299 -28.785  1.00  0.00     0.284 C
BRANCH  29  30
HETATM   30  N8  UNL     1      -1.876 -50.234 -29.407  1.00  0.00    -0.066 N
ATOM     31  H83 UNL     1      -1.697 -51.028 -28.791  1.00  0.00     0.275 HD
ATOM     32  H82 UNL     1      -2.342 -50.718 -30.174  1.00  0.00     0.275 HD
ATOM     33  H81 UNL     1      -1.000 -49.817 -29.722  1.00  0.00     0.275 HD
ENDBRANCH  29  30
BRANCH  29  34
HETATM   34  C10 UNL     1      -4.050 -49.299 -29.626  1.00  0.00     0.128 C
HETATM   35  S1  UNL     1      -5.500 -49.013 -28.604  1.00  0.00    -0.095 SA
ENDBRANCH  29  34
ENDBRANCH  26  29
ENDBRANCH   1  25
BRANCH   1  36
HETATM   36  C11 UNL     1       0.160 -45.966 -27.334  1.00  0.00     0.246 C
HETATM   37  O3  UNL     1       1.199 -46.471 -26.802  1.00  0.00    -0.271 OA
HETATM   38  N9  UNL     1      -0.568 -45.040 -26.523  1.00  0.00    -0.333 N
ATOM     39  H9  UNL     1      -1.397 -44.599 -26.922  1.00  0.00     0.168 HD
BRANCH  38  40
HETATM   40  C12 UNL     1      -0.207 -44.704 -25.212  1.00  0.00     0.123 C
BRANCH  40  41
HETATM   41  C13 UNL     1       0.198 -43.373 -24.760  1.00  0.00     0.084 A
HETATM   42  C14 UNL     1       1.541 -42.946 -25.040  1.00  0.00     0.139 A
HETATM   43  N11 UNL     1       1.622 -41.732 -24.506  1.00  0.00    -0.345 N
HETATM   44  C16 UNL     1       0.506 -41.368 -23.936  1.00  0.00     0.184 A
ATOM     45  H11 UNL     1       2.460 -41.151 -24.539  1.00  0.00     0.167 HD
HETATM   46  N12 UNL     1      -0.401 -42.399 -24.088  1.00  0.00    -0.334 N
BRANCH  42  47
HETATM   47  C15 UNL     1       2.566 -43.709 -25.733  1.00  0.00     0.333 C
HETATM   48  O4  UNL     1       2.837 -43.616 -26.941  1.00  0.00    -0.256 OA
BRANCH  47  49
HETATM   49  O5  UNL     1       3.343 -44.645 -25.022  1.00  0.00    -0.201 OA
BRANCH  49  50
HETATM   50  N10 UNL     1       2.725 -45.736 -24.473  1.00  0.00    -0.302 N
ATOM     51 2H10 UNL     1       1.746 -45.922 -24.690  1.00  0.00     0.184 HD
ATOM     52 1H10 UNL     1       3.260 -46.346 -23.854  1.00  0.00     0.184 HD
ENDBRANCH  49  50
ENDBRANCH  47  49
ENDBRANCH  42  47
BRANCH  46  53
HETATM   53  C17 UNL     1      -1.714 -42.348 -23.478  1.00  0.00     0.187 C
BRANCH  53  54
HETATM   54  C18 UNL     1      -2.259 -40.944 -23.549  1.00  0.00     0.028 A
HETATM   55  C19 UNL     1      -3.148 -40.616 -24.575  1.00  0.00     0.027 A
HETATM   56  C20 UNL     1      -3.684 -39.358 -24.719  1.00  0.00     0.015 A
HETATM   57  C21 UNL     1      -3.340 -38.370 -23.822  1.00  0.00    -0.009 A
HETATM   58  C22 UNL     1      -3.844 -37.087 -23.917  1.00  0.00     0.013 A
HETATM   59  C26 UNL     1      -2.454 -38.717 -22.808  1.00  0.00     0.042 A
HETATM   60  C23 UNL     1      -3.501 -36.094 -23.026  1.00  0.00     0.001 A
HETATM   61  C24 UNL     1      -2.623 -36.423 -22.014  1.00  0.00     0.002 A
HETATM   62  C25 UNL     1      -2.116 -37.709 -21.917  1.00  0.00     0.030 A
HETATM   63  N13 UNL     1      -1.943 -39.973 -22.694  1.00  0.00    -0.358 N
ATOM     64  H13 UNL     1      -1.297 -40.176 -21.931  1.00  0.00     0.166 HD
ENDBRANCH  53  54
ENDBRANCH  46  53
ENDBRANCH  40  41
ENDBRANCH  38  40
ENDBRANCH   1  36
TORSDOF 19
ENDMDL