MODEL 1
REMARK VINA RESULT: -10.252396241      0.000      0.000
REMARK  16 active torsions:
REMARK  status: ('A' for Active; 'I' for Inactive)
REMARK    1  A    between atoms: N1_1  and  C1_4
REMARK    2  A    between atoms: N3_8  and  C3_10
REMARK    3  A    between atoms: C3_10  and  C4_11
REMARK    4  A    between atoms: C4_11  and  C5_12
REMARK    5  A    between atoms: C5_12  and  C6_13
REMARK    6  A    between atoms: C6_13  and  C7_14
REMARK    7  A    between atoms: C7_14  and  C8_15
REMARK    8  A    between atoms: C8_15  and  C9_16
REMARK    9  A    between atoms: C9_16  and  N4_17
REMARK       I    between atoms: N4_17  and  C10_19
REMARK   10  A    between atoms: C10_19  and  C11_21
REMARK   11  A    between atoms: C11_21  and  N5_22
REMARK   12  A    between atoms: C18_36  and  N9_37
REMARK   13  A    between atoms: N9_37  and  C19_38
REMARK   14  A    between atoms: C20_43  and  N12_44
REMARK       I    between atoms: N12_44  and  C21_46
REMARK   15  A    between atoms: C21_46  and  C22_48
REMARK   16  A    between atoms: C24_55  and  N15_56
ROOT
HETATM    1  C1  UNL     1       0.543 -45.730 -22.056  1.00  0.00     0.678 A
HETATM    2  N2  UNL     1       1.546 -46.233 -22.780  1.00  0.00    -0.174 N
ATOM      3  H2  UNL     1       1.956 -47.123 -22.497  1.00  0.00     0.186 HD
HETATM    4  C2  UNL     1       2.045 -45.600 -23.889  1.00  0.00     0.150 A
HETATM    5  N3  UNL     1       2.997 -46.064 -24.544  1.00  0.00    -0.354 N
ATOM      6  H3  UNL     1       3.305 -46.938 -24.118  1.00  0.00     0.166 HD
HETATM    7  C16 UNL     1       1.423 -44.389 -24.200  1.00  0.00     0.110 A
HETATM    8  N7  UNL     1       1.804 -43.650 -25.241  1.00  0.00    -0.347 N
ATOM      9  H7  UNL     1       2.566 -43.985 -25.832  1.00  0.00     0.167 HD
HETATM   10  C17 UNL     1       1.218 -42.479 -25.538  1.00  0.00     0.183 A
HETATM   11  N8  UNL     1       0.217 -41.987 -24.809  1.00  0.00    -0.325 N
ATOM     12  H8  UNL     1      -0.202 -41.095 -25.069  1.00  0.00     0.169 HD
HETATM   13  C18 UNL     1      -0.261 -42.665 -23.707  1.00  0.00     0.213 A
HETATM   14  C26 UNL     1       0.394 -43.895 -23.438  1.00  0.00     0.138 A
HETATM   15  N18 UNL     1      -0.051 -44.558 -22.367  1.00  0.00    -0.185 N
ATOM     16  H18 UNL     1      -0.817 -44.191 -21.802  1.00  0.00     0.184 HD
ENDROOT
BRANCH  13  17
HETATM   17  N9  UNL     1      -1.149 -42.269 -23.021  1.00  0.00    -0.348 NA
BRANCH  17  18
HETATM   18  C19 UNL     1      -2.140 -41.826 -22.253  1.00  0.00     0.290 A
HETATM   19  N10 UNL     1      -3.336 -41.273 -22.659  1.00  0.00    -0.244 N
HETATM   20  N11 UNL     1      -4.047 -40.963 -21.610  1.00  0.00    -0.128 N
ATOM     21  H10 UNL     1      -3.621 -41.128 -23.627  1.00  0.00     0.191 HD
HETATM   22  C20 UNL     1      -3.388 -41.281 -20.487  1.00  0.00     0.703 A
ATOM     23  H11 UNL     1      -4.974 -40.539 -21.639  1.00  0.00     0.205 HD
HETATM   24  N17 UNL     1      -2.236 -41.802 -20.876  1.00  0.00    -0.146 N
ATOM     25  H17 UNL     1      -1.513 -42.142 -20.241  1.00  0.00     0.188 HD
BRANCH  22  26
HETATM   26  N12 UNL     1      -3.823 -41.107 -19.258  1.00  0.00    -0.153 N
HETATM   27  C21 UNL     1      -2.857 -41.283 -18.231  1.00  0.00     0.288 C
HETATM   28  O2  UNL     1      -2.298 -40.309 -17.717  1.00  0.00    -0.265 OA
ATOM     29  H12 UNL     1      -4.791 -40.861 -19.056  1.00  0.00     0.187 HD
BRANCH  27  30
HETATM   30  C22 UNL     1      -2.572 -42.667 -17.823  1.00  0.00     0.133 A
HETATM   31  N13 UNL     1      -1.520 -43.350 -18.282  1.00  0.00    -0.302 N
HETATM   32  C23 UNL     1      -1.285 -44.624 -17.871  1.00  0.00     0.326 A
ATOM     33  H13 UNL     1      -0.884 -42.911 -18.948  1.00  0.00     0.171 HD
HETATM   34  O3  UNL     1      -0.302 -45.265 -18.298  1.00  0.00    -0.247 OA
HETATM   35  N14 UNL     1      -2.118 -45.219 -16.990  1.00  0.00    -0.293 N
HETATM   36  C24 UNL     1      -3.186 -44.574 -16.503  1.00  0.00     0.130 A
ATOM     37  H14 UNL     1      -1.930 -46.176 -16.690  1.00  0.00     0.172 HD
HETATM   38  C25 UNL     1      -3.412 -43.285 -16.927  1.00  0.00     0.122 A
HETATM   39  N16 UNL     1      -4.542 -42.553 -16.442  1.00  0.00    -0.096 NA
BRANCH  36  40
HETATM   40  N15 UNL     1      -3.954 -45.171 -15.679  1.00  0.00    -0.384 N
ATOM     41 2H15 UNL     1      -4.669 -45.836 -15.976  1.00  0.00     0.157 HD
ATOM     42 1H15 UNL     1      -3.854 -44.988 -14.681  1.00  0.00     0.157 HD
ENDBRANCH  36  40
ENDBRANCH  27  30
ENDBRANCH  22  26
ENDBRANCH  17  18
ENDBRANCH  13  17
BRANCH   1  43
HETATM   43  N1  UNL     1       0.075 -46.333 -21.007  1.00  0.00    -0.234 N
ATOM     44  H12 UNL     1      -0.941 -46.331 -20.917  1.00  0.00     0.174 HD
ATOM     45  H11 UNL     1       0.681 -46.781 -20.319  1.00  0.00     0.174 HD
ENDBRANCH   1  43
BRANCH   5  46
HETATM   46  C3  UNL     1       3.773 -45.798 -25.647  1.00  0.00     0.062 C
BRANCH  46  47
HETATM   47  C4  UNL     1       5.043 -46.502 -25.920  1.00  0.00     0.044 C
BRANCH  47  48
HETATM   48  C5  UNL     1       5.046 -47.842 -26.532  1.00  0.00     0.005 C
BRANCH  48  49
HETATM   49  C6  UNL     1       5.349 -47.943 -27.982  1.00  0.00     0.000 C
BRANCH  49  50
HETATM   50  C7  UNL     1       4.723 -46.823 -28.787  1.00  0.00     0.002 C
BRANCH  50  51
HETATM   51  C8  UNL     1       3.313 -47.167 -29.229  1.00  0.00     0.020 C
BRANCH  51  52
HETATM   52  C9  UNL     1       2.327 -46.138 -28.783  1.00  0.00     0.123 C
BRANCH  52  53
HETATM   53  N4  UNL     1       1.025 -46.326 -29.352  1.00  0.00    -0.356 N
HETATM   54  C10 UNL     1      -0.162 -46.412 -28.577  1.00  0.00     0.256 C
HETATM   55  O1  UNL     1       0.003 -46.305 -27.303  1.00  0.00    -0.267 OA
ATOM     56  H4  UNL     1       0.948 -46.401 -30.366  1.00  0.00     0.162 HD
BRANCH  54  57
HETATM   57  C11 UNL     1      -1.525 -46.604 -29.094  1.00  0.00     0.160 C
BRANCH  57  58
HETATM   58  N5  UNL     1      -2.189 -47.782 -28.834  1.00  0.00    -0.382 N
HETATM   59  C12 UNL     1      -3.518 -47.898 -28.453  1.00  0.00     0.150 C
HETATM   60  C13 UNL     1      -4.109 -49.097 -29.229  1.00  0.00     0.252 C
HETATM   61  N6  UNL     1      -3.290 -49.398 -30.384  1.00  0.00    -0.072 N
HETATM   62  C14 UNL     1      -1.937 -49.816 -30.011  1.00  0.00     0.252 C
ATOM     63  H62 UNL     1      -3.737 -50.091 -30.984  1.00  0.00     0.277 HD
ATOM     64  H61 UNL     1      -3.266 -48.612 -31.034  1.00  0.00     0.277 HD
HETATM   65  C15 UNL     1      -1.468 -49.002 -28.799  1.00  0.00     0.150 C
ENDBRANCH  57  58
ENDBRANCH  54  57
ENDBRANCH  52  53
ENDBRANCH  51  52
ENDBRANCH  50  51
ENDBRANCH  49  50
ENDBRANCH  48  49
ENDBRANCH  47  48
ENDBRANCH  46  47
ENDBRANCH   5  46
TORSDOF 16
ENDMDL