MODEL 2
REMARK VINA RESULT: -6.863244124      0.793      1.528
REMARK  4 active torsions:
REMARK  status: ('A' for Active; 'I' for Inactive)
REMARK    1  A    between atoms: C4_5  and  S1_6
REMARK    2  A    between atoms: S1_6  and  C5_7
REMARK    3  A    between atoms: C7_12  and  C8_13
REMARK    4  A    between atoms: C11_16  and  N3_17
ROOT
HETATM    1  C5  UNL     1      16.681  18.285  17.184  1.00  0.00     0.075 C
HETATM    2  C6  UNL     1      17.455  18.034  15.917  1.00  0.00     0.248 C
HETATM    3  N2  UNL     1      16.451  17.319  15.100  1.00  0.00    -0.066 N
ATOM      4  H21 UNL     1      16.733  17.070  14.152  1.00  0.00     0.278 HD
ATOM      5  H22 UNL     1      15.644  17.862  14.796  1.00  0.00     0.278 HD
HETATM    6  C7  UNL     1      16.180  16.211  16.006  1.00  0.00     0.220 C
HETATM    7  C18 UNL     1      15.897  16.966  17.304  1.00  0.00     0.055 C
ENDROOT
BRANCH   6   8
HETATM    8  C8  UNL     1      15.062  15.367  15.601  1.00  0.00    -0.025 A
HETATM    9  C9  UNL     1      15.121  14.006  15.751  1.00  0.00     0.012 A
HETATM   10  C10 UNL     1      14.040  13.204  15.364  1.00  0.00     0.034 A
HETATM   11  C11 UNL     1      12.898  13.758  14.827  1.00  0.00     0.077 A
HETATM   12  C16 UNL     1      12.859  15.129  14.685  1.00  0.00     0.144 A
HETATM   13  F1  UNL     1      11.763  15.738  14.165  1.00  0.00    -0.204 F
HETATM   14  C17 UNL     1      13.931  15.931  15.068  1.00  0.00     0.054 A
BRANCH  11  15
HETATM   15  N3  UNL     1      11.764  13.008  14.413  1.00  0.00    -0.330 N
HETATM   16  C12 UNL     1      11.658  12.315  13.266  1.00  0.00     0.097 A
HETATM   17  C13 UNL     1      10.417  11.703  13.181  1.00  0.00     0.019 A
HETATM   18  C14 UNL     1       9.752  12.048  14.332  1.00  0.00     0.019 A
HETATM   19  C15 UNL     1      10.606  12.849  15.065  1.00  0.00     0.097 A
ENDBRANCH  11  15
ENDBRANCH   6   8
BRANCH   1  20
HETATM   20  S1  UNL     1      15.498  19.598  17.127  1.00  0.00    -0.158 SA
BRANCH  20  21
HETATM   21  C4  UNL     1      13.950  19.320  18.005  1.00  0.00     0.050 C
HETATM   22  C3  UNL     1      14.091  19.683  19.456  1.00  0.00     0.034 C
HETATM   23  C2  UNL     1      13.390  20.958  19.824  1.00  0.00     0.117 C
HETATM   24  N1  UNL     1      12.036  20.883  19.401  1.00  0.00    -0.417 N
HETATM   25  C1  UNL     1      11.198  20.003  20.140  1.00  0.00     0.143 C
HETATM   26  C20 UNL     1      11.924  20.824  17.989  1.00  0.00     0.117 C
HETATM   27  C19 UNL     1      12.743  19.774  17.311  1.00  0.00     0.034 C
ENDBRANCH  20  21
ENDBRANCH   1  20
TORSDOF 4
ENDMDL