MODEL 1
REMARK VINA RESULT: -6.756288650      0.000      0.000
REMARK  5 active torsions:
REMARK  status: ('A' for Active; 'I' for Inactive)
REMARK    1  A    between atoms: C2_2  and  C4_4
REMARK    2  A    between atoms: C2_2  and  O1_12
REMARK    3  A    between atoms: C4_4  and  N1_5
REMARK    4  A    between atoms: O1_12  and  C8_13
REMARK       I    between atoms: C8_13  and  N3_15
REMARK    5  A    between atoms: N3_15  and  C9_17
ROOT
HETATM    1  C8  UNL     1      14.044  14.828  15.401  1.00  0.00     0.362 C
HETATM    2  O2  UNL     1      13.251  15.677  15.881  1.00  0.00    -0.238 OA
HETATM    3  N3  UNL     1      15.438  15.065  15.294  1.00  0.00    -0.328 N
ATOM      4  H3  UNL     1      16.007  14.320  14.894  1.00  0.00     0.165 HD
ENDROOT
BRANCH   1   5
HETATM    5  O1  UNL     1      13.475  13.636  14.977  1.00  0.00    -0.292 OA
BRANCH   5   6
HETATM    6  C2  UNL     1      13.303  13.306  13.636  1.00  0.00     0.083 C
HETATM    7  C1  UNL     1      13.419  14.496  12.742  1.00  0.00     0.048 C
HETATM    8  C3  UNL     1      14.475  12.384  13.270  1.00  0.00     0.048 C
BRANCH   6   9
HETATM    9  C4  UNL     1      12.036  12.511  13.461  1.00  0.00     0.186 C
BRANCH   9  10
HETATM   10  N1  UNL     1      10.967  12.983  14.300  1.00  0.00    -0.299 N
HETATM   11  C5  UNL     1       9.991  12.210  14.802  1.00  0.00     0.135 A
HETATM   12  C6  UNL     1       9.157  12.983  15.545  1.00  0.00     0.068 A
HETATM   13 CL1  UNL     1       7.708  12.540  16.444  1.00  0.00    -0.081 Cl
HETATM   14  C7  UNL     1       9.650  14.266  15.489  1.00  0.00     0.132 A
HETATM   15  N2  UNL     1      10.741  14.216  14.727  1.00  0.00    -0.308 N
ATOM     16  H2  UNL     1      11.326  15.022  14.503  1.00  0.00     0.186 HD
ENDBRANCH   9  10
ENDBRANCH   6   9
ENDBRANCH   5   6
ENDBRANCH   1   5
BRANCH   3  17
HETATM   17  C9  UNL     1      16.113  16.252  15.698  1.00  0.00     0.036 C
HETATM   18  C10 UNL     1      15.799  16.664  17.117  1.00  0.00     0.035 C
HETATM   19  C11 UNL     1      16.553  17.924  17.439  1.00  0.00    -0.012 C
HETATM   20  C12 UNL     1      18.049  17.728  17.348  1.00  0.00     0.009 C
HETATM   21  C16 UNL     1      16.192  19.050  16.502  1.00  0.00     0.009 C
HETATM   22  C13 UNL     1      18.370  17.310  15.941  1.00  0.00    -0.012 C
HETATM   23  C14 UNL     1      17.969  18.362  14.924  1.00  0.00     0.009 C
HETATM   24  C18 UNL     1      17.614  16.056  15.626  1.00  0.00     0.035 C
HETATM   25  C15 UNL     1      16.515  18.655  15.075  1.00  0.00    -0.012 C
HETATM   26  C17 UNL     1      15.731  17.389  14.786  1.00  0.00     0.035 C
ENDBRANCH   3  17
TORSDOF 5
ENDMDL