MODEL 5
REMARK VINA RESULT: -6.395126199      3.420      6.421
REMARK  5 active torsions:
REMARK  status: ('A' for Active; 'I' for Inactive)
REMARK    1  A    between atoms: C5_5  and  O1_6
REMARK    2  A    between atoms: O1_6  and  C6_7
REMARK    3  A    between atoms: C6_7  and  C7_9
REMARK    4  A    between atoms: C7_9  and  C8_10
REMARK    5  A    between atoms: C7_9  and  C14_16
ROOT
HETATM    1  C6  UNL     1      12.043  16.190  16.273  1.00  0.00     0.269 C
HETATM    2  O2  UNL     1      11.366  17.254  16.437  1.00  0.00    -0.264 OA
ENDROOT
BRANCH   1   3
HETATM    3  O1  UNL     1      11.441  14.988  16.622  1.00  0.00    -0.287 OA
BRANCH   3   4
HETATM    4  C5  UNL     1      10.412  14.477  15.842  1.00  0.00     0.331 C
HETATM    5  C4  UNL     1      10.757  13.161  15.212  1.00  0.00     0.073 C
HETATM    6  C2  UNL     1       9.602  12.563  14.491  1.00  0.00    -0.011 C
HETATM    7  C1  UNL     1      10.168  11.578  13.460  1.00  0.00     0.018 C
HETATM    8  C3  UNL     1       8.800  11.697  15.467  1.00  0.00     0.018 C
HETATM    9  C19 UNL     1       8.741  13.525  13.760  1.00  0.00     0.203 C
HETATM   10  C18 UNL     1       8.725  14.908  14.298  1.00  0.00     0.273 C
HETATM   11  F1  UNL     1       7.426  13.040  13.813  1.00  0.00    -0.247 F
HETATM   12  N1  UNL     1      10.018  15.379  14.754  1.00  0.00    -0.046 N
ATOM     13  H12 UNL     1      10.023  16.365  15.019  1.00  0.00     0.280 HD
ATOM     14  H11 UNL     1      10.712  15.449  14.010  1.00  0.00     0.280 HD
ENDBRANCH   3   4
ENDBRANCH   1   3
BRANCH   1  15
HETATM   15  C7  UNL     1      13.407  16.282  15.732  1.00  0.00     0.123 C
BRANCH  15  16
HETATM   16  C8  UNL     1      13.833  15.022  15.047  1.00  0.00    -0.044 A
HETATM   17  C9  UNL     1      13.572  14.917  13.697  1.00  0.00     0.008 A
HETATM   18  C10 UNL     1      13.964  13.750  13.045  1.00  0.00     0.001 A
HETATM   19  C11 UNL     1      14.594  12.736  13.738  1.00  0.00     0.000 A
HETATM   20  C12 UNL     1      14.844  12.860  15.077  1.00  0.00     0.001 A
HETATM   21  C13 UNL     1      14.460  14.007  15.729  1.00  0.00     0.008 A
ENDBRANCH  15  16
BRANCH  15  22
HETATM   22  C14 UNL     1      14.414  16.642  16.831  1.00  0.00     0.014 C
HETATM   23  C15 UNL     1      15.739  16.825  16.145  1.00  0.00     0.017 C
HETATM   24  C16 UNL     1      16.698  17.404  17.157  1.00  0.00     0.074 C
HETATM   25  S1  UNL     1      15.598  18.592  18.024  1.00  0.00    -0.169 SA
HETATM   26  C17 UNL     1      13.989  17.992  17.365  1.00  0.00     0.079 C
ENDBRANCH  15  22
ENDBRANCH   1  15
TORSDOF 5
ENDMDL