MODEL 2
REMARK VINA RESULT: -7.032612050      3.177      7.649
REMARK  4 active torsions:
REMARK  status: ('A' for Active; 'I' for Inactive)
REMARK    1  A    between atoms: C1_2  and  C2_3
REMARK       I    between atoms: C1_2  and  N3_19
REMARK    2  A    between atoms: C2_3  and  S1_4
REMARK    3  A    between atoms: S1_4  and  C3_5
REMARK    4  A    between atoms: N3_19  and  C14_21
ROOT
HETATM    1  C3  UNL     1      15.361  17.241  14.167  1.00  0.00     0.030 A
HETATM    2  C4  UNL     1      14.108  17.442  14.808  1.00  0.00     0.030 A
HETATM    3  C5  UNL     1      14.069  17.679  16.124  1.00  0.00    -0.032 A
HETATM    4  C6  UNL     1      15.241  17.726  16.834  1.00  0.00     0.041 A
HETATM    5  N1  UNL     1      16.452  17.540  16.246  1.00  0.00    -0.259 N
HETATM    6  N2  UNL     1      17.684  17.560  16.748  1.00  0.00    -0.305 N
ATOM      7  H2  UNL     1      17.907  17.722  17.731  1.00  0.00     0.186 HD
HETATM    8  C7  UNL     1      18.575  17.343  15.803  1.00  0.00     0.110 A
HETATM    9  C8  UNL     1      17.854  17.172  14.616  1.00  0.00     0.051 A
HETATM   10  C9  UNL     1      16.515  17.298  14.917  1.00  0.00     0.074 A
HETATM   11  C10 UNL     1      15.179  17.986  18.285  1.00  0.00     0.060 C
HETATM   12  C11 UNL     1      14.138  18.978  18.692  1.00  0.00     0.006 C
HETATM   13  C12 UNL     1      13.061  19.183  17.671  1.00  0.00     0.005 C
HETATM   14  C13 UNL     1      12.782  17.906  16.888  1.00  0.00     0.040 C
ENDROOT
BRANCH   1  15
HETATM   15  S1  UNL     1      15.323  16.960  12.461  1.00  0.00    -0.118 SA
BRANCH  15  16
HETATM   16  C2  UNL     1      14.096  16.020  11.670  1.00  0.00     0.182 C
BRANCH  16  17
HETATM   17  C1  UNL     1      13.805  14.694  12.314  1.00  0.00     0.227 C
HETATM   18  O1  UNL     1      14.758  13.907  12.454  1.00  0.00    -0.273 OA
HETATM   19  N3  UNL     1      12.521  14.328  12.753  1.00  0.00    -0.353 N
ATOM     20  H3  UNL     1      11.763  14.997  12.623  1.00  0.00     0.163 HD
BRANCH  19  21
HETATM   21  C14 UNL     1      12.209  13.074  13.371  1.00  0.00     0.118 C
HETATM   22  C15 UNL     1      10.937  12.519  12.799  1.00  0.00     0.028 C
HETATM   23  C16 UNL     1      10.197  11.639  13.761  1.00  0.00     0.002 C
HETATM   24  C17 UNL     1       9.652  12.437  14.930  1.00  0.00     0.003 C
HETATM   25  C18 UNL     1      10.582  13.610  15.191  1.00  0.00     0.039 C
HETATM   26  C19 UNL     1      12.014  13.257  14.861  1.00  0.00     0.192 C
HETATM   27  F1  UNL     1      12.820  14.289  15.293  1.00  0.00    -0.247 F
ENDBRANCH  19  21
ENDBRANCH  16  17
ENDBRANCH  15  16
ENDBRANCH   1  15
TORSDOF 4
ENDMDL