MODEL 2
REMARK VINA RESULT: -7.435055514      2.401      4.264
REMARK  3 active torsions:
REMARK  status: ('A' for Active; 'I' for Inactive)
REMARK    1  A    between atoms: C4_4  and  C5_5
REMARK    2  A    between atoms: N1_13  and  C13_15
REMARK    3  A    between atoms: C18_21  and  N2_22
ROOT
HETATM    1  C5  UNL     1      15.733  18.491  17.513  1.00  0.00     0.060 C
HETATM    2  C6  UNL     1      15.938  17.007  17.176  1.00  0.00     0.093 C
HETATM    3  C7  UNL     1      17.414  17.020  16.833  1.00  0.00     0.033 C
HETATM    4  C8  UNL     1      17.734  18.403  16.370  1.00  0.00     0.020 C
HETATM    5  C9  UNL     1      18.136  18.525  14.945  1.00  0.00     0.039 C
HETATM    6  C10 UNL     1      16.835  18.529  14.224  1.00  0.00     0.129 C
HETATM    7  C11 UNL     1      16.566  17.093  13.737  1.00  0.00     0.108 C
HETATM    8  C12 UNL     1      15.477  16.497  14.585  1.00  0.00     0.080 C
HETATM    9  N1  UNL     1      14.690  15.785  13.894  1.00  0.00    -0.344 N
ATOM     10  H1  UNL     1      14.883  15.707  12.896  1.00  0.00     0.167 HD
HETATM   11  N3  UNL     1      15.225  16.617  15.979  1.00  0.00    -0.374 N
ATOM     12  H3  UNL     1      14.264  16.352  16.199  1.00  0.00     0.161 HD
HETATM   13  O3  UNL     1      15.840  18.868  15.117  1.00  0.00    -0.379 OA
HETATM   14  C19 UNL     1      16.359  19.136  16.347  1.00  0.00     0.136 C
ENDROOT
BRANCH   9  15
HETATM   15  C13 UNL     1      13.565  15.090  14.395  1.00  0.00     0.067 A
HETATM   16  C14 UNL     1      12.453  15.725  14.908  1.00  0.00     0.035 A
HETATM   17  C15 UNL     1      11.359  15.004  15.393  1.00  0.00     0.044 A
HETATM   18  C16 UNL     1      11.429  13.627  15.342  1.00  0.00     0.118 A
HETATM   19  F1  UNL     1      10.364  12.927  15.814  1.00  0.00    -0.206 F
HETATM   20  C17 UNL     1      12.515  12.943  14.840  1.00  0.00     0.080 A
HETATM   21  C18 UNL     1      13.584  13.708  14.366  1.00  0.00     0.132 A
BRANCH  21  22
HETATM   22  N2  UNL     1      14.707  12.992  13.847  1.00  0.00    -0.113 N
HETATM   23  O1  UNL     1      14.872  12.913  12.614  1.00  0.00    -0.532 OA
HETATM   24  O2  UNL     1      15.629  12.376  14.655  1.00  0.00    -0.532 OA
ENDBRANCH  21  22
ENDBRANCH   9  15
BRANCH   1  25
HETATM   25  C4  UNL     1      14.427  18.793  17.981  1.00  0.00    -0.016 C
HETATM   26  C2  UNL     1      13.992  19.599  18.898  1.00  0.00    -0.091 C
HETATM   27  C1  UNL     1      14.752  20.504  19.791  1.00  0.00     0.042 C
HETATM   28  C3  UNL     1      12.467  19.688  19.147  1.00  0.00     0.042 C
ENDBRANCH   1  25
TORSDOF 3
ENDMDL