MODEL 2
REMARK VINA RESULT: -7.183326728      2.659      4.462
REMARK  4 active torsions:
REMARK  status: ('A' for Active; 'I' for Inactive)
REMARK    1  A    between atoms: C3_6  and  C4_7
REMARK    2  A    between atoms: C4_7  and  C5_8
REMARK    3  A    between atoms: C5_8  and  N3_9
REMARK    4  A    between atoms: N3_9  and  C6_12
ROOT
HETATM    1  C6  UNL     1      14.042  16.135  16.425  1.00  0.00     0.186 C
HETATM    2  C7  UNL     1      14.095  17.088  15.260  1.00  0.00     0.036 C
HETATM    3  C8  UNL     1      15.419  17.127  14.570  1.00  0.00     0.041 C
HETATM    4  C9  UNL     1      16.562  17.461  15.525  1.00  0.00     0.077 C
HETATM    5  C10 UNL     1      17.498  16.212  15.656  1.00  0.00     0.118 C
HETATM    6  C11 UNL     1      18.679  16.571  15.008  1.00  0.00    -0.175 C
HETATM    7  C12 UNL     1      19.780  17.126  14.311  1.00  0.00     0.121 C
HETATM    8  C13 UNL     1      19.288  18.545  13.937  1.00  0.00    -0.014 A
HETATM    9  C14 UNL     1      20.183  19.152  13.117  1.00  0.00     0.014 A
HETATM   10  C15 UNL     1      19.937  20.425  12.669  1.00  0.00     0.043 A
HETATM   11  C16 UNL     1      18.764  21.072  13.069  1.00  0.00     0.119 A
HETATM   12  F1  UNL     1      18.484  22.327  12.653  1.00  0.00    -0.206 F
HETATM   13  C17 UNL     1      17.856  20.463  13.897  1.00  0.00     0.079 A
HETATM   14  C18 UNL     1      18.127  19.187  14.331  1.00  0.00     0.080 A
HETATM   15  O1  UNL     1      17.182  18.617  15.160  1.00  0.00    -0.339 OA
HETATM   16  C19 UNL     1      15.974  17.680  16.909  1.00  0.00     0.041 C
HETATM   17  C20 UNL     1      15.206  16.465  17.347  1.00  0.00     0.036 C
ENDROOT
BRANCH   1  18
HETATM   18  N3  UNL     1      12.805  16.416  17.181  1.00  0.00    -0.071 N
ATOM     19  H32 UNL     1      12.889  17.223  17.799  1.00  0.00     0.277 HD
ATOM     20  H31 UNL     1      12.609  15.719  17.901  1.00  0.00     0.277 HD
BRANCH  18  21
HETATM   21  C5  UNL     1      11.731  16.550  16.212  1.00  0.00     0.235 C
BRANCH  21  22
HETATM   22  C4  UNL     1      10.621  15.565  16.479  1.00  0.00     0.054 C
BRANCH  22  23
HETATM   23  C3  UNL     1      10.970  14.146  16.123  1.00  0.00     0.101 C
HETATM   24  N2  UNL     1       9.826  13.285  16.180  1.00  0.00    -0.380 N
HETATM   25  C2  UNL     1       9.730  12.525  15.157  1.00  0.00     0.173 C
ATOM     26  H2  UNL     1       9.160  13.279  16.953  1.00  0.00     0.160 HD
HETATM   27  N1  UNL     1      10.815  12.795  14.282  1.00  0.00    -0.380 N
HETATM   28  C1  UNL     1      11.215  11.987  13.142  1.00  0.00     0.150 C
HETATM   29  C21 UNL     1      11.464  14.012  14.716  1.00  0.00     0.148 C
ENDBRANCH  22  23
ENDBRANCH  21  22
ENDBRANCH  18  21
ENDBRANCH   1  18
TORSDOF 4
ENDMDL