MODEL 1
REMARK VINA RESULT: -5.964472672      0.000      0.000
REMARK  4 active torsions:
REMARK  status: ('A' for Active; 'I' for Inactive)
REMARK    1  A    between atoms: C4_4  and  C6_6
REMARK    2  A    between atoms: C9_11  and  S2_12
REMARK    3  A    between atoms: S2_12  and  N1_15
REMARK    4  A    between atoms: N1_15  and  C10_17
ROOT
HETATM    1  C6  UNL     1      14.109  15.917  15.132  1.00  0.00     0.002 A
HETATM    2  C7  UNL     1      12.785  16.159  15.481  1.00  0.00     0.065 A
HETATM    3  S1  UNL     1      12.886  17.273  16.743  1.00  0.00    -0.087 SA
HETATM    4  C8  UNL     1      14.573  17.435  16.830  1.00  0.00     0.098 A
HETATM    5 CL1  UNL     1      15.524  18.473  17.919  1.00  0.00    -0.075 Cl
HETATM    6  C9  UNL     1      15.045  16.593  15.848  1.00  0.00     0.119 A
ENDROOT
BRANCH   6   7
HETATM    7  S2  UNL     1      16.809  16.452  15.561  1.00  0.00     0.262 S
HETATM    8  O1  UNL     1      17.138  14.965  15.322  1.00  0.00    -0.200 OA
HETATM    9  O2  UNL     1      17.614  16.944  16.706  1.00  0.00    -0.200 OA
BRANCH   7  10
HETATM   10  N1  UNL     1      17.242  17.226  14.103  1.00  0.00    -0.310 N
ATOM     11  H1  UNL     1      16.734  17.102  13.227  1.00  0.00     0.172 HD
BRANCH  10  12
HETATM   12  C10 UNL     1      18.382  18.060  14.237  1.00  0.00     0.097 C
HETATM   13  C11 UNL     1      19.690  17.322  14.001  1.00  0.00     0.052 C
HETATM   14  C12 UNL     1      20.656  18.127  13.164  1.00  0.00     0.169 C
HETATM   15  O3  UNL     1      20.640  19.475  13.503  1.00  0.00    -0.391 OA
HETATM   16  C13 UNL     1      19.427  20.073  13.172  1.00  0.00     0.169 C
HETATM   17  C14 UNL     1      18.300  19.095  13.112  1.00  0.00     0.052 C
ENDBRANCH  10  12
ENDBRANCH   7  10
ENDBRANCH   6   7
BRANCH   1  18
HETATM   18  C4  UNL     1      14.306  14.894  14.058  1.00  0.00    -0.048 C
HETATM   19  C2  UNL     1      14.359  13.620  14.371  1.00  0.00    -0.081 C
HETATM   20  C1  UNL     1      14.466  12.591  13.322  1.00  0.00     0.043 C
HETATM   21  C3  UNL     1      14.316  13.210  15.787  1.00  0.00     0.043 C
HETATM   22  C5  UNL     1      14.358  15.244  12.631  1.00  0.00     0.049 C
ENDBRANCH   1  18
TORSDOF 4
ENDMDL