MODEL 3
REMARK VINA RESULT: -6.510382970      3.388      6.166
REMARK  3 active torsions:
REMARK  status: ('A' for Active; 'I' for Inactive)
REMARK    1  A    between atoms: C2_2  and  C4_4
REMARK    2  A    between atoms: C4_4  and  C5_5
REMARK    3  A    between atoms: C17_22  and  C19_24
ROOT
HETATM    1  C5  UNL     1      10.328  15.029  15.884  1.00  0.00     0.038 A
HETATM    2  N1  UNL     1      10.360  13.855  15.238  1.00  0.00    -0.310 N
ATOM      3  H1  UNL     1       9.509  13.299  15.153  1.00  0.00     0.170 HD
HETATM    4  C6  UNL     1      11.507  13.408  14.701  1.00  0.00     0.328 A
HETATM    5  O1  UNL     1      11.503  12.299  14.097  1.00  0.00    -0.246 OA
HETATM    6  N2  UNL     1      12.610  14.168  14.830  1.00  0.00    -0.279 N
HETATM    7  C7  UNL     1      12.657  15.365  15.473  1.00  0.00     0.070 A
HETATM    8  C8  UNL     1      11.457  15.807  16.019  1.00  0.00     0.084 A
HETATM    9 CL1  UNL     1      11.357  17.342  16.843  1.00  0.00    -0.080 Cl
HETATM   10  C9  UNL     1      14.001  15.798  15.425  1.00  0.00    -0.024 C
HETATM   11  C10 UNL     1      14.743  16.860  15.996  1.00  0.00    -0.071 C
HETATM   12  C11 UNL     1      14.852  16.804  17.509  1.00  0.00     0.034 C
HETATM   13  C12 UNL     1      14.880  18.129  18.183  1.00  0.00     0.004 C
HETATM   14  C13 UNL     1      15.994  18.947  17.636  1.00  0.00     0.001 C
HETATM   15  C14 UNL     1      15.969  18.936  16.152  1.00  0.00     0.004 C
HETATM   16  C15 UNL     1      14.655  18.290  15.618  1.00  0.00     0.034 C
HETATM   17  C16 UNL     1      14.457  15.283  14.054  1.00  0.00     0.082 C
HETATM   18  C17 UNL     1      13.922  13.853  14.224  1.00  0.00     0.121 C
HETATM   19  C18 UNL     1      13.741  13.182  12.873  1.00  0.00     0.049 C
ENDROOT
BRANCH  18  20
HETATM   20  C19 UNL     1      14.750  13.021  15.076  1.00  0.00     0.260 C
HETATM   21  N3  UNL     1      15.888  12.374  14.515  1.00  0.00    -0.060 NA
HETATM   22  O2  UNL     1      14.519  12.826  16.316  1.00  0.00    -0.274 OA
ENDBRANCH  18  20
BRANCH   1  23
HETATM   23  C4  UNL     1       9.086  15.570  16.493  1.00  0.00     0.063 C
BRANCH  23  24
HETATM   24  C2  UNL     1       7.825  15.193  15.811  1.00  0.00    -0.017 C
HETATM   25  C1  UNL     1       6.705  15.360  16.854  1.00  0.00     0.010 C
HETATM   26  C3  UNL     1       7.561  16.161  14.679  1.00  0.00     0.010 C
ENDBRANCH  23  24
ENDBRANCH   1  23
TORSDOF 3
ENDMDL