MODEL 4
REMARK VINA RESULT: -5.978390095      4.210      7.456
REMARK  5 active torsions:
REMARK  status: ('A' for Active; 'I' for Inactive)
REMARK    1  A    between atoms: O1_2  and  C2_3
REMARK    2  A    between atoms: C2_3  and  C3_4
REMARK    3  A    between atoms: C3_4  and  O2_5
REMARK    4  A    between atoms: O2_5  and  C4_6
REMARK    5  A    between atoms: C17_21  and  O4_22
ROOT
HETATM    1  C4  UNL     1      15.615  16.959  15.907  1.00  0.00     0.056 C
HETATM    2  C5  UNL     1      15.123  16.101  15.055  1.00  0.00     0.019 C
HETATM    3  C6  UNL     1      13.843  16.097  14.383  1.00  0.00     0.007 C
HETATM    4  C7  UNL     1      13.973  16.969  13.121  1.00  0.00     0.023 C
HETATM    5  C8  UNL     1      12.710  16.750  15.166  1.00  0.00     0.137 C
HETATM    6  C9  UNL     1      12.237  15.862  16.288  1.00  0.00     0.034 C
HETATM    7  C10 UNL     1      11.624  14.628  15.632  1.00  0.00     0.015 C
HETATM    8  C11 UNL     1      12.753  13.904  14.983  1.00  0.00    -0.008 C
HETATM    9  C12 UNL     1      13.737  13.316  15.926  1.00  0.00     0.018 C
HETATM   10  C13 UNL     1      12.274  12.757  14.079  1.00  0.00     0.178 C
HETATM   11  F1  UNL     1      11.201  13.151  13.317  1.00  0.00    -0.249 F
HETATM   12  C14 UNL     1      13.499  12.559  13.196  1.00  0.00     0.038 C
HETATM   13  C15 UNL     1      14.279  13.873  13.239  1.00  0.00     0.009 C
HETATM   14  C16 UNL     1      13.340  14.786  13.920  1.00  0.00     0.011 C
HETATM   15  O3  UNL     1      12.916  18.045  15.473  1.00  0.00    -0.354 OA
HETATM   16  C17 UNL     1      13.644  18.367  16.560  1.00  0.00     0.271 C
HETATM   17  C18 UNL     1      15.106  18.182  16.490  1.00  0.00     0.051 C
HETATM   18  C19 UNL     1      15.779  19.352  15.757  1.00  0.00     0.027 C
HETATM   19  C20 UNL     1      15.638  18.263  17.929  1.00  0.00     0.027 C
ENDROOT
BRANCH   1  20
HETATM   20  O2  UNL     1      16.918  16.655  16.376  1.00  0.00    -0.353 OA
BRANCH  20  21
HETATM   21  C3  UNL     1      17.749  16.023  15.384  1.00  0.00     0.201 C
BRANCH  21  22
HETATM   22  C2  UNL     1      18.604  17.014  14.675  1.00  0.00     0.193 C
BRANCH  22  23
HETATM   23  O1  UNL     1      18.309  17.042  13.335  1.00  0.00    -0.394 OA
HETATM   24  C1  UNL     1      17.610  18.129  12.886  1.00  0.00     0.201 C
ENDBRANCH  22  23
ENDBRANCH  21  22
ENDBRANCH  20  21
ENDBRANCH   1  20
BRANCH  16  25
HETATM   25  O4  UNL     1      13.151  17.814  17.766  1.00  0.00    -0.370 OA
ATOM     26  H4  UNL     1      13.477  16.941  17.952  1.00  0.00     0.212 HD
ENDBRANCH  16  25
TORSDOF 5
ENDMDL