MODEL 1
REMARK VINA RESULT: -6.270993572      0.000      0.000
REMARK  4 active torsions:
REMARK  status: ('A' for Active; 'I' for Inactive)
REMARK    1  A    between atoms: S1_2  and  C2_3
REMARK    2  A    between atoms: C5_9  and  C6_10
REMARK       I    between atoms: C6_10  and  N2_12
REMARK    3  A    between atoms: N2_12  and  C7_14
REMARK    4  A    between atoms: C10_17  and  C11_18
ROOT
HETATM    1  C6  UNL     1      17.942  18.353  14.819  1.00  0.00     0.270 C
HETATM    2  O1  UNL     1      17.949  18.523  16.071  1.00  0.00    -0.266 OA
HETATM    3  N2  UNL     1      16.880  17.614  14.226  1.00  0.00    -0.351 N
ATOM      4  H2  UNL     1      16.868  17.472  13.216  1.00  0.00     0.163 HD
ENDROOT
BRANCH   1   5
HETATM    5  C5  UNL     1      19.022  18.916  14.004  1.00  0.00     0.126 A
HETATM    6  C4  UNL     1      20.068  18.102  13.625  1.00  0.00     0.081 A
HETATM    7  C3  UNL     1      21.066  18.665  12.859  1.00  0.00     0.116 A
HETATM    8 CL1  UNL     1      20.123  16.411  14.103  1.00  0.00    -0.080 Cl
HETATM    9  N1  UNL     1      20.983  19.978  12.513  1.00  0.00    -0.345 N
HETATM   10  C2  UNL     1      19.955  20.746  12.895  1.00  0.00     0.144 A
ATOM     11  H1  UNL     1      21.725  20.388  11.946  1.00  0.00     0.167 HD
HETATM   12  N3  UNL     1      18.976  20.209  13.642  1.00  0.00    -0.331 N
ATOM     13  H3  UNL     1      18.190  20.789  13.936  1.00  0.00     0.168 HD
BRANCH  10  14
HETATM   14  S1  UNL     1      19.817  22.473  12.457  1.00  0.00    -0.098 SA
HETATM   15  C1  UNL     1      21.255  22.988  11.464  1.00  0.00     0.099 C
ENDBRANCH  10  14
ENDBRANCH   1   5
BRANCH   3  16
HETATM   16  C7  UNL     1      15.834  17.069  15.023  1.00  0.00     0.089 C
HETATM   17  C8  UNL     1      16.091  15.636  15.437  1.00  0.00     0.026 C
HETATM   18  C9  UNL     1      14.712  15.193  15.921  1.00  0.00     0.012 C
HETATM   19  C10 UNL     1      13.834  15.847  14.880  1.00  0.00    -0.031 A
HETATM   20  C16 UNL     1      13.319  17.262  15.216  1.00  0.00     0.017 A
HETATM   21  C17 UNL     1      14.504  16.988  14.296  1.00  0.00     0.018 A
BRANCH  19  22
HETATM   22  C11 UNL     1      12.805  14.976  14.260  1.00  0.00    -0.006 C
HETATM   23  C12 UNL     1      12.287  13.853  15.068  1.00  0.00     0.005 C
HETATM   24  C13 UNL     1      12.428  12.641  14.181  1.00  0.00     0.000 C
HETATM   25  C14 UNL     1      13.631  12.916  13.329  1.00  0.00     0.000 C
HETATM   26  C15 UNL     1      13.451  14.384  12.997  1.00  0.00     0.005 C
ENDBRANCH  19  22
ENDBRANCH   3  16
TORSDOF 4
ENDMDL