MODEL 3
REMARK VINA RESULT: -5.643020242      1.504      1.617
REMARK  8 active torsions:
REMARK  status: ('A' for Active; 'I' for Inactive)
REMARK    1  A    between atoms: C2_2  and  C3_3
REMARK    2  A    between atoms: C3_3  and  C4_4
REMARK    3  A    between atoms: C4_4  and  C5_5
REMARK    4  A    between atoms: C6_7  and  C7_8
REMARK    5  A    between atoms: C7_8  and  N1_9
REMARK    6  A    between atoms: N1_9  and  C8_12
REMARK    7  A    between atoms: C8_12  and  C9_13
REMARK    8  A    between atoms: N2_14  and  C10_16
ROOT
HETATM    1  N1  UNL     1      -3.361   3.192  13.582  1.00  0.00    -0.068 N
ATOM      2  H11 UNL     1      -2.840   3.883  14.121  1.00  0.00     0.277 HD
ATOM      3  H12 UNL     1      -2.693   2.421  13.612  1.00  0.00     0.277 HD
ENDROOT
BRANCH   1   4
HETATM    4  C7  UNL     1      -3.572   3.637  12.243  1.00  0.00     0.267 C
BRANCH   4   5
HETATM    5  C6  UNL     1      -2.791   2.842  11.210  1.00  0.00     0.176 A
HETATM    6  C5  UNL     1      -2.604   1.450  11.507  1.00  0.00     0.153 A
HETATM    7  O1  UNL     1      -1.514   2.441  11.704  1.00  0.00    -0.374 OA
BRANCH   6   8
HETATM    8  C4  UNL     1      -2.124   0.398  10.548  1.00  0.00     0.038 C
BRANCH   8   9
HETATM    9  C3  UNL     1      -3.340  -0.475  10.238  1.00  0.00     0.029 C
BRANCH   9  10
HETATM   10  C2  UNL     1      -3.527  -1.549  11.253  1.00  0.00    -0.037 C
HETATM   11  C1  UNL     1      -2.857  -2.691  11.228  1.00  0.00     0.007 C
ENDBRANCH   9  10
ENDBRANCH   8   9
ENDBRANCH   6   8
ENDBRANCH   4   5
ENDBRANCH   1   4
BRANCH   1  12
HETATM   12  C8  UNL     1      -4.596   2.836  14.247  1.00  0.00     0.276 C
BRANCH  12  13
HETATM   13  C9  UNL     1      -4.459   1.465  14.784  1.00  0.00     0.083 C
HETATM   14  N2  UNL     1      -5.137   1.058  15.758  1.00  0.00    -0.396 N
ATOM     15  H2  UNL     1      -4.995   0.100  16.079  1.00  0.00     0.159 HD
BRANCH  14  16
HETATM   16  C10 UNL     1      -6.084   1.850  16.427  1.00  0.00     0.081 A
HETATM   17  C11 UNL     1      -6.239   1.666  17.897  1.00  0.00     0.027 A
HETATM   18  C12 UNL     1      -7.306   1.129  16.971  1.00  0.00     0.027 A
ENDBRANCH  14  16
ENDBRANCH  12  13
ENDBRANCH   1  12
TORSDOF 8
ENDMDL