MODEL 1
REMARK VINA RESULT: -6.288159886      0.000      0.000
REMARK  7 active torsions:
REMARK  status: ('A' for Active; 'I' for Inactive)
REMARK    1  A    between atoms: O1_2  and  C2_3
REMARK    2  A    between atoms: C2_3  and  C3_4
REMARK    3  A    between atoms: C2_3  and  O2_16
REMARK    4  A    between atoms: C3_4  and  N1_5
REMARK    5  A    between atoms: N1_5  and  C4_8
REMARK    6  A    between atoms: C4_8  and  C5_9
REMARK    7  A    between atoms: C5_9  and  C6_10
ROOT
HETATM    1  N1  UNL     1      -4.038   1.317  13.075  1.00  0.00    -0.070 N
ATOM      2  H11 UNL     1      -3.096   1.024  13.332  1.00  0.00     0.277 HD
ATOM      3  H12 UNL     1      -4.576   0.696  13.680  1.00  0.00     0.277 HD
ENDROOT
BRANCH   1   4
HETATM    4  C3  UNL     1      -4.302   1.041  11.688  1.00  0.00     0.292 C
BRANCH   4   5
HETATM    5  C2  UNL     1      -3.250   0.050  11.217  1.00  0.00     0.283 C
BRANCH   5   6
HETATM    6  O1  UNL     1      -3.764  -1.179  10.905  1.00  0.00    -0.364 OA
HETATM    7  C1  UNL     1      -2.956  -2.246  11.255  1.00  0.00     0.204 C
ENDBRANCH   5   6
BRANCH   5   8
HETATM    8  O2  UNL     1      -2.601   0.550  10.089  1.00  0.00    -0.364 OA
HETATM    9  C12 UNL     1      -1.437   1.241  10.425  1.00  0.00     0.204 C
ENDBRANCH   5   8
ENDBRANCH   4   5
ENDBRANCH   1   4
BRANCH   1  10
HETATM   10  C4  UNL     1      -4.263   2.705  13.423  1.00  0.00     0.237 C
BRANCH  10  11
HETATM   11  C5  UNL     1      -3.991   2.880  14.902  1.00  0.00     0.066 C
BRANCH  11  12
HETATM   12  C6  UNL     1      -5.021   2.211  15.723  1.00  0.00    -0.057 A
HETATM   13  C7  UNL     1      -4.798   1.020  16.386  1.00  0.00     0.007 A
HETATM   14  C8  UNL     1      -5.795   0.437  17.140  1.00  0.00     0.001 A
HETATM   15  C9  UNL     1      -7.017   1.048  17.230  1.00  0.00     0.000 A
HETATM   16  C10 UNL     1      -7.290   2.237  16.587  1.00  0.00     0.001 A
HETATM   17  C11 UNL     1      -6.263   2.796  15.836  1.00  0.00     0.007 A
ENDBRANCH  11  12
ENDBRANCH  10  11
ENDBRANCH   1  10
TORSDOF 7
ENDMDL