MODEL 4
REMARK VINA RESULT: -5.714373770      1.992      5.373
REMARK  8 active torsions:
REMARK  status: ('A' for Active; 'I' for Inactive)
REMARK    1  A    between atoms: C2_3  and  C3_4
REMARK    2  A    between atoms: C3_4  and  N2_5
REMARK    3  A    between atoms: N2_5  and  C4_8
REMARK    4  A    between atoms: C4_8  and  C5_9
REMARK    5  A    between atoms: C5_9  and  N3_10
REMARK    6  A    between atoms: N3_10  and  C6_11
REMARK    7  A    between atoms: N3_10  and  C10_15
REMARK    8  A    between atoms: C6_11  and  C7_12
ROOT
HETATM    1  N1  UNL     1      -5.668  -0.233  17.210  1.00  0.00    -0.197 NA
HETATM    2  C1  UNL     1      -6.241   0.773  17.054  1.00  0.00     0.060 C
HETATM    3  C2  UNL     1      -6.970   2.018  16.870  1.00  0.00     0.151 C
ENDROOT
BRANCH   3   4
HETATM    4  C3  UNL     1      -6.291   2.848  15.821  1.00  0.00     0.246 C
BRANCH   4   5
HETATM    5  N2  UNL     1      -4.935   2.423  15.646  1.00  0.00    -0.073 N
ATOM      6  H22 UNL     1      -4.423   2.463  16.527  1.00  0.00     0.277 HD
ATOM      7  H21 UNL     1      -4.887   1.419  15.473  1.00  0.00     0.277 HD
BRANCH   5   8
HETATM    8  C4  UNL     1      -4.241   3.164  14.606  1.00  0.00     0.262 C
BRANCH   8   9
HETATM    9  C5  UNL     1      -4.810   2.876  13.267  1.00  0.00     0.300 C
BRANCH   9  10
HETATM   10  N3  UNL     1      -3.920   2.236  12.319  1.00  0.00     0.095 N
BRANCH  10  11
HETATM   11  C6  UNL     1      -4.109   0.865  12.364  1.00  0.00     0.277 C
BRANCH  11  12
HETATM   12  C7  UNL     1      -4.149  -0.061  11.249  1.00  0.00     0.014 A
HETATM   13  C8  UNL     1      -3.709  -1.492  11.339  1.00  0.00     0.007 A
HETATM   14  C9  UNL     1      -3.142  -0.550  10.333  1.00  0.00     0.007 A
ENDBRANCH  11  12
ENDBRANCH  10  11
BRANCH  10  15
HETATM   15  C10 UNL     1      -4.123   2.928  11.079  1.00  0.00     0.223 A
HETATM   16  C11 UNL     1      -2.933   3.486  10.343  1.00  0.00     0.038 A
HETATM   17  C12 UNL     1      -3.926   4.393  10.911  1.00  0.00     0.038 A
ENDBRANCH  10  15
ENDBRANCH   9  10
ENDBRANCH   8   9
ENDBRANCH   5   8
ENDBRANCH   4   5
ENDBRANCH   3   4
TORSDOF 8
ENDMDL