MODEL 2
REMARK VINA RESULT: -5.940418290      1.710      5.384
REMARK  9 active torsions:
REMARK  status: ('A' for Active; 'I' for Inactive)
REMARK    1  A    between atoms: C2_2  and  C3_3
REMARK    2  A    between atoms: C3_3  and  O1_4
REMARK    3  A    between atoms: O1_4  and  C4_5
REMARK    4  A    between atoms: C4_5  and  C5_7
REMARK    5  A    between atoms: C5_7  and  C6_8
REMARK    6  A    between atoms: C5_7  and  N1_10
REMARK    7  A    between atoms: N1_10  and  C8_13
REMARK    8  A    between atoms: C8_13  and  C9_14
REMARK    9  A    between atoms: C9_14  and  C10_15
ROOT
HETATM    1  C5  UNL     1      -5.083   2.479  14.010  1.00  0.00     0.306 C
ENDROOT
BRANCH   1   2
HETATM    2  C4  UNL     1      -4.647   2.071  12.652  1.00  0.00     0.293 C
HETATM    3  O2  UNL     1      -5.457   1.991  11.724  1.00  0.00    -0.263 OA
BRANCH   2   4
HETATM    4  O1  UNL     1      -3.312   1.787  12.472  1.00  0.00    -0.316 OA
BRANCH   4   5
HETATM    5  C3  UNL     1      -2.680   1.810  11.205  1.00  0.00     0.205 C
BRANCH   5   6
HETATM    6  C2  UNL     1      -2.245   0.410  10.915  1.00  0.00    -0.011 C
HETATM    7  C1  UNL     1      -3.106  -0.498  10.481  1.00  0.00     0.009 C
ENDBRANCH   5   6
ENDBRANCH   4   5
ENDBRANCH   2   4
ENDBRANCH   1   2
BRANCH   1   8
HETATM    8  C6  UNL     1      -5.973   3.689  13.919  1.00  0.00     0.006 C
HETATM    9  C7  UNL     1      -6.018   4.480  14.981  1.00  0.00     0.009 C
ENDBRANCH   1   8
BRANCH   1  10
HETATM   10  N1  UNL     1      -3.934   2.699  14.822  1.00  0.00    -0.059 N
ATOM     11  H12 UNL     1      -3.066   2.581  14.299  1.00  0.00     0.278 HD
ATOM     12  H11 UNL     1      -3.824   3.681  15.073  1.00  0.00     0.278 HD
BRANCH  10  13
HETATM   13  C8  UNL     1      -3.984   1.853  15.977  1.00  0.00     0.234 C
BRANCH  13  14
HETATM   14  C9  UNL     1      -4.966   0.713  15.847  1.00  0.00     0.032 C
BRANCH  14  15
HETATM   15  C10 UNL     1      -5.777   0.643  17.126  1.00  0.00    -0.013 A
HETATM   16  C11 UNL     1      -7.221   1.035  16.963  1.00  0.00     0.005 A
HETATM   17  C12 UNL     1      -6.296   1.872  17.769  1.00  0.00     0.005 A
ENDBRANCH  14  15
ENDBRANCH  13  14
ENDBRANCH  10  13
ENDBRANCH   1  10
TORSDOF 9
ENDMDL