MODEL 5
REMARK VINA RESULT: -4.958766839      2.200      4.145
REMARK  8 active torsions:
REMARK  status: ('A' for Active; 'I' for Inactive)
REMARK    1  A    between atoms: C2_2  and  C3_3
REMARK    2  A    between atoms: C3_3  and  O1_4
REMARK    3  A    between atoms: O1_4  and  C4_5
REMARK    4  A    between atoms: C4_5  and  C5_6
REMARK    5  A    between atoms: C5_6  and  C7_8
REMARK    6  A    between atoms: C7_8  and  O2_9
REMARK    7  A    between atoms: O2_9  and  C8_10
REMARK    8  A    between atoms: C8_10  and  C9_11
ROOT
HETATM    1  O2  UNL     1      -1.699   1.268   9.961  1.00  0.00    -0.383 OA
ENDROOT
BRANCH   1   2
HETATM    2  C7  UNL     1      -2.122   0.371  10.859  1.00  0.00     0.174 C
BRANCH   2   3
HETATM    3  C5  UNL     1      -3.517  -0.134  10.842  1.00  0.00     0.029 C
HETATM    4  C6  UNL     1      -3.728  -1.488  11.414  1.00  0.00     0.014 C
BRANCH   3   5
HETATM    5  C4  UNL     1      -4.440   0.834  11.631  1.00  0.00     0.174 C
BRANCH   5   6
HETATM    6  O1  UNL     1      -3.720   1.248  12.722  1.00  0.00    -0.387 OA
BRANCH   6   7
HETATM    7  C3  UNL     1      -4.465   1.836  13.717  1.00  0.00     0.194 C
BRANCH   7   8
HETATM    8  C2  UNL     1      -4.483   1.115  14.982  1.00  0.00    -0.011 C
HETATM    9  C1  UNL     1      -4.589   1.774  16.122  1.00  0.00     0.009 C
ENDBRANCH   7   8
ENDBRANCH   6   7
ENDBRANCH   5   6
ENDBRANCH   3   5
ENDBRANCH   2   3
ENDBRANCH   1   2
BRANCH   1  10
HETATM   10  C8  UNL     1      -0.902   2.304  10.204  1.00  0.00     0.243 C
BRANCH  10  11
HETATM   11  C9  UNL     1      -1.403   3.269  11.258  1.00  0.00     0.105 A
HETATM   12  N1  UNL     1      -0.835   3.630  12.410  1.00  0.00    -0.353 N
HETATM   13  C10 UNL     1      -1.615   4.516  13.054  1.00  0.00     0.106 A
ATOM     14  H1  UNL     1       0.061   3.284  12.754  1.00  0.00     0.166 HD
HETATM   15  C11 UNL     1      -2.724   4.708  12.250  1.00  0.00     0.106 A
HETATM   16  N2  UNL     1      -2.568   3.948  11.181  1.00  0.00    -0.353 N
ATOM     17  H2  UNL     1      -3.231   3.882  10.408  1.00  0.00     0.166 HD
ENDBRANCH  10  11
ENDBRANCH   1  10
TORSDOF 8
ENDMDL