MODEL 2
REMARK VINA RESULT: -5.476497737      2.137      5.405
REMARK  8 active torsions:
REMARK  status: ('A' for Active; 'I' for Inactive)
REMARK    1  A    between atoms: C2_2  and  C3_3
REMARK    2  A    between atoms: C3_3  and  N1_4
REMARK    3  A    between atoms: C6_7  and  C7_8
REMARK    4  A    between atoms: C7_8  and  C8_9
REMARK    5  A    between atoms: C8_9  and  N2_10
REMARK    6  A    between atoms: N2_10  and  C9_12
REMARK    7  A    between atoms: C9_12  and  C10_13
REMARK    8  A    between atoms: C10_13  and  C11_14
ROOT
HETATM    1  N1  UNL     1      -5.686   2.665  15.024  1.00  0.00     0.092 N
HETATM    2  C4  UNL     1      -4.326   2.439  15.383  1.00  0.00     0.273 C
HETATM    3  C5  UNL     1      -3.607   3.688  14.953  1.00  0.00     0.036 C
HETATM    4  C6  UNL     1      -4.368   4.149  13.739  1.00  0.00     0.017 C
HETATM    5  C12 UNL     1      -5.669   3.509  13.857  1.00  0.00     0.277 C
ENDROOT
BRANCH   4   6
HETATM    6  C7  UNL     1      -3.567   3.933  12.508  1.00  0.00     0.026 C
BRANCH   6   7
HETATM    7  C8  UNL     1      -3.962   2.823  11.626  1.00  0.00     0.119 C
BRANCH   7   8
HETATM    8  N2  UNL     1      -3.277   1.619  11.951  1.00  0.00    -0.402 N
ATOM      9  H2  UNL     1      -2.259   1.557  11.971  1.00  0.00     0.158 HD
BRANCH   8  10
HETATM   10  C9  UNL     1      -4.108   0.523  12.243  1.00  0.00     0.062 C
BRANCH  10  11
HETATM   11  C10 UNL     1      -3.716  -0.755  11.542  1.00  0.00     0.113 C
BRANCH  11  12
HETATM   12  C11 UNL     1      -3.761  -0.548  10.086  1.00  0.00     0.236 C
HETATM   13  O1  UNL     1      -4.652   0.045   9.549  1.00  0.00    -0.307 OA
ENDBRANCH  11  12
ENDBRANCH  10  11
ENDBRANCH   8  10
ENDBRANCH   7   8
ENDBRANCH   6   7
ENDBRANCH   4   6
BRANCH   1  14
HETATM   14  C3  UNL     1      -6.516   3.160  16.081  1.00  0.00     0.299 C
BRANCH  14  15
HETATM   15  C2  UNL     1      -6.547   2.105  17.159  1.00  0.00    -0.007 C
HETATM   16  C1  UNL     1      -7.267   1.004  16.978  1.00  0.00     0.008 C
ENDBRANCH  14  15
ENDBRANCH   1  14
TORSDOF 8
ENDMDL