MODEL 1
REMARK VINA RESULT: -5.532493320      0.000      0.000
REMARK  9 active torsions:
REMARK  status: ('A' for Active; 'I' for Inactive)
REMARK    1  A    between atoms: O1_1  and  C1_3
REMARK    2  A    between atoms: C1_3  and  C2_4
REMARK    3  A    between atoms: C1_3  and  C7_10
REMARK    4  A    between atoms: C2_4  and  O2_5
REMARK    5  A    between atoms: O2_5  and  C3_6
REMARK    6  A    between atoms: C3_6  and  C4_7
REMARK    7  A    between atoms: C7_10  and  O3_11
REMARK    8  A    between atoms: O3_11  and  C8_12
REMARK    9  A    between atoms: C8_12  and  C9_13
ROOT
HETATM    1  C1  UNL     1      -4.940   3.715  13.473  1.00  0.00     0.165 C
ENDROOT
BRANCH   1   2
HETATM    2  O1  UNL     1      -6.314   3.711  13.471  1.00  0.00    -0.391 OA
ATOM      3  H1  UNL     1      -6.675   3.787  12.595  1.00  0.00     0.210 HD
ENDBRANCH   1   2
BRANCH   1   4
HETATM    4  C2  UNL     1      -4.367   3.225  14.779  1.00  0.00     0.201 C
BRANCH   4   5
HETATM    5  O2  UNL     1      -4.160   1.895  14.864  1.00  0.00    -0.388 OA
BRANCH   5   6
HETATM    6  C3  UNL     1      -4.859   1.153  15.762  1.00  0.00     0.172 C
BRANCH   6   7
HETATM    7  C4  UNL     1      -5.956   1.886  16.465  1.00  0.00     0.009 A
HETATM    8  C5  UNL     1      -6.178   1.626  17.935  1.00  0.00     0.007 A
HETATM    9  C6  UNL     1      -7.125   1.063  16.927  1.00  0.00     0.007 A
ENDBRANCH   6   7
ENDBRANCH   5   6
ENDBRANCH   4   5
ENDBRANCH   1   4
BRANCH   1  10
HETATM   10  C7  UNL     1      -4.377   2.795  12.394  1.00  0.00     0.201 C
BRANCH  10  11
HETATM   11  O3  UNL     1      -5.330   2.102  11.707  1.00  0.00    -0.388 OA
BRANCH  11  12
HETATM   12  C8  UNL     1      -4.908   1.092  10.889  1.00  0.00     0.172 C
BRANCH  12  13
HETATM   13  C9  UNL     1      -3.801   0.349  11.639  1.00  0.00     0.009 A
HETATM   14  C10 UNL     1      -3.720  -1.131  11.300  1.00  0.00     0.007 A
HETATM   15  C11 UNL     1      -2.626  -0.166  10.913  1.00  0.00     0.007 A
ENDBRANCH  12  13
ENDBRANCH  11  12
ENDBRANCH  10  11
ENDBRANCH   1  10
TORSDOF 9
ENDMDL