MODEL 4
REMARK VINA RESULT: -6.225623788      0.993      1.014
REMARK  7 active torsions:
REMARK  status: ('A' for Active; 'I' for Inactive)
REMARK    1  A    between atoms: C2_2  and  C3_3
REMARK    2  A    between atoms: C3_3  and  N1_4
REMARK    3  A    between atoms: N1_4  and  N2_5
REMARK    4  A    between atoms: N2_5  and  C5_7
REMARK    5  A    between atoms: C5_7  and  C6_8
REMARK    6  A    between atoms: C6_8  and  O1_9
REMARK    7  A    between atoms: O1_9  and  C7_10
ROOT
HETATM    1  C6  UNL     1      -3.908   3.550  13.962  1.00  0.00     0.191 C
ENDROOT
BRANCH   1   2
HETATM    2  C5  UNL     1      -4.229   2.865  12.648  1.00  0.00     0.135 C
BRANCH   2   3
HETATM    3  N2  UNL     1      -3.443   1.671  12.425  1.00  0.00    -0.237 NA
HETATM    4  C4  UNL     1      -2.622   1.898  11.259  1.00  0.00     0.132 C
BRANCH   3   5
HETATM    5  N1  UNL     1      -4.292   0.594  12.341  1.00  0.00    -0.162 NA
BRANCH   5   6
HETATM    6  C3  UNL     1      -4.121  -0.178  11.124  1.00  0.00     0.155 C
BRANCH   6   7
HETATM    7  C2  UNL     1      -3.897  -1.617  11.389  1.00  0.00    -0.020 C
HETATM    8  C1  UNL     1      -2.712  -2.154  11.155  1.00  0.00     0.008 C
ENDBRANCH   6   7
ENDBRANCH   5   6
ENDBRANCH   3   5
ENDBRANCH   2   3
ENDBRANCH   1   2
BRANCH   1   9
HETATM    9  O1  UNL     1      -3.729   2.601  14.983  1.00  0.00    -0.350 OA
BRANCH   9  10
HETATM   10  C7  UNL     1      -4.815   2.137  15.701  1.00  0.00     0.068 A
HETATM   11  C8  UNL     1      -4.742   0.913  16.333  1.00  0.00     0.037 A
HETATM   12  C9  UNL     1      -5.823   0.418  17.065  1.00  0.00     0.003 A
HETATM   13  C10 UNL     1      -6.960   1.157  17.153  1.00  0.00     0.000 A
HETATM   14  C11 UNL     1      -7.070   2.390  16.533  1.00  0.00     0.003 A
HETATM   15  C12 UNL     1      -5.983   2.852  15.816  1.00  0.00     0.037 A
ENDBRANCH   9  10
ENDBRANCH   1   9
TORSDOF 7
ENDMDL