MODEL 1
REMARK VINA RESULT: -6.016513523      0.000      0.000
REMARK  7 active torsions:
REMARK  status: ('A' for Active; 'I' for Inactive)
REMARK    1  A    between atoms: C2_2  and  C3_3
REMARK    2  A    between atoms: C3_3  and  C4_4
REMARK    3  A    between atoms: C4_4  and  N1_5
REMARK    4  A    between atoms: N1_5  and  C5_6
REMARK    5  A    between atoms: N1_5  and  C8_9
REMARK    6  A    between atoms: C5_6  and  C6_7
REMARK    7  A    between atoms: C8_9  and  C9_10
ROOT
HETATM    1  N1  UNL     1      -3.968   2.435  14.518  1.00  0.00    -0.269 NA
ENDROOT
BRANCH   1   2
HETATM    2  C4  UNL     1      -4.107   1.973  15.943  1.00  0.00     0.103 C
BRANCH   2   3
HETATM    3  C3  UNL     1      -4.854   0.647  15.967  1.00  0.00     0.041 C
BRANCH   3   4
HETATM    4  C2  UNL     1      -5.905   0.796  16.982  1.00  0.00    -0.036 C
HETATM    5  C1  UNL     1      -7.087   1.256  16.998  1.00  0.00     0.007 C
ENDBRANCH   3   4
ENDBRANCH   2   3
ENDBRANCH   1   2
BRANCH   1   6
HETATM    6  C5  UNL     1      -4.352   3.766  14.592  1.00  0.00     0.064 C
BRANCH   6   7
HETATM    7  C6  UNL     1      -5.781   4.115  14.678  1.00  0.00     0.001 C
HETATM    8  C7  UNL     1      -6.301   5.063  13.911  1.00  0.00     0.012 C
ENDBRANCH   6   7
ENDBRANCH   1   6
BRANCH   1   9
HETATM    9  C8  UNL     1      -4.481   1.423  13.746  1.00  0.00     0.083 C
BRANCH   9  10
HETATM   10  C9  UNL     1      -4.366   1.365  12.309  1.00  0.00     0.069 A
HETATM   11  C10 UNL     1      -4.519   2.276  11.316  1.00  0.00     0.185 A
HETATM   12  O1  UNL     1      -4.475   1.620  10.158  1.00  0.00    -0.246 OA
HETATM   13  N2  UNL     1      -4.309   0.352  10.326  1.00  0.00    -0.225 N
HETATM   14  C11 UNL     1      -4.241   0.139  11.631  1.00  0.00     0.278 A
ATOM     15  H2  UNL     1      -4.243  -0.354   9.593  1.00  0.00     0.198 HD
HETATM   16  O2  UNL     1      -4.089  -0.984  12.176  1.00  0.00    -0.265 OA
ENDBRANCH   9  10
ENDBRANCH   1   9
TORSDOF 7
ENDMDL