MODEL 2
REMARK VINA RESULT: -6.384869828      2.047      3.811
REMARK  12 active torsions:
REMARK  status: ('A' for Active; 'I' for Inactive)
REMARK    1  A    between atoms: C2_2  and  C3_3
REMARK    2  A    between atoms: C3_3  and  N1_4
REMARK    3  A    between atoms: N1_4  and  C4_7
REMARK    4  A    between atoms: C4_7  and  C5_8
REMARK    5  A    between atoms: C5_8  and  O1_9
REMARK    6  A    between atoms: O1_9  and  C6_10
REMARK    7  A    between atoms: C6_10  and  C7_12
REMARK    8  A    between atoms: C7_12  and  O3_13
REMARK    9  A    between atoms: O3_13  and  C8_14
REMARK   10  A    between atoms: C9_15  and  O4_16
REMARK   11  A    between atoms: C12_19  and  C13_20
REMARK   12  A    between atoms: N2_21  and  O5_23
ROOT
HETATM    1  C8  UNL     1      -3.080   2.310  11.511  1.00  0.00     0.178 A
HETATM    2  C9  UNL     1      -1.964   1.661  11.035  1.00  0.00     0.120 A
HETATM    3  C11 UNL     1      -2.007   0.288  10.751  1.00  0.00     0.055 A
HETATM    4  C12 UNL     1      -3.190  -0.380  10.963  1.00  0.00    -0.000 A
HETATM    5  C14 UNL     1      -4.284   0.318  11.444  1.00  0.00     0.105 A
HETATM    6  N3  UNL     1      -4.253   1.623  11.717  1.00  0.00    -0.339 N
HETATM    7  C15 UNL     1      -5.395   2.358  12.220  1.00  0.00     0.158 C
ENDROOT
BRANCH   1   8
HETATM    8  O3  UNL     1      -3.080   3.623  11.788  1.00  0.00    -0.324 OA
BRANCH   8   9
HETATM    9  C7  UNL     1      -2.469   4.488  12.626  1.00  0.00     0.288 C
BRANCH   9  10
HETATM   10  C6  UNL     1      -2.686   4.338  14.078  1.00  0.00     0.283 C
HETATM   11  O2  UNL     1      -1.706   4.327  14.863  1.00  0.00    -0.263 OA
BRANCH  10  12
HETATM   12  O1  UNL     1      -3.934   4.203  14.654  1.00  0.00    -0.318 OA
BRANCH  12  13
HETATM   13  C5  UNL     1      -4.890   5.223  14.734  1.00  0.00     0.206 C
BRANCH  13  14
HETATM   14  C4  UNL     1      -6.214   4.528  15.086  1.00  0.00     0.259 C
BRANCH  14  15
HETATM   15  N1  UNL     1      -5.950   3.194  15.595  1.00  0.00    -0.070 N
ATOM     16  H12 UNL     1      -4.965   3.071  15.829  1.00  0.00     0.277 HD
ATOM     17  H11 UNL     1      -6.024   2.492  14.859  1.00  0.00     0.277 HD
BRANCH  15  18
HETATM   18  C3  UNL     1      -6.804   2.883  16.712  1.00  0.00     0.259 C
BRANCH  18  19
HETATM   19  C2  UNL     1      -7.001   1.419  16.779  1.00  0.00    -0.010 C
HETATM   20  C1  UNL     1      -6.096   0.610  17.353  1.00  0.00     0.008 C
ENDBRANCH  18  19
ENDBRANCH  15  18
ENDBRANCH  14  15
ENDBRANCH  13  14
ENDBRANCH  12  13
ENDBRANCH  10  12
ENDBRANCH   9  10
ENDBRANCH   8   9
ENDBRANCH   1   8
BRANCH   2  21
HETATM   21  O4  UNL     1      -0.768   2.352  10.830  1.00  0.00    -0.352 OA
HETATM   22  C10 UNL     1      -0.511   2.906   9.556  1.00  0.00     0.210 C
ENDBRANCH   2  21
BRANCH   4  23
HETATM   23  C13 UNL     1      -3.300  -1.804  10.689  1.00  0.00     0.126 C
HETATM   24  N2  UNL     1      -2.692  -2.666  11.430  1.00  0.00    -0.280 N
ATOM     25  H2  UNL     1      -2.131  -2.332  12.214  1.00  0.00     0.193 HD
BRANCH  24  26
HETATM   26  O5  UNL     1      -2.773  -4.009  11.200  1.00  0.00    -0.290 OA
ATOM     27  H5  UNL     1      -3.283  -4.588  11.755  1.00  0.00     0.244 HD
ENDBRANCH  24  26
ENDBRANCH   4  23
TORSDOF 12
ENDMDL