MODEL 5
REMARK VINA RESULT: -6.025400065      2.471      5.591
REMARK  13 active torsions:
REMARK  status: ('A' for Active; 'I' for Inactive)
REMARK    1  A    between atoms: O1_2  and  C2_3
REMARK    2  A    between atoms: C2_3  and  O2_4
REMARK    3  A    between atoms: C2_3  and  C3_6
REMARK    4  A    between atoms: C3_6  and  O3_7
REMARK    5  A    between atoms: C3_6  and  C4_9
REMARK    6  A    between atoms: C4_9  and  N1_10
REMARK    7  A    between atoms: N1_10  and  C5_11
REMARK    8  A    between atoms: N1_10  and  C12_20
REMARK    9  A    between atoms: C5_11  and  C6_12
REMARK   10  A    between atoms: C6_12  and  N2_13
REMARK   11  A    between atoms: N2_13  and  C8_15
REMARK   12  A    between atoms: C8_15  and  C9_16
REMARK   13  A    between atoms: C12_20  and  C13_21
ROOT
HETATM    1  C9  UNL     1      -3.844  -0.331  11.392  1.00  0.00     0.127 C
HETATM    2  C10 UNL     1      -4.791  -0.325  10.165  1.00  0.00     0.031 C
HETATM    3  C11 UNL     1      -3.263  -1.658  11.387  1.00  0.00     0.069 C
HETATM    4  N3  UNL     1      -2.820  -2.747  11.388  1.00  0.00    -0.197 NA
ENDROOT
BRANCH   1   5
HETATM    5  C8  UNL     1      -2.845   0.756  11.262  1.00  0.00     0.081 C
BRANCH   5   6
HETATM    6  N2  UNL     1      -3.139   2.058  11.618  1.00  0.00    -0.375 N
HETATM    7  C7  UNL     1      -2.200   3.009  11.173  1.00  0.00     0.154 C
BRANCH   6   8
HETATM    8  C6  UNL     1      -4.222   2.452  12.399  1.00  0.00     0.092 C
BRANCH   8   9
HETATM    9  C5  UNL     1      -3.793   3.169  13.625  1.00  0.00     0.317 C
BRANCH   9  10
HETATM   10  N1  UNL     1      -4.822   3.194  14.704  1.00  0.00     0.096 N
BRANCH  10  11
HETATM   11  C4  UNL     1      -5.168   1.815  14.865  1.00  0.00     0.309 C
BRANCH  11  12
HETATM   12  C3  UNL     1      -4.492   0.906  15.769  1.00  0.00     0.201 C
BRANCH  12  13
HETATM   13  C2  UNL     1      -5.555   0.608  16.895  1.00  0.00     0.286 C
BRANCH  13  14
HETATM   14  O1  UNL     1      -6.766   0.473  16.270  1.00  0.00    -0.364 OA
HETATM   15  C1  UNL     1      -7.749   1.232  16.940  1.00  0.00     0.204 C
ENDBRANCH  13  14
BRANCH  13  16
HETATM   16  O2  UNL     1      -5.568   1.592  17.840  1.00  0.00    -0.369 OA
ATOM     17  H2  UNL     1      -4.710   1.979  17.968  1.00  0.00     0.212 HD
ENDBRANCH  13  16
ENDBRANCH  12  13
BRANCH  12  18
HETATM   18  O3  UNL     1      -3.372   1.199  16.444  1.00  0.00    -0.389 OA
ATOM     19  H3  UNL     1      -2.684   0.761  15.955  1.00  0.00     0.210 HD
ENDBRANCH  12  18
ENDBRANCH  11  12
ENDBRANCH  10  11
BRANCH  10  20
HETATM   20  C12 UNL     1      -5.904   3.927  14.121  1.00  0.00     0.277 C
BRANCH  20  21
HETATM   21  C13 UNL     1      -5.995   5.394  14.217  1.00  0.00     0.014 A
HETATM   22  C14 UNL     1      -7.005   6.081  13.230  1.00  0.00     0.007 A
HETATM   23  C15 UNL     1      -5.576   6.090  12.891  1.00  0.00     0.007 A
ENDBRANCH  20  21
ENDBRANCH  10  20
ENDBRANCH   9  10
ENDBRANCH   8   9
ENDBRANCH   6   8
ENDBRANCH   5   6
ENDBRANCH   1   5
TORSDOF 13
ENDMDL