MODEL 2
REMARK VINA RESULT: -6.417151341      3.110      7.163
REMARK  12 active torsions:
REMARK  status: ('A' for Active; 'I' for Inactive)
REMARK    1  A    between atoms: C2_2  and  C3_3
REMARK    2  A    between atoms: C3_3  and  N1_4
REMARK    3  A    between atoms: C4_6  and  C5_7
REMARK    4  A    between atoms: C6_8  and  C7_9
REMARK    5  A    between atoms: C7_9  and  C8_10
REMARK    6  A    between atoms: C7_9  and  C11_14
REMARK    7  A    between atoms: C8_10  and  O1_11
REMARK    8  A    between atoms: O1_11  and  C9_12
REMARK    9  A    between atoms: C11_14  and  N2_15
REMARK   10  A    between atoms: C14_18  and  C15_19
REMARK   11  A    between atoms: C15_19  and  O2_20
REMARK   12  A    between atoms: C16_23  and  O4_24
ROOT
HETATM    1  C7  UNL     1      -2.730   5.035  13.019  1.00  0.00    -0.038 C
ENDROOT
BRANCH   1   2
HETATM    2  C6  UNL     1      -3.282   4.114  14.010  1.00  0.00     0.008 C
HETATM    3  C5  UNL     1      -4.358   4.086  14.705  1.00  0.00     0.017 C
BRANCH   3   4
HETATM    4  C4  UNL     1      -4.610   2.964  15.653  1.00  0.00     0.083 C
HETATM    5  N1  UNL     1      -4.787   1.757  15.244  1.00  0.00    -0.395 N
ATOM      6  H1  UNL     1      -4.756   1.542  14.247  1.00  0.00     0.159 HD
BRANCH   5   7
HETATM    7  C3  UNL     1      -5.027   0.717  16.205  1.00  0.00     0.145 C
BRANCH   7   8
HETATM    8  C2  UNL     1      -6.012   1.176  17.251  1.00  0.00    -0.018 C
HETATM    9  C1  UNL     1      -7.313   1.102  17.055  1.00  0.00     0.008 C
ENDBRANCH   7   8
ENDBRANCH   5   7
ENDBRANCH   3   4
ENDBRANCH   1   2
BRANCH   1  10
HETATM   10  C8  UNL     1      -1.678   5.906  13.712  1.00  0.00     0.203 C
BRANCH  10  11
HETATM   11  O1  UNL     1      -2.085   6.913  14.449  1.00  0.00    -0.387 OA
BRANCH  11  12
HETATM   12  C9  UNL     1      -1.767   8.209  14.255  1.00  0.00     0.163 C
HETATM   13  C10 UNL     1      -1.702   8.956  15.605  1.00  0.00     0.033 C
ENDBRANCH  11  12
ENDBRANCH  10  11
ENDBRANCH   1  10
BRANCH   1  14
HETATM   14  C11 UNL     1      -2.395   4.612  11.671  1.00  0.00     0.163 C
BRANCH  14  15
HETATM   15  N2  UNL     1      -2.827   3.241  11.337  1.00  0.00    -0.339 N
HETATM   16  C12 UNL     1      -1.924   2.230  10.974  1.00  0.00     0.089 C
HETATM   17  C13 UNL     1      -2.331   0.989  11.145  1.00  0.00     0.024 C
HETATM   18  C14 UNL     1      -3.654   0.671  11.686  1.00  0.00     0.174 C
HETATM   19  O3  UNL     1      -4.525   1.690  11.857  1.00  0.00    -0.333 OA
HETATM   20  C16 UNL     1      -4.235   2.891  11.295  1.00  0.00     0.371 C
BRANCH  18  21
HETATM   21  C15 UNL     1      -4.206  -0.487  10.878  1.00  0.00     0.200 C
BRANCH  21  22
HETATM   22  O2  UNL     1      -4.761  -0.107   9.683  1.00  0.00    -0.398 OA
ATOM     23  H2  UNL     1      -4.265  -0.392   8.925  1.00  0.00     0.209 HD
ENDBRANCH  21  22
ENDBRANCH  18  21
BRANCH  20  24
HETATM   24  O4  UNL     1      -4.700   2.994   9.961  1.00  0.00    -0.354 OA
ATOM     25  H4  UNL     1      -4.240   3.700   9.524  1.00  0.00     0.214 HD
ENDBRANCH  20  24
ENDBRANCH  14  15
ENDBRANCH   1  14
TORSDOF 12
ENDMDL