MODEL 2
REMARK VINA RESULT: -5.970022153      1.257      1.475
REMARK  12 active torsions:
REMARK  status: ('A' for Active; 'I' for Inactive)
REMARK    1  A    between atoms: C2_2  and  N1_3
REMARK    2  A    between atoms: N1_3  and  C3_4
REMARK    3  A    between atoms: N1_3  and  C11_18
REMARK    4  A    between atoms: C3_4  and  C4_5
REMARK    5  A    between atoms: C4_5  and  O1_6
REMARK    6  A    between atoms: C4_5  and  C5_8
REMARK    7  A    between atoms: C5_8  and  O2_9
REMARK    8  A    between atoms: O2_9  and  C6_10
REMARK    9  A    between atoms: C6_10  and  C7_11
REMARK   10  A    between atoms: C7_11  and  O3_12
REMARK   11  A    between atoms: C7_11  and  C8_14
REMARK   12  A    between atoms: C8_14  and  N2_15
ROOT
HETATM    1  C4  UNL     1      -2.526   4.561  14.253  1.00  0.00     0.170 C
ENDROOT
BRANCH   1   2
HETATM    2  C3  UNL     1      -3.884   3.926  14.101  1.00  0.00     0.306 C
BRANCH   2   3
HETATM    3  N1  UNL     1      -4.799   4.069  15.159  1.00  0.00     0.095 N
BRANCH   3   4
HETATM    4  C2  UNL     1      -5.888   4.988  14.989  1.00  0.00     0.268 C
HETATM    5  C1  UNL     1      -6.114   5.421  13.575  1.00  0.00     0.037 C
ENDBRANCH   3   4
BRANCH   3   6
HETATM    6  C11 UNL     1      -5.402   2.766  15.437  1.00  0.00     0.227 C
HETATM    7  C12 UNL     1      -6.577   2.899  16.343  1.00  0.00     0.062 C
HETATM    8  C13 UNL     1      -6.955   1.601  17.003  1.00  0.00     0.169 C
HETATM    9  O4  UNL     1      -6.466   0.523  16.246  1.00  0.00    -0.391 OA
HETATM   10  C14 UNL     1      -5.090   0.526  16.470  1.00  0.00     0.169 C
HETATM   11  C15 UNL     1      -4.421   1.772  15.984  1.00  0.00     0.062 C
ENDBRANCH   3   6
ENDBRANCH   2   3
ENDBRANCH   1   2
BRANCH   1  12
HETATM   12  O1  UNL     1      -1.727   4.003  15.223  1.00  0.00    -0.392 OA
ATOM     13  H1  UNL     1      -1.064   3.403  14.903  1.00  0.00     0.210 HD
ENDBRANCH   1  12
BRANCH   1  14
HETATM   14  C5  UNL     1      -1.855   4.819  12.946  1.00  0.00     0.201 C
BRANCH  14  15
HETATM   15  O2  UNL     1      -2.015   3.900  11.954  1.00  0.00    -0.386 OA
BRANCH  15  16
HETATM   16  C6  UNL     1      -0.945   3.205  11.501  1.00  0.00     0.201 C
BRANCH  16  17
HETATM   17  C7  UNL     1      -1.331   2.170  10.444  1.00  0.00     0.170 C
BRANCH  17  18
HETATM   18  O3  UNL     1      -2.334   2.728   9.656  1.00  0.00    -0.392 OA
ATOM     19  H3  UNL     1      -2.174   3.663   9.610  1.00  0.00     0.210 HD
ENDBRANCH  17  18
BRANCH  17  20
HETATM   20  C8  UNL     1      -1.830   0.918  11.108  1.00  0.00     0.305 C
BRANCH  20  21
HETATM   21  N2  UNL     1      -3.232   0.702  10.947  1.00  0.00     0.082 N
HETATM   22  C9  UNL     1      -3.533  -0.543  10.288  1.00  0.00     0.309 C
HETATM   23  C10 UNL     1      -3.989   0.890  12.163  1.00  0.00     0.309 C
ENDBRANCH  20  21
ENDBRANCH  17  20
ENDBRANCH  16  17
ENDBRANCH  15  16
ENDBRANCH  14  15
ENDBRANCH   1  14
TORSDOF 12
ENDMDL