MODEL 1
REMARK VINA RESULT: -5.571323454      0.000      0.000
REMARK  12 active torsions:
REMARK  status: ('A' for Active; 'I' for Inactive)
REMARK    1  A    between atoms: C3_3  and  O1_4
REMARK    2  A    between atoms: O1_4  and  C4_5
REMARK    3  A    between atoms: C4_5  and  C5_6
REMARK    4  A    between atoms: C5_6  and  O2_7
REMARK    5  A    between atoms: C5_6  and  C6_9
REMARK    6  A    between atoms: C6_9  and  N1_10
REMARK    7  A    between atoms: N1_10  and  C8_12
REMARK    8  A    between atoms: C8_12  and  C9_13
REMARK    9  A    between atoms: C9_13  and  N2_14
REMARK   10  A    between atoms: N2_14  and  C10_15
REMARK   11  A    between atoms: N2_14  and  C14_19
REMARK   12  A    between atoms: C10_15  and  C11_16
ROOT
HETATM    1  C1  UNL     1      -7.036   1.273  17.067  1.00  0.00     0.014 C
HETATM    2  C2  UNL     1      -5.946   1.068  16.602  1.00  0.00    -0.091 C
HETATM    3  C3  UNL     1      -4.595   0.807  16.011  1.00  0.00     0.260 C
ENDROOT
BRANCH   3   4
HETATM    4  O1  UNL     1      -4.337   1.678  15.006  1.00  0.00    -0.377 OA
BRANCH   4   5
HETATM    5  C4  UNL     1      -4.391   3.006  15.206  1.00  0.00     0.202 C
BRANCH   5   6
HETATM    6  C5  UNL     1      -5.308   3.825  14.341  1.00  0.00     0.170 C
BRANCH   6   7
HETATM    7  O2  UNL     1      -6.066   4.647  15.132  1.00  0.00    -0.392 OA
ATOM      8  H2  UNL     1      -6.175   5.487  14.701  1.00  0.00     0.210 HD
ENDBRANCH   6   7
BRANCH   6   9
HETATM    9  C6  UNL     1      -4.437   4.553  13.338  1.00  0.00     0.305 C
BRANCH   9  10
HETATM   10  N1  UNL     1      -3.173   4.952  13.917  1.00  0.00     0.088 N
HETATM   11  C7  UNL     1      -3.134   6.366  14.227  1.00  0.00     0.310 C
BRANCH  10  12
HETATM   12  C8  UNL     1      -2.077   4.619  13.033  1.00  0.00     0.291 C
BRANCH  12  13
HETATM   13  C9  UNL     1      -2.612   3.990  11.793  1.00  0.00     0.156 C
BRANCH  13  14
HETATM   14  N2  UNL     1      -1.851   2.765  11.456  1.00  0.00    -0.351 N
BRANCH  14  15
HETATM   15  C10 UNL     1      -0.471   2.972  11.199  1.00  0.00     0.129 C
BRANCH  15  16
HETATM   16  C11 UNL     1      -0.079   3.686   9.968  1.00  0.00    -0.005 C
HETATM   17  C12 UNL     1      -0.665   3.184   8.686  1.00  0.00     0.011 C
HETATM   18  C13 UNL     1       1.410   3.893   9.789  1.00  0.00     0.011 C
ENDBRANCH  15  16
ENDBRANCH  14  15
BRANCH  14  19
HETATM   19  C14 UNL     1      -2.564   1.541  11.424  1.00  0.00     0.173 C
HETATM   20  N3  UNL     1      -3.570   1.232  12.165  1.00  0.00    -0.361 N
HETATM   21  C15 UNL     1      -4.056  -0.081  11.876  1.00  0.00     0.142 C
ATOM     22  H3  UNL     1      -3.972   1.849  12.871  1.00  0.00     0.162 HD
HETATM   23  C16 UNL     1      -3.421  -0.393  10.534  1.00  0.00     0.142 C
HETATM   24  N4  UNL     1      -2.257   0.462  10.562  1.00  0.00    -0.361 N
ATOM     25  H4  UNL     1      -1.383   0.316  10.057  1.00  0.00     0.162 HD
ENDBRANCH  14  19
ENDBRANCH  13  14
ENDBRANCH  12  13
ENDBRANCH  10  12
ENDBRANCH   9  10
ENDBRANCH   6   9
ENDBRANCH   5   6
ENDBRANCH   4   5
ENDBRANCH   3   4
TORSDOF 12
ENDMDL