MODEL 3
REMARK VINA RESULT: -6.091514901      1.001      1.021
REMARK  13 active torsions:
REMARK  status: ('A' for Active; 'I' for Inactive)
REMARK    1  A    between atoms: C2_2  and  C3_3
REMARK    2  A    between atoms: C3_3  and  C4_4
REMARK    3  A    between atoms: C4_4  and  C5_5
REMARK    4  A    between atoms: C7_9  and  C8_10
REMARK    5  A    between atoms: C8_10  and  C9_11
REMARK    6  A    between atoms: C9_11  and  N2_12
REMARK    7  A    between atoms: N2_12  and  C11_14
REMARK    8  A    between atoms: C11_14  and  C12_15
REMARK    9  A    between atoms: C12_15  and  O1_16
REMARK   10  A    between atoms: C12_15  and  C13_18
REMARK   11  A    between atoms: C13_18  and  N3_19
REMARK   12  A    between atoms: N3_19  and  O2_20
REMARK   13  A    between atoms: N3_19  and  C14_22
ROOT
HETATM    1  C9  UNL     1      -2.823   5.975  11.620  1.00  0.00     0.278 C
ENDROOT
BRANCH   1   2
HETATM    2  C8  UNL     1      -3.541   6.324  12.904  1.00  0.00     0.089 C
BRANCH   2   3
HETATM    3  C7  UNL     1      -3.658   5.153  13.825  1.00  0.00     0.029 A
HETATM    4  C6  UNL     1      -2.642   4.461  14.453  1.00  0.00     0.114 A
HETATM    5  N1  UNL     1      -3.223   3.477  15.197  1.00  0.00    -0.354 N
HETATM    6  C5  UNL     1      -4.559   3.533  15.052  1.00  0.00     0.083 A
ATOM      7  H1  UNL     1      -2.721   2.802  15.774  1.00  0.00     0.166 HD
HETATM    8  N4  UNL     1      -4.798   4.571  14.206  1.00  0.00    -0.343 N
HETATM    9  C15 UNL     1      -6.112   4.975  13.790  1.00  0.00     0.157 C
BRANCH   6  10
HETATM   10  C4  UNL     1      -5.601   2.657  15.673  1.00  0.00     0.080 C
BRANCH  10  11
HETATM   11  C3  UNL     1      -4.984   1.534  16.452  1.00  0.00     0.033 C
BRANCH  11  12
HETATM   12  C2  UNL     1      -6.064   0.838  17.199  1.00  0.00    -0.037 C
HETATM   13  C1  UNL     1      -7.344   1.140  17.020  1.00  0.00     0.007 C
ENDBRANCH  11  12
ENDBRANCH  10  11
ENDBRANCH   6  10
ENDBRANCH   2   3
ENDBRANCH   1   2
BRANCH   1  14
HETATM   14  N2  UNL     1      -3.486   4.910  10.964  1.00  0.00     0.087 N
HETATM   15  C10 UNL     1      -4.491   5.492  10.067  1.00  0.00     0.310 C
BRANCH  14  16
HETATM   16  C11 UNL     1      -2.728   3.904  10.327  1.00  0.00     0.305 C
BRANCH  16  17
HETATM   17  C12 UNL     1      -2.840   2.555  10.944  1.00  0.00     0.166 C
BRANCH  17  18
HETATM   18  O1  UNL     1      -1.745   2.411  11.831  1.00  0.00    -0.392 OA
ATOM     19  H1  UNL     1      -2.005   1.785  12.497  1.00  0.00     0.210 HD
ENDBRANCH  17  18
BRANCH  17  20
HETATM   20  C13 UNL     1      -4.105   2.179  11.609  1.00  0.00     0.192 C
BRANCH  20  21
HETATM   21  N3  UNL     1      -4.363   0.797  11.788  1.00  0.00    -0.234 N
BRANCH  21  22
HETATM   22  O2  UNL     1      -4.538   0.369  13.103  1.00  0.00    -0.285 OA
ATOM     23  H2  UNL     1      -3.827   0.559  13.704  1.00  0.00     0.245 HD
ENDBRANCH  21  22
BRANCH  21  24
HETATM   24  C14 UNL     1      -4.449  -0.147  10.767  1.00  0.00     0.376 C
HETATM   25  O3  UNL     1      -5.018   0.070   9.663  1.00  0.00    -0.281 OA
ENDBRANCH  21  24
ENDBRANCH  20  21
ENDBRANCH  17  20
ENDBRANCH  16  17
ENDBRANCH  14  16
ENDBRANCH   1  14
TORSDOF 13
ENDMDL