MODEL 3
REMARK VINA RESULT: -5.712975300      2.933      5.427
REMARK  11 active torsions:
REMARK  status: ('A' for Active; 'I' for Inactive)
REMARK    1  A    between atoms: O1_2  and  C2_3
REMARK    2  A    between atoms: C2_3  and  O2_4
REMARK    3  A    between atoms: O2_4  and  C3_5
REMARK    4  A    between atoms: C3_5  and  C5_7
REMARK    5  A    between atoms: C3_5  and  C6_10
REMARK    6  A    between atoms: C6_10  and  C7_11
REMARK    7  A    between atoms: C6_10  and  N2_16
REMARK    8  A    between atoms: C7_11  and  C8_12
REMARK    9  A    between atoms: C8_12  and  N1_13
REMARK   10  A    between atoms: N2_16  and  C9_18
REMARK   11  A    between atoms: C9_18  and  C10_19
ROOT
HETATM    1  C6  UNL     1      -3.391   3.387  11.498  1.00  0.00     0.150 C
ENDROOT
BRANCH   1   2
HETATM    2  C3  UNL     1      -3.431   1.919  11.684  1.00  0.00     0.171 C
HETATM    3  C4  UNL     1      -2.183   1.253  11.105  1.00  0.00     0.061 C
BRANCH   2   4
HETATM    4  O2  UNL     1      -3.522   1.689  13.045  1.00  0.00    -0.343 OA
BRANCH   4   5
HETATM    5  C2  UNL     1      -4.487   2.323  13.747  1.00  0.00     0.339 C
BRANCH   5   6
HETATM    6  O1  UNL     1      -3.895   2.730  14.978  1.00  0.00    -0.372 OA
HETATM    7  C1  UNL     1      -4.432   1.911  15.971  1.00  0.00     0.204 C
ENDBRANCH   5   6
ENDBRANCH   4   5
ENDBRANCH   2   4
BRANCH   2   8
HETATM    8  C5  UNL     1      -4.534   1.326  10.883  1.00  0.00     0.211 C
HETATM    9  O3  UNL     1      -4.147   0.364  10.117  1.00  0.00    -0.646 OA
HETATM   10  O4  UNL     1      -5.846   1.669  10.876  1.00  0.00    -0.646 OA
ENDBRANCH   2   8
ENDBRANCH   1   2
BRANCH   1  11
HETATM   11  C7  UNL     1      -1.953   3.900  11.503  1.00  0.00     0.018 C
BRANCH  11  12
HETATM   12  C8  UNL     1      -1.395   4.592  12.604  1.00  0.00     0.078 C
BRANCH  12  13
HETATM   13  N1  UNL     1      -1.524   4.143  13.833  1.00  0.00    -0.408 N
ATOM     14  H12 UNL     1      -1.952   3.227  13.971  1.00  0.00     0.155 HD
ATOM     15  H11 UNL     1      -1.208   4.689  14.635  1.00  0.00     0.155 HD
ENDBRANCH  12  13
ENDBRANCH  11  12
ENDBRANCH   1  11
BRANCH   1  16
HETATM   16  N2  UNL     1      -4.055   3.997  10.404  1.00  0.00    -0.384 N
ATOM     17  H2  UNL     1      -4.726   3.453   9.862  1.00  0.00     0.159 HD
BRANCH  16  18
HETATM   18  C9  UNL     1      -3.814   5.303  10.058  1.00  0.00     0.132 C
BRANCH  18  19
HETATM   19  C10 UNL     1      -5.068   6.125   9.927  1.00  0.00     0.122 A
HETATM   20  N3  UNL     1      -5.802   6.068   8.817  1.00  0.00    -0.351 N
HETATM   21  C11 UNL     1      -6.940   6.821   8.692  1.00  0.00     0.091 A
ATOM     22  H3  UNL     1      -5.513   5.458   8.052  1.00  0.00     0.166 HD
HETATM   23  C12 UNL     1      -7.334   7.645   9.717  1.00  0.00     0.034 A
HETATM   24  C13 UNL     1      -6.556   7.685  10.860  1.00  0.00     0.093 A
HETATM   25  N4  UNL     1      -5.423   6.912  10.937  1.00  0.00    -0.346 N
HETATM   26  C14 UNL     1      -4.616   6.951  12.114  1.00  0.00     0.157 C
ENDBRANCH  18  19
ENDBRANCH  16  18
ENDBRANCH   1  16
TORSDOF 11
ENDMDL