MODEL 5
REMARK VINA RESULT: -5.921688710      0.542      1.835
REMARK  13 active torsions:
REMARK  status: ('A' for Active; 'I' for Inactive)
REMARK    1  A    between atoms: C2_2  and  C3_3
REMARK    2  A    between atoms: C3_3  and  N1_4
REMARK    3  A    between atoms: N1_4  and  C4_5
REMARK    4  A    between atoms: N1_4  and  C7_8
REMARK    5  A    between atoms: C4_5  and  C5_6
REMARK    6  A    between atoms: C7_8  and  C8_9
REMARK    7  A    between atoms: C8_9  and  N2_10
REMARK    8  A    between atoms: N2_10  and  C9_13
REMARK    9  A    between atoms: C9_13  and  C10_14
REMARK   10  A    between atoms: C10_14  and  O1_15
REMARK   11  A    between atoms: C10_14  and  C11_17
REMARK   12  A    between atoms: C11_17  and  N3_18
REMARK   13  A    between atoms: N3_18  and  C12_20
ROOT
HETATM    1  C10 UNL     1      -4.560   1.396  11.108  1.00  0.00     0.162 C
ENDROOT
BRANCH   1   2
HETATM    2  C9  UNL     1      -3.668   2.582  10.869  1.00  0.00     0.265 C
BRANCH   2   3
HETATM    3  N2  UNL     1      -4.213   3.540   9.957  1.00  0.00    -0.071 N
ATOM      4  H22 UNL     1      -5.226   3.595  10.065  1.00  0.00     0.277 HD
ATOM      5  H21 UNL     1      -4.156   3.191   9.001  1.00  0.00     0.277 HD
BRANCH   3   6
HETATM    6  C8  UNL     1      -3.643   4.828  10.044  1.00  0.00     0.252 C
BRANCH   6   7
HETATM    7  C7  UNL     1      -4.588   5.863  10.548  1.00  0.00     0.149 C
BRANCH   7   8
HETATM    8  N1  UNL     1      -4.859   6.992   9.744  1.00  0.00    -0.388 N
BRANCH   8   9
HETATM    9  C3  UNL     1      -5.344   6.661   8.435  1.00  0.00     0.084 C
BRANCH   9  10
HETATM   10  C2  UNL     1      -6.686   7.066   8.078  1.00  0.00     0.007 C
HETATM   11  C1  UNL     1      -7.787   6.390   7.936  1.00  0.00     0.012 C
ENDBRANCH   9  10
ENDBRANCH   8   9
BRANCH   8  12
HETATM   12  C4  UNL     1      -5.469   8.118  10.340  1.00  0.00     0.122 C
BRANCH  12  13
HETATM   13  C5  UNL     1      -6.004   7.847  11.732  1.00  0.00     0.015 C
HETATM   14  C6  UNL     1      -7.493   7.773  11.821  1.00  0.00     0.006 C
ENDBRANCH  12  13
ENDBRANCH   8  12
ENDBRANCH   7   8
ENDBRANCH   6   7
ENDBRANCH   3   6
ENDBRANCH   2   3
ENDBRANCH   1   2
BRANCH   1  15
HETATM   15  O1  UNL     1      -5.900   1.717  11.002  1.00  0.00    -0.392 OA
ATOM     16  H1  UNL     1      -6.209   1.687  10.103  1.00  0.00     0.210 HD
ENDBRANCH   1  15
BRANCH   1  17
HETATM   17  C11 UNL     1      -4.237   0.858  12.484  1.00  0.00     0.171 C
BRANCH  17  18
HETATM   18  N3  UNL     1      -3.981   1.862  13.468  1.00  0.00    -0.223 N
ATOM     19  H3  UNL     1      -3.243   2.554  13.337  1.00  0.00     0.177 HD
BRANCH  18  20
HETATM   20  C12 UNL     1      -4.726   1.864  14.544  1.00  0.00     0.679 A
HETATM   21  N4  UNL     1      -4.657   0.860  15.449  1.00  0.00    -0.202 N
HETATM   22  C13 UNL     1      -5.398   0.806  16.569  1.00  0.00     0.107 A
ATOM     23  H4  UNL     1      -4.003   0.098  15.271  1.00  0.00     0.183 HD
HETATM   24  C14 UNL     1      -6.286   1.824  16.826  1.00  0.00     0.035 A
HETATM   25  C15 UNL     1      -6.372   2.855  15.920  1.00  0.00     0.110 A
HETATM   26  N5  UNL     1      -5.597   2.855  14.804  1.00  0.00    -0.198 N
HETATM   27  C16 UNL     1      -5.742   3.965  13.918  1.00  0.00     0.174 C
ENDBRANCH  18  20
ENDBRANCH  17  18
ENDBRANCH   1  17
TORSDOF 13
ENDMDL