MODEL 2
REMARK VINA RESULT: -6.008285115      2.903      5.044
REMARK  16 active torsions:
REMARK  status: ('A' for Active; 'I' for Inactive)
REMARK    1  A    between atoms: C2_2  and  C3_3
REMARK    2  A    between atoms: C3_3  and  C4_4
REMARK    3  A    between atoms: C5_5  and  C6_6
REMARK    4  A    between atoms: C6_6  and  O1_7
REMARK    5  A    between atoms: O1_7  and  C7_8
REMARK    6  A    between atoms: C7_8  and  C8_9
REMARK    7  A    between atoms: C8_9  and  O2_10
REMARK    8  A    between atoms: C8_9  and  C9_12
REMARK    9  A    between atoms: C9_12  and  C10_13
REMARK   10  A    between atoms: C9_12  and  N1_23
REMARK   11  A    between atoms: C10_13  and  O3_14
REMARK   12  A    between atoms: O3_14  and  C11_15
REMARK   13  A    between atoms: C11_15  and  C12_16
REMARK   14  A    between atoms: C12_16  and  C13_17
REMARK   15  A    between atoms: C13_17  and  C14_18
REMARK   16  A    between atoms: C14_18  and  O4_19
ROOT
HETATM    1  C9  UNL     1      -3.492   1.870  11.404  1.00  0.00     0.132 C
ENDROOT
BRANCH   1   2
HETATM    2  C8  UNL     1      -3.511   3.225  10.735  1.00  0.00     0.166 C
BRANCH   2   3
HETATM    3  C7  UNL     1      -2.781   4.252  11.548  1.00  0.00     0.201 C
BRANCH   3   4
HETATM    4  O1  UNL     1      -2.563   3.909  12.857  1.00  0.00    -0.385 OA
BRANCH   4   5
HETATM    5  C6  UNL     1      -2.874   4.899  13.737  1.00  0.00     0.194 C
BRANCH   5   6
HETATM    6  C5  UNL     1      -4.112   5.644  13.294  1.00  0.00    -0.005 C
HETATM    7  C4  UNL     1      -5.259   5.317  13.844  1.00  0.00    -0.025 C
BRANCH   7   8
HETATM    8  C3  UNL     1      -6.544   5.982  13.487  1.00  0.00     0.053 C
BRANCH   8   9
HETATM    9  C2  UNL     1      -6.369   6.810  12.256  1.00  0.00    -0.033 C
HETATM   10  C1  UNL     1      -7.326   7.646  11.931  1.00  0.00     0.007 C
ENDBRANCH   8   9
ENDBRANCH   7   8
ENDBRANCH   5   6
ENDBRANCH   4   5
ENDBRANCH   3   4
ENDBRANCH   2   3
BRANCH   2  11
HETATM   11  O2  UNL     1      -4.806   3.692  10.535  1.00  0.00    -0.391 OA
ATOM     12  H2  UNL     1      -5.310   3.481  11.311  1.00  0.00     0.210 HD
ENDBRANCH   2  11
ENDBRANCH   1   2
BRANCH   1  13
HETATM   13  C10 UNL     1      -4.873   1.463  11.765  1.00  0.00     0.195 C
BRANCH  13  14
HETATM   14  O3  UNL     1      -5.210   1.870  13.085  1.00  0.00    -0.386 OA
BRANCH  14  15
HETATM   15  C11 UNL     1      -4.387   1.146  13.916  1.00  0.00     0.208 C
BRANCH  15  16
HETATM   16  C12 UNL     1      -4.529   1.568  15.377  1.00  0.00     0.105 A
HETATM   17  C15 UNL     1      -3.295   2.225  15.899  1.00  0.00     0.209 A
HETATM   18  O5  UNL     1      -3.698   0.949  16.314  1.00  0.00    -0.373 OA
BRANCH  16  19
HETATM   19  C13 UNL     1      -5.872   2.042  15.813  1.00  0.00     0.068 C
BRANCH  19  20
HETATM   20  C14 UNL     1      -6.561   1.129  16.764  1.00  0.00     0.167 C
BRANCH  20  21
HETATM   21  O4  UNL     1      -6.153  -0.169  16.816  1.00  0.00    -0.401 OA
ATOM     22  H4  UNL     1      -6.012  -0.560  17.671  1.00  0.00     0.209 HD
ENDBRANCH  20  21
ENDBRANCH  19  20
ENDBRANCH  16  19
ENDBRANCH  15  16
ENDBRANCH  14  15
ENDBRANCH  13  14
ENDBRANCH   1  13
BRANCH   1  23
HETATM   23  N1  UNL     1      -2.839   0.872  10.599  1.00  0.00    -0.412 N
HETATM   24  C16 UNL     1      -1.431   0.979  10.485  1.00  0.00     0.143 C
HETATM   25  C17 UNL     1      -3.338  -0.452  10.777  1.00  0.00     0.143 C
ENDBRANCH   1  23
TORSDOF 16
ENDMDL