MODEL 5
REMARK VINA RESULT: -6.066244314      2.140      4.736
REMARK  14 active torsions:
REMARK  status: ('A' for Active; 'I' for Inactive)
REMARK    1  A    between atoms: C2_2  and  C3_3
REMARK    2  A    between atoms: C3_3  and  C4_4
REMARK    3  A    between atoms: C4_4  and  N1_5
REMARK    4  A    between atoms: C5_7  and  N2_8
REMARK    5  A    between atoms: N2_8  and  C6_9
REMARK    6  A    between atoms: N2_8  and  C13_26
REMARK    7  A    between atoms: C6_9  and  C7_10
REMARK    8  A    between atoms: C7_10  and  O1_11
REMARK    9  A    between atoms: C7_10  and  C8_13
REMARK   10  A    between atoms: C8_13  and  N3_14
REMARK   11  A    between atoms: N3_14  and  C9_17
REMARK   12  A    between atoms: C9_17  and  C10_18
REMARK   13  A    between atoms: C10_18  and  N4_19
REMARK   14  A    between atoms: C13_26  and  C14_27
ROOT
HETATM    1  C7  UNL     1      -3.572   4.637  14.597  1.00  0.00     0.161 C
ENDROOT
BRANCH   1   2
HETATM    2  C6  UNL     1      -4.710   3.716  14.457  1.00  0.00     0.157 C
BRANCH   2   3
HETATM    3  N2  UNL     1      -4.465   2.331  14.717  1.00  0.00    -0.374 N
BRANCH   3   4
HETATM    4  C5  UNL     1      -4.334   1.485  13.596  1.00  0.00     0.173 C
HETATM    5  N1  UNL     1      -4.765   1.862  12.453  1.00  0.00    -0.386 N
ATOM      6  H1  UNL     1      -5.201   2.780  12.366  1.00  0.00     0.160 HD
BRANCH   5   7
HETATM    7  C4  UNL     1      -4.654   1.027  11.282  1.00  0.00     0.120 C
BRANCH   7   8
HETATM    8  C3  UNL     1      -4.274  -0.386  11.536  1.00  0.00     0.019 C
BRANCH   8   9
HETATM    9  C2  UNL     1      -3.157  -0.881  10.649  1.00  0.00    -0.003 C
HETATM   10  C1  UNL     1      -2.746  -2.267  11.172  1.00  0.00     0.005 C
ENDBRANCH   8   9
ENDBRANCH   7   8
ENDBRANCH   5   7
ENDBRANCH   3   4
BRANCH   3  11
HETATM   11  C13 UNL     1      -4.377   1.730  16.021  1.00  0.00     0.128 C
BRANCH  11  12
HETATM   12  C14 UNL     1      -5.617   1.015  16.462  1.00  0.00     0.004 A
HETATM   13  C15 UNL     1      -6.796   1.933  16.738  1.00  0.00     0.007 A
HETATM   14  C16 UNL     1      -6.116   1.247  17.888  1.00  0.00     0.007 A
ENDBRANCH  11  12
ENDBRANCH   3  11
ENDBRANCH   2   3
ENDBRANCH   1   2
BRANCH   1  15
HETATM   15  O1  UNL     1      -2.305   4.089  14.536  1.00  0.00    -0.392 OA
ATOM     16  H1  UNL     1      -1.931   3.956  13.673  1.00  0.00     0.210 HD
ENDBRANCH   1  15
BRANCH   1  17
HETATM   17  C8  UNL     1      -3.601   5.690  13.508  1.00  0.00     0.265 C
BRANCH  17  18
HETATM   18  N3  UNL     1      -4.608   5.402  12.533  1.00  0.00    -0.071 N
ATOM     19  H32 UNL     1      -5.147   4.576  12.796  1.00  0.00     0.277 HD
ATOM     20  H31 UNL     1      -5.353   6.099  12.557  1.00  0.00     0.277 HD
BRANCH  18  21
HETATM   21  C9  UNL     1      -4.068   5.266  11.196  1.00  0.00     0.254 C
BRANCH  21  22
HETATM   22  C10 UNL     1      -2.574   5.219  11.179  1.00  0.00     0.177 C
BRANCH  22  23
HETATM   23  N4  UNL     1      -2.012   3.936  10.866  1.00  0.00    -0.285 N
HETATM   24  C11 UNL     1      -1.883   3.336   9.644  1.00  0.00     0.201 A
HETATM   25  N5  UNL     1      -1.296   2.149   9.840  1.00  0.00    -0.346 N
HETATM   26  C12 UNL     1      -1.066   2.018  11.152  1.00  0.00     0.198 A
ATOM     27  H5  UNL     1      -1.066   1.467   9.118  1.00  0.00     0.167 HD
HETATM   28  N6  UNL     1      -1.507   3.122  11.795  1.00  0.00    -0.293 N
ATOM     29  H6  UNL     1      -1.462   3.299  12.799  1.00  0.00     0.188 HD
ENDBRANCH  22  23
ENDBRANCH  21  22
ENDBRANCH  18  21
ENDBRANCH  17  18
ENDBRANCH   1  17
TORSDOF 14
ENDMDL