MODEL 2
REMARK VINA RESULT: -6.612119689      1.842      3.838
REMARK  13 active torsions:
REMARK  status: ('A' for Active; 'I' for Inactive)
REMARK    1  A    between atoms: O1_2  and  C2_3
REMARK    2  A    between atoms: C2_3  and  C3_4
REMARK    3  A    between atoms: C2_3  and  O4_21
REMARK    4  A    between atoms: C3_4  and  C4_5
REMARK    5  A    between atoms: C4_5  and  N1_6
REMARK    6  A    between atoms: N1_6  and  C5_9
REMARK    7  A    between atoms: C5_9  and  C6_10
REMARK    8  A    between atoms: C6_10  and  O2_11
REMARK    9  A    between atoms: C6_10  and  C7_13
REMARK   10  A    between atoms: C7_13  and  O3_14
REMARK   11  A    between atoms: O3_14  and  C8_15
REMARK   12  A    between atoms: O4_21  and  C14_22
REMARK   13  A    between atoms: C14_22  and  C15_23
REMARK       I    between atoms: C15_23  and  N2_25
ROOT
HETATM    1  N1  UNL     1      -3.459   2.088  12.737  1.00  0.00    -0.072 N
ATOM      2  H11 UNL     1      -2.558   1.742  12.404  1.00  0.00     0.277 HD
ATOM      3  H12 UNL     1      -3.350   1.901  13.734  1.00  0.00     0.277 HD
ENDROOT
BRANCH   1   4
HETATM    4  C4  UNL     1      -4.547   1.314  12.182  1.00  0.00     0.237 C
BRANCH   4   5
HETATM    5  C3  UNL     1      -4.301   0.960  10.758  1.00  0.00     0.088 C
BRANCH   5   6
HETATM    6  C2  UNL     1      -3.340  -0.167  10.629  1.00  0.00     0.261 C
BRANCH   6   7
HETATM    7  O1  UNL     1      -3.594  -1.248  11.442  1.00  0.00    -0.366 OA
HETATM    8  C1  UNL     1      -2.752  -2.332  11.189  1.00  0.00     0.204 C
ENDBRANCH   6   7
BRANCH   6   9
HETATM    9  O4  UNL     1      -2.060   0.358  10.922  1.00  0.00    -0.352 OA
BRANCH   9  10
HETATM   10  C14 UNL     1      -1.589   1.180   9.932  1.00  0.00     0.273 C
BRANCH  10  11
HETATM   11  C15 UNL     1      -0.776   2.264  10.517  1.00  0.00     0.242 C
HETATM   12  O5  UNL     1      -0.501   2.225  11.742  1.00  0.00    -0.271 OA
HETATM   13  N2  UNL     1      -0.326   3.310   9.702  1.00  0.00    -0.359 N
HETATM   14  C16 UNL     1       0.466   4.368  10.265  1.00  0.00     0.152 C
HETATM   15  C17 UNL     1      -0.652   3.332   8.306  1.00  0.00     0.152 C
ENDBRANCH  10  11
ENDBRANCH   9  10
ENDBRANCH   6   9
ENDBRANCH   5   6
ENDBRANCH   4   5
ENDBRANCH   1   4
BRANCH   1  16
HETATM   16  C5  UNL     1      -3.592   3.491  12.489  1.00  0.00     0.265 C
BRANCH  16  17
HETATM   17  C6  UNL     1      -2.860   4.333  13.533  1.00  0.00     0.168 C
BRANCH  17  18
HETATM   18  O2  UNL     1      -1.531   4.045  13.516  1.00  0.00    -0.392 OA
ATOM     19  H2  UNL     1      -1.236   3.811  14.389  1.00  0.00     0.210 HD
ENDBRANCH  17  18
BRANCH  17  20
HETATM   20  C7  UNL     1      -3.538   4.276  14.860  1.00  0.00     0.209 C
BRANCH  20  21
HETATM   21  O3  UNL     1      -4.691   3.609  14.922  1.00  0.00    -0.349 OA
BRANCH  21  22
HETATM   22  C8  UNL     1      -5.273   2.661  15.662  1.00  0.00     0.068 A
HETATM   23  C9  UNL     1      -4.684   1.489  16.085  1.00  0.00     0.037 A
HETATM   24  C10 UNL     1      -5.394   0.576  16.867  1.00  0.00     0.003 A
HETATM   25  C11 UNL     1      -6.693   0.862  17.209  1.00  0.00     0.000 A
HETATM   26  C12 UNL     1      -7.285   2.031  16.787  1.00  0.00     0.003 A
HETATM   27  C13 UNL     1      -6.617   2.931  16.030  1.00  0.00     0.037 A
ENDBRANCH  21  22
ENDBRANCH  20  21
ENDBRANCH  17  20
ENDBRANCH  16  17
ENDBRANCH   1  16
TORSDOF 13
ENDMDL