MODEL 5
REMARK VINA RESULT: -6.293951962      1.218      2.460
REMARK  15 active torsions:
REMARK  status: ('A' for Active; 'I' for Inactive)
REMARK    1  A    between atoms: C2_2  and  C3_3
REMARK    2  A    between atoms: C3_3  and  N1_5
REMARK    3  A    between atoms: N1_5  and  C5_6
REMARK    4  A    between atoms: N1_5  and  C7_10
REMARK    5  A    between atoms: C5_6  and  C6_7
REMARK    6  A    between atoms: C6_7  and  O1_8
REMARK    7  A    between atoms: C7_10  and  C8_11
REMARK    8  A    between atoms: C8_11  and  N2_12
REMARK    9  A    between atoms: N2_12  and  C9_13
REMARK   10  A    between atoms: N2_12  and  O4_25
REMARK   11  A    between atoms: C9_13  and  C10_14
REMARK   12  A    between atoms: C10_14  and  O2_15
REMARK   13  A    between atoms: C10_14  and  C11_17
REMARK   14  A    between atoms: C11_17  and  O3_18
REMARK   15  A    between atoms: O3_18  and  C12_19
ROOT
HETATM    1  N2  UNL     1      -2.870   3.191  10.251  1.00  0.00    -0.194 NA
ENDROOT
BRANCH   1   2
HETATM    2  C8  UNL     1      -2.045   3.691  11.391  1.00  0.00     0.140 C
BRANCH   2   3
HETATM    3  C7  UNL     1      -2.427   5.073  11.750  1.00  0.00     0.139 C
BRANCH   3   4
HETATM    4  N1  UNL     1      -3.486   5.228  12.699  1.00  0.00    -0.383 N
BRANCH   4   5
HETATM    5  C3  UNL     1      -3.128   5.476  14.034  1.00  0.00     0.101 C
HETATM    6  C4  UNL     1      -4.238   6.047  14.901  1.00  0.00     0.036 C
BRANCH   5   7
HETATM    7  C2  UNL     1      -2.040   6.508  14.089  1.00  0.00    -0.012 C
HETATM    8  C1  UNL     1      -2.222   7.678  14.689  1.00  0.00     0.009 C
ENDBRANCH   5   7
ENDBRANCH   4   5
BRANCH   4   9
HETATM    9  C5  UNL     1      -4.685   5.702  12.167  1.00  0.00     0.084 C
BRANCH   9  10
HETATM   10  C6  UNL     1      -4.780   6.098  10.756  1.00  0.00     0.208 C
BRANCH  10  11
HETATM   11  O1  UNL     1      -5.350   5.099   9.942  1.00  0.00    -0.396 OA
ATOM     12  H1  UNL     1      -6.077   5.417   9.420  1.00  0.00     0.209 HD
ENDBRANCH  10  11
ENDBRANCH   9  10
ENDBRANCH   4   9
ENDBRANCH   3   4
ENDBRANCH   2   3
ENDBRANCH   1   2
BRANCH   1  13
HETATM   13  C9  UNL     1      -3.391   1.883  10.618  1.00  0.00     0.154 C
BRANCH  13  14
HETATM   14  C10 UNL     1      -4.481   2.005  11.617  1.00  0.00     0.157 C
BRANCH  14  15
HETATM   15  O2  UNL     1      -5.755   1.768  11.196  1.00  0.00    -0.392 OA
ATOM     16  H2  UNL     1      -6.098   2.313  10.497  1.00  0.00     0.210 HD
ENDBRANCH  14  15
BRANCH  14  17
HETATM   17  C11 UNL     1      -4.250   1.052  12.809  1.00  0.00     0.208 C
BRANCH  17  18
HETATM   18  O3  UNL     1      -4.017   1.878  13.938  1.00  0.00    -0.349 OA
BRANCH  18  19
HETATM   19  C12 UNL     1      -4.885   1.853  15.018  1.00  0.00     0.068 A
HETATM   20  C13 UNL     1      -5.837   2.851  15.180  1.00  0.00     0.037 A
HETATM   21  C14 UNL     1      -6.704   2.813  16.274  1.00  0.00     0.003 A
HETATM   22  C15 UNL     1      -6.661   1.813  17.222  1.00  0.00     0.000 A
HETATM   23  C16 UNL     1      -5.709   0.818  17.056  1.00  0.00     0.003 A
HETATM   24  C17 UNL     1      -4.849   0.853  15.972  1.00  0.00     0.037 A
ENDBRANCH  18  19
ENDBRANCH  17  18
ENDBRANCH  14  17
ENDBRANCH  13  14
ENDBRANCH   1  13
BRANCH   1  25
HETATM   25  O4  UNL     1      -2.064   2.969   9.186  1.00  0.00    -0.308 OA
HETATM   26  C18 UNL     1      -0.778   2.613   9.488  1.00  0.00     0.229 C
ENDBRANCH   1  25
TORSDOF 15
ENDMDL