MODEL 2
REMARK VINA RESULT: -6.376150505      2.800      4.224
REMARK  13 active torsions:
REMARK  status: ('A' for Active; 'I' for Inactive)
REMARK    1  A    between atoms: N1_2  and  C3_4
REMARK    2  A    between atoms: C3_4  and  C4_5
REMARK    3  A    between atoms: C4_5  and  N2_6
REMARK    4  A    between atoms: N2_6  and  C5_9
REMARK    5  A    between atoms: C5_9  and  C6_10
REMARK    6  A    between atoms: C6_10  and  N3_11
REMARK    7  A    between atoms: N3_11  and  C7_12
REMARK    8  A    between atoms: N3_11  and  C15_25
REMARK    9  A    between atoms: C7_12  and  C8_13
REMARK   10  A    between atoms: C8_13  and  N4_14
REMARK   11  A    between atoms: N4_14  and  C9_17
REMARK   12  A    between atoms: C9_17  and  C10_18
REMARK   13  A    between atoms: C15_25  and  C16_26
ROOT
HETATM    1  N3  UNL     1      -4.297   2.500  14.810  1.00  0.00    -0.368 N
ENDROOT
BRANCH   1   2
HETATM    2  C6  UNL     1      -4.344   1.675  13.615  1.00  0.00     0.154 C
BRANCH   2   3
HETATM    3  C5  UNL     1      -4.660   2.566  12.398  1.00  0.00     0.252 C
BRANCH   3   4
HETATM    4  N2  UNL     1      -5.297   1.796  11.381  1.00  0.00    -0.072 N
ATOM      5  H22 UNL     1      -5.966   2.351  10.846  1.00  0.00     0.277 HD
ATOM      6  H21 UNL     1      -5.947   1.113  11.771  1.00  0.00     0.277 HD
BRANCH   4   7
HETATM    7  C4  UNL     1      -4.306   1.174  10.528  1.00  0.00     0.262 C
BRANCH   7   8
HETATM    8  C3  UNL     1      -4.360  -0.327  10.606  1.00  0.00     0.298 C
BRANCH   8   9
HETATM    9  N1  UNL     1      -3.020  -0.856  10.471  1.00  0.00     0.081 N
HETATM   10  C1  UNL     1      -2.877  -2.102  11.220  1.00  0.00     0.309 C
HETATM   11  C2  UNL     1      -2.043   0.114  10.961  1.00  0.00     0.309 C
ENDBRANCH   8   9
ENDBRANCH   7   8
ENDBRANCH   4   7
ENDBRANCH   3   4
ENDBRANCH   2   3
ENDBRANCH   1   2
BRANCH   1  12
HETATM   12  C7  UNL     1      -3.972   3.828  14.593  1.00  0.00     0.090 C
BRANCH  12  13
HETATM   13  C8  UNL     1      -2.630   4.336  14.910  1.00  0.00     0.277 C
BRANCH  13  14
HETATM   14  N4  UNL     1      -1.613   4.096  13.955  1.00  0.00    -0.066 N
ATOM     15  H42 UNL     1      -0.683   4.206  14.359  1.00  0.00     0.277 HD
ATOM     16  H41 UNL     1      -1.557   3.109  13.706  1.00  0.00     0.277 HD
BRANCH  14  17
HETATM   17  C9  UNL     1      -1.794   4.949  12.766  1.00  0.00     0.289 C
BRANCH  17  18
HETATM   18  C10 UNL     1      -0.879   4.363  11.720  1.00  0.00     0.034 A
HETATM   19  C11 UNL     1      -1.484   3.797  10.626  1.00  0.00     0.027 A
HETATM   20  C12 UNL     1      -0.655   3.272   9.634  1.00  0.00     0.003 A
HETATM   21  C13 UNL     1       0.705   3.356   9.825  1.00  0.00     0.017 A
HETATM   22  C14 UNL     1       1.293   3.927  10.931  1.00  0.00     0.088 A
HETATM   23  N5  UNL     1       0.452   4.430  11.878  1.00  0.00    -0.368 N
ATOM     24  H5  UNL     1       0.839   4.863  12.718  1.00  0.00     0.165 HD
ENDBRANCH  17  18
ENDBRANCH  14  17
ENDBRANCH  13  14
ENDBRANCH  12  13
ENDBRANCH   1  12
BRANCH   1  25
HETATM   25  C15 UNL     1      -4.209   1.807  15.999  1.00  0.00     0.095 C
BRANCH  25  26
HETATM   26  C16 UNL     1      -5.442   1.470  16.769  1.00  0.00     0.161 C
HETATM   27  C17 UNL     1      -6.668   2.282  16.641  1.00  0.00     0.063 C
HETATM   28  C18 UNL     1      -7.267   0.933  17.097  1.00  0.00     0.171 C
HETATM   29  O1  UNL     1      -6.149   0.351  16.466  1.00  0.00    -0.381 OA
ENDBRANCH  25  26
ENDBRANCH   1  25
TORSDOF 13
ENDMDL