MODEL 1
REMARK VINA RESULT: -6.041273078      0.000      0.000
REMARK  15 active torsions:
REMARK  status: ('A' for Active; 'I' for Inactive)
REMARK    1  A    between atoms: C2_2  and  N1_3
REMARK    2  A    between atoms: N1_3  and  C3_4
REMARK    3  A    between atoms: N1_3  and  C11_17
REMARK    4  A    between atoms: C4_5  and  C5_6
REMARK    5  A    between atoms: C5_6  and  C6_7
REMARK    6  A    between atoms: C6_7  and  N2_8
REMARK    7  A    between atoms: N2_8  and  C7_10
REMARK    8  A    between atoms: C7_10  and  C8_11
REMARK    9  A    between atoms: C8_11  and  O2_13
REMARK   10  A    between atoms: O2_13  and  C9_14
REMARK   11  A    between atoms: C11_17  and  C12_18
REMARK   12  A    between atoms: C12_18  and  O3_19
REMARK   13  A    between atoms: C12_18  and  C13_21
REMARK   14  A    between atoms: C13_21  and  N4_22
REMARK   15  A    between atoms: N4_22  and  C15_24
ROOT
HETATM    1  C9  UNL     1      -4.108   1.438  13.528  1.00  0.00     0.302 C
HETATM    2  C10 UNL     1      -4.882   1.639  12.306  1.00  0.00     0.085 C
HETATM    3  N3  UNL     1      -5.513   1.804  11.344  1.00  0.00    -0.195 NA
ENDROOT
BRANCH   1   4
HETATM    4  O2  UNL     1      -4.784   0.566  14.444  1.00  0.00    -0.306 OA
BRANCH   4   5
HETATM    5  C8  UNL     1      -4.633   0.741  15.819  1.00  0.00     0.277 C
HETATM    6  O1  UNL     1      -3.474   0.974  16.243  1.00  0.00    -0.263 OA
BRANCH   5   7
HETATM    7  C7  UNL     1      -5.816   0.653  16.743  1.00  0.00     0.225 C
BRANCH   7   8
HETATM    8  N2  UNL     1      -6.774   1.624  16.326  1.00  0.00    -0.412 N
ATOM      9  H2  UNL     1      -7.715   1.366  16.027  1.00  0.00     0.153 HD
BRANCH   8  10
HETATM   10  C6  UNL     1      -6.331   2.982  16.357  1.00  0.00     0.118 C
BRANCH  10  11
HETATM   11  C5  UNL     1      -6.531   3.735  15.089  1.00  0.00     0.047 C
BRANCH  11  12
HETATM   12  C4  UNL     1      -5.444   4.611  14.674  1.00  0.00    -0.008 C
HETATM   13  C3  UNL     1      -5.238   5.126  13.482  1.00  0.00     0.081 C
BRANCH  13  14
HETATM   14  N1  UNL     1      -4.103   5.993  13.207  1.00  0.00    -0.388 N
BRANCH  14  15
HETATM   15  C2  UNL     1      -4.365   7.023  12.237  1.00  0.00     0.118 C
HETATM   16  C1  UNL     1      -5.771   7.093  11.782  1.00  0.00     0.026 C
ENDBRANCH  14  15
BRANCH  14  17
HETATM   17  C11 UNL     1      -2.851   5.765  13.891  1.00  0.00     0.155 C
BRANCH  17  18
HETATM   18  C12 UNL     1      -2.073   4.606  13.435  1.00  0.00     0.164 C
BRANCH  18  19
HETATM   19  O3  UNL     1      -1.330   4.137  14.551  1.00  0.00    -0.392 OA
ATOM     20  H3  UNL     1      -0.772   3.434  14.239  1.00  0.00     0.210 HD
ENDBRANCH  18  19
BRANCH  18  21
HETATM   21  C13 UNL     1      -1.087   4.785  12.324  1.00  0.00     0.305 C
BRANCH  21  22
HETATM   22  N4  UNL     1      -0.583   3.542  11.769  1.00  0.00     0.091 N
HETATM   23  C14 UNL     1       0.474   3.959  10.760  1.00  0.00     0.310 C
BRANCH  22  24
HETATM   24  C15 UNL     1      -1.568   2.842  10.929  1.00  0.00     0.222 A
HETATM   25  C16 UNL     1      -1.442   1.300  10.973  1.00  0.00     0.038 A
HETATM   26  C17 UNL     1      -1.247   2.073   9.738  1.00  0.00     0.038 A
ENDBRANCH  22  24
ENDBRANCH  21  22
ENDBRANCH  18  21
ENDBRANCH  17  18
ENDBRANCH  14  17
ENDBRANCH  13  14
ENDBRANCH  11  12
ENDBRANCH  10  11
ENDBRANCH   8  10
ENDBRANCH   7   8
ENDBRANCH   5   7
ENDBRANCH   4   5
ENDBRANCH   1   4
TORSDOF 15
ENDMDL