MODEL 1
REMARK VINA RESULT: -6.034136978      0.000      0.000
REMARK  15 active torsions:
REMARK  status: ('A' for Active; 'I' for Inactive)
REMARK    1  A    between atoms: N1_2  and  C3_4
REMARK    2  A    between atoms: C3_4  and  C4_5
REMARK    3  A    between atoms: C4_5  and  N2_6
REMARK    4  A    between atoms: N2_6  and  C5_7
REMARK    5  A    between atoms: N2_6  and  C14_21
REMARK    6  A    between atoms: C5_7  and  C6_8
REMARK    7  A    between atoms: C6_8  and  N3_9
REMARK    8  A    between atoms: N3_9  and  C7_10
REMARK    9  A    between atoms: N3_9  and  C9_14
REMARK   10  A    between atoms: C7_10  and  C8_11
REMARK   11  A    between atoms: C8_11  and  O1_12
REMARK   12  A    between atoms: C9_14  and  C10_15
REMARK   13  A    between atoms: C10_15  and  N4_16
REMARK   14  A    between atoms: N4_16  and  C11_18
REMARK   15  A    between atoms: C14_21  and  C15_22
ROOT
HETATM    1  C5  UNL     1      -4.258   0.763  12.834  1.00  0.00     0.303 C
ENDROOT
BRANCH   1   2
HETATM    2  N2  UNL     1      -4.760   1.991  13.454  1.00  0.00     0.097 N
BRANCH   2   3
HETATM    3  C4  UNL     1      -4.368   3.134  12.620  1.00  0.00     0.292 C
BRANCH   3   4
HETATM    4  C3  UNL     1      -4.035   4.347  13.400  1.00  0.00     0.146 C
BRANCH   4   5
HETATM    5  N1  UNL     1      -4.940   5.429  13.347  1.00  0.00    -0.419 N
HETATM    6  C1  UNL     1      -4.868   6.285  12.217  1.00  0.00     0.142 C
HETATM    7  C2  UNL     1      -6.191   5.336  13.985  1.00  0.00     0.142 C
ENDBRANCH   4   5
ENDBRANCH   3   4
ENDBRANCH   2   3
BRANCH   2   8
HETATM    8  C14 UNL     1      -4.188   2.148  14.783  1.00  0.00     0.337 C
BRANCH   8   9
HETATM    9  C15 UNL     1      -5.157   1.717  15.815  1.00  0.00     0.080 A
HETATM   10  C16 UNL     1      -6.371   2.224  16.207  1.00  0.00     0.036 A
HETATM   11  C17 UNL     1      -6.883   1.440  17.233  1.00  0.00     0.027 A
HETATM   12  C18 UNL     1      -5.927   0.463  17.422  1.00  0.00     0.142 A
HETATM   13  O2  UNL     1      -4.957   0.662  16.589  1.00  0.00    -0.325 OA
ENDBRANCH   8   9
ENDBRANCH   2   8
ENDBRANCH   1   2
BRANCH   1  14
HETATM   14  C6  UNL     1      -4.366   0.720  11.352  1.00  0.00     0.302 C
BRANCH  14  15
HETATM   15  N3  UNL     1      -3.321  -0.098  10.750  1.00  0.00     0.093 N
BRANCH  15  16
HETATM   16  C7  UNL     1      -3.526  -1.473  11.152  1.00  0.00     0.298 C
BRANCH  16  17
HETATM   17  C8  UNL     1      -2.303  -2.339  11.110  1.00  0.00     0.194 C
BRANCH  17  18
HETATM   18  O1  UNL     1      -2.755  -3.684  11.063  1.00  0.00    -0.399 OA
ATOM     19  H1  UNL     1      -2.464  -4.042  10.233  1.00  0.00     0.209 HD
ENDBRANCH  17  18
ENDBRANCH  16  17
ENDBRANCH  15  16
BRANCH  15  20
HETATM   20  C9  UNL     1      -2.001   0.315  11.105  1.00  0.00     0.291 C
BRANCH  20  21
HETATM   21  C10 UNL     1      -1.552   1.631  10.570  1.00  0.00     0.144 C
BRANCH  21  22
HETATM   22  N4  UNL     1      -1.010   2.552  11.500  1.00  0.00    -0.415 N
ATOM     23  H4  UNL     1      -0.889   2.323  12.486  1.00  0.00     0.153 HD
BRANCH  22  24
HETATM   24  C11 UNL     1      -0.647   3.819  10.960  1.00  0.00     0.076 A
HETATM   25  C12 UNL     1      -0.596   4.954  12.015  1.00  0.00     0.027 A
HETATM   26  C13 UNL     1       0.598   4.520  11.148  1.00  0.00     0.027 A
ENDBRANCH  22  24
ENDBRANCH  21  22
ENDBRANCH  20  21
ENDBRANCH  15  20
ENDBRANCH  14  15
ENDBRANCH   1  14
TORSDOF 15
ENDMDL