MODEL 3
REMARK VINA RESULT: -5.494013805      1.621      2.722
REMARK  10 active torsions:
REMARK  status: ('A' for Active; 'I' for Inactive)
REMARK    1  A    between atoms: C2_2  and  C4_4
REMARK    2  A    between atoms: C4_4  and  O1_5
REMARK    3  A    between atoms: O1_5  and  C5_6
REMARK    4  A    between atoms: C5_6  and  C6_7
REMARK    5  A    between atoms: C6_7  and  O2_8
REMARK    6  A    between atoms: O2_8  and  C7_9
REMARK    7  A    between atoms: C7_9  and  C8_10
REMARK    8  A    between atoms: C8_10  and  N1_12
REMARK    9  A    between atoms: N1_12  and  C10_14
REMARK   10  A    between atoms: C10_14  and  C11_15
ROOT
HETATM    1  C7  UNL     1      -3.114   4.201  13.539  1.00  0.00     0.192 C
ENDROOT
BRANCH   1   2
HETATM    2  O2  UNL     1      -3.133   3.140  12.701  1.00  0.00    -0.387 OA
BRANCH   2   3
HETATM    3  C6  UNL     1      -3.489   3.284  11.407  1.00  0.00     0.193 C
BRANCH   3   4
HETATM    4  C5  UNL     1      -4.727   2.516  11.065  1.00  0.00     0.193 C
BRANCH   4   5
HETATM    5  O1  UNL     1      -4.466   1.396  10.283  1.00  0.00    -0.389 OA
BRANCH   5   6
HETATM    6  C4  UNL     1      -4.422   0.209  10.947  1.00  0.00     0.171 C
BRANCH   6   7
HETATM    7  C2  UNL     1      -3.202  -0.585  10.480  1.00  0.00     0.001 C
HETATM    8  C1  UNL     1      -3.102  -1.917  11.207  1.00  0.00     0.011 C
HETATM    9  C3  UNL     1      -1.945   0.185  10.839  1.00  0.00     0.011 C
ENDBRANCH   6   7
ENDBRANCH   5   6
ENDBRANCH   4   5
ENDBRANCH   3   4
ENDBRANCH   2   3
ENDBRANCH   1   2
BRANCH   1  10
HETATM   10  C8  UNL     1      -4.009   3.803  14.739  1.00  0.00     0.096 C
HETATM   11  C9  UNL     1      -5.384   4.366  14.484  1.00  0.00     0.034 C
BRANCH  10  12
HETATM   12  N1  UNL     1      -4.077   2.363  14.777  1.00  0.00    -0.415 N
ATOM     13  H1  UNL     1      -4.012   1.788  13.937  1.00  0.00     0.153 HD
BRANCH  12  14
HETATM   14  C10 UNL     1      -4.242   1.802  16.084  1.00  0.00     0.118 C
BRANCH  14  15
HETATM   15  C11 UNL     1      -5.538   1.043  16.143  1.00  0.00     0.003 A
HETATM   16  C12 UNL     1      -5.981   0.591  17.506  1.00  0.00     0.007 A
HETATM   17  C13 UNL     1      -6.723   1.668  16.781  1.00  0.00     0.007 A
ENDBRANCH  14  15
ENDBRANCH  12  14
ENDBRANCH  10  12
ENDBRANCH   1  10
TORSDOF 10
ENDMDL