MODEL 4
REMARK VINA RESULT: -5.493637315      1.534      5.253
REMARK  10 active torsions:
REMARK  status: ('A' for Active; 'I' for Inactive)
REMARK    1  A    between atoms: C1_1  and  C2_2
REMARK    2  A    between atoms: C1_1  and  C7_10
REMARK    3  A    between atoms: C2_2  and  N1_3
REMARK    4  A    between atoms: N1_3  and  C3_6
REMARK    5  A    between atoms: C3_6  and  C4_7
REMARK    6  A    between atoms: C7_10  and  O1_11
REMARK    7  A    between atoms: O1_11  and  C8_12
REMARK    8  A    between atoms: C8_12  and  C9_13
REMARK    9  A    between atoms: C9_13  and  O2_14
REMARK   10  A    between atoms: O2_14  and  C10_15
ROOT
HETATM    1  C7  UNL     1      -2.491   4.126  12.281  1.00  0.00     0.169 C
ENDROOT
BRANCH   1   2
HETATM    2  C1  UNL     1      -2.762   2.941  11.351  1.00  0.00     0.054 C
BRANCH   2   3
HETATM    3  C2  UNL     1      -4.224   2.830  11.024  1.00  0.00     0.234 C
BRANCH   3   4
HETATM    4  N1  UNL     1      -4.902   1.924  11.934  1.00  0.00    -0.075 N
ATOM      5  H12 UNL     1      -5.209   2.407  12.779  1.00  0.00     0.277 HD
ATOM      6  H11 UNL     1      -5.813   1.645  11.570  1.00  0.00     0.277 HD
BRANCH   4   7
HETATM    7  C3  UNL     1      -4.090   0.779  12.251  1.00  0.00     0.237 C
BRANCH   7   8
HETATM    8  C4  UNL     1      -4.301  -0.302  11.221  1.00  0.00     0.011 A
HETATM    9  C5  UNL     1      -3.690  -1.646  11.435  1.00  0.00     0.007 A
HETATM   10  C6  UNL     1      -3.116  -0.706  10.429  1.00  0.00     0.007 A
ENDBRANCH   7   8
ENDBRANCH   4   7
ENDBRANCH   3   4
ENDBRANCH   2   3
ENDBRANCH   1   2
BRANCH   1  11
HETATM   11  O1  UNL     1      -2.734   3.698  13.565  1.00  0.00    -0.389 OA
BRANCH  11  12
HETATM   12  C8  UNL     1      -3.407   4.583  14.347  1.00  0.00     0.193 C
BRANCH  12  13
HETATM   13  C9  UNL     1      -4.803   4.103  14.614  1.00  0.00     0.194 C
BRANCH  13  14
HETATM   14  O2  UNL     1      -4.888   2.813  14.922  1.00  0.00    -0.384 OA
BRANCH  14  15
HETATM   15  C10 UNL     1      -5.244   2.320  16.110  1.00  0.00     0.121 C
HETATM   16  C11 UNL     1      -6.735   2.474  16.412  1.00  0.00     0.032 C
HETATM   17  C12 UNL     1      -7.182   1.189  17.072  1.00  0.00     0.002 C
HETATM   18  C13 UNL     1      -5.881   0.415  17.313  1.00  0.00     0.002 C
HETATM   19  C14 UNL     1      -5.133   0.787  16.035  1.00  0.00     0.032 C
ENDBRANCH  14  15
ENDBRANCH  13  14
ENDBRANCH  12  13
ENDBRANCH  11  12
ENDBRANCH   1  11
TORSDOF 10
ENDMDL