MODEL 1
REMARK VINA RESULT: -6.119898024      0.000      0.000
REMARK  9 active torsions:
REMARK  status: ('A' for Active; 'I' for Inactive)
REMARK    1  A    between atoms: O1_2  and  N1_3
REMARK    2  A    between atoms: N1_3  and  C2_4
REMARK    3  A    between atoms: N1_3  and  C8_10
REMARK    4  A    between atoms: C2_4  and  C3_5
REMARK    5  A    between atoms: C3_5  and  C4_6
REMARK    6  A    between atoms: C4_6  and  C5_7
REMARK    7  A    between atoms: C8_10  and  C10_12
REMARK    8  A    between atoms: C10_12  and  C11_13
REMARK    9  A    between atoms: C11_13  and  C12_14
ROOT
HETATM    1  N1  UNL     1      -3.970   3.771  13.959  1.00  0.00    -0.270 N
ENDROOT
BRANCH   1   2
HETATM    2  O1  UNL     1      -2.725   3.890  14.317  1.00  0.00    -0.283 OA
HETATM    3  C1  UNL     1      -2.025   5.006  13.960  1.00  0.00     0.237 C
ENDBRANCH   1   2
BRANCH   1   4
HETATM    4  C2  UNL     1      -4.304   3.431  12.642  1.00  0.00     0.090 C
BRANCH   4   5
HETATM    5  C3  UNL     1      -3.639   2.220  12.072  1.00  0.00     0.047 C
BRANCH   5   6
HETATM    6  C4  UNL     1      -4.268   0.910  12.390  1.00  0.00     0.010 C
BRANCH   6   7
HETATM    7  C5  UNL     1      -4.320  -0.001  11.171  1.00  0.00    -0.014 A
HETATM    8  C6  UNL     1      -3.886  -1.403  11.454  1.00  0.00     0.005 A
HETATM    9  C7  UNL     1      -3.076  -0.494  10.552  1.00  0.00     0.005 A
ENDBRANCH   6   7
ENDBRANCH   5   6
ENDBRANCH   4   5
ENDBRANCH   1   4
BRANCH   1  10
HETATM   10  C8  UNL     1      -5.001   4.050  14.869  1.00  0.00     0.110 C
HETATM   11  C9  UNL     1      -5.794   5.306  14.566  1.00  0.00     0.035 C
BRANCH  10  12
HETATM   12  C10 UNL     1      -5.935   2.887  15.005  1.00  0.00     0.038 C
BRANCH  12  13
HETATM   13  C11 UNL     1      -5.669   2.031  16.210  1.00  0.00     0.115 C
BRANCH  13  14
HETATM   14  C12 UNL     1      -4.609   1.036  16.073  1.00  0.00     0.172 C
HETATM   15  O2  UNL     1      -3.405   1.216  16.291  1.00  0.00    -0.648 OA
HETATM   16  O3  UNL     1      -5.011  -0.250  15.652  1.00  0.00    -0.648 OA
ENDBRANCH  13  14
ENDBRANCH  12  13
ENDBRANCH  10  12
ENDBRANCH   1  10
TORSDOF 9
ENDMDL