MODEL 5
REMARK VINA RESULT: -5.984685283      0.698      1.142
REMARK  10 active torsions:
REMARK  status: ('A' for Active; 'I' for Inactive)
REMARK    1  A    between atoms: C2_2  and  C3_3
REMARK    2  A    between atoms: C3_3  and  C4_4
REMARK    3  A    between atoms: C4_4  and  C5_5
REMARK    4  A    between atoms: C5_5  and  C6_6
REMARK    5  A    between atoms: C6_6  and  N1_7
REMARK    6  A    between atoms: N1_7  and  C7_10
REMARK    7  A    between atoms: C7_10  and  C8_11
REMARK    8  A    between atoms: C8_11  and  C9_12
REMARK    9  A    between atoms: C9_12  and  N2_13
REMARK   10  A    between atoms: C10_15  and  C11_16
ROOT
HETATM    1  C8  UNL     1      -2.101   4.706  13.733  1.00  0.00     0.072 C
ENDROOT
BRANCH   1   2
HETATM    2  C7  UNL     1      -1.764   4.360  12.296  1.00  0.00     0.237 C
BRANCH   2   3
HETATM    3  N1  UNL     1      -0.626   3.480  12.339  1.00  0.00    -0.075 N
ATOM      4  H12 UNL     1      -0.663   2.857  13.146  1.00  0.00     0.277 HD
ATOM      5  H11 UNL     1       0.230   3.984  12.571  1.00  0.00     0.277 HD
BRANCH   3   6
HETATM    6  C6  UNL     1      -0.491   2.754  11.124  1.00  0.00     0.232 C
BRANCH   6   7
HETATM    7  C5  UNL     1      -1.754   2.098  10.649  1.00  0.00     0.028 C
BRANCH   7   8
HETATM    8  C4  UNL     1      -1.971   0.695  11.067  1.00  0.00     0.005 C
BRANCH   8   9
HETATM    9  C3  UNL     1      -3.332   0.189  10.662  1.00  0.00     0.026 C
BRANCH   9  10
HETATM   10  C2  UNL     1      -3.647  -1.021  11.436  1.00  0.00    -0.037 C
HETATM   11  C1  UNL     1      -2.979  -2.166  11.249  1.00  0.00     0.007 C
ENDBRANCH   9  10
ENDBRANCH   8   9
ENDBRANCH   7   8
ENDBRANCH   6   7
ENDBRANCH   3   6
ENDBRANCH   2   3
ENDBRANCH   1   2
BRANCH   1  12
HETATM   12  C9  UNL     1      -3.402   4.069  14.155  1.00  0.00     0.062 C
BRANCH  12  13
HETATM   13  N2  UNL     1      -3.769   2.850  13.598  1.00  0.00    -0.377 N
HETATM   14  C10 UNL     1      -4.511   1.912  13.976  1.00  0.00     0.116 C
ATOM     15  H2  UNL     1      -3.345   2.683  12.685  1.00  0.00     0.164 HD
BRANCH  14  16
HETATM   16  C11 UNL     1      -5.228   1.887  15.222  1.00  0.00     0.047 A
HETATM   17  C12 UNL     1      -4.923   0.872  16.141  1.00  0.00     0.031 A
HETATM   18  C13 UNL     1      -5.559   0.815  17.337  1.00  0.00     0.004 A
HETATM   19  C14 UNL     1      -6.519   1.783  17.641  1.00  0.00     0.017 A
HETATM   20  C15 UNL     1      -6.814   2.776  16.736  1.00  0.00     0.088 A
HETATM   21  N3  UNL     1      -6.159   2.788  15.570  1.00  0.00    -0.365 N
ATOM     22  H3  UNL     1      -6.381   3.528  14.903  1.00  0.00     0.165 HD
ENDBRANCH  14  16
ENDBRANCH  12  13
ENDBRANCH   1  12
TORSDOF 10
ENDMDL