MODEL 2
REMARK VINA RESULT: -5.541004869      1.363      2.004
REMARK  10 active torsions:
REMARK  status: ('A' for Active; 'I' for Inactive)
REMARK    1  A    between atoms: C2_2  and  O1_3
REMARK    2  A    between atoms: O1_3  and  C3_4
REMARK    3  A    between atoms: C3_4  and  C4_5
REMARK    4  A    between atoms: C4_5  and  C5_6
REMARK    5  A    between atoms: C5_6  and  O2_7
REMARK    6  A    between atoms: O2_7  and  C6_8
REMARK    7  A    between atoms: C6_8  and  C7_9
REMARK    8  A    between atoms: C7_9  and  C10_12
REMARK    9  A    between atoms: C10_12  and  N1_13
REMARK   10  A    between atoms: N1_13  and  C11_16
ROOT
HETATM    1  C7  UNL     1      -4.797   4.926  13.981  1.00  0.00    -0.002 C
HETATM    2  C8  UNL     1      -6.234   5.337  14.083  1.00  0.00     0.019 C
HETATM    3  C9  UNL     1      -3.911   5.987  14.512  1.00  0.00     0.019 C
ENDROOT
BRANCH   1   4
HETATM    4  C6  UNL     1      -4.411   4.604  12.532  1.00  0.00     0.177 C
BRANCH   4   5
HETATM    5  O2  UNL     1      -5.037   3.440  12.156  1.00  0.00    -0.390 OA
BRANCH   5   6
HETATM    6  C5  UNL     1      -4.349   2.792  11.148  1.00  0.00     0.169 C
BRANCH   6   7
HETATM    7  C4  UNL     1      -3.413   1.730  11.757  1.00  0.00     0.053 C
BRANCH   7   8
HETATM    8  C3  UNL     1      -4.263   0.753  12.543  1.00  0.00     0.176 C
BRANCH   8   9
HETATM    9  O1  UNL     1      -4.221  -0.534  12.106  1.00  0.00    -0.364 OA
BRANCH   9  10
HETATM   10  C2  UNL     1      -3.753  -1.265  11.110  1.00  0.00     0.124 C
HETATM   11  C1  UNL     1      -3.005  -2.340  11.350  1.00  0.00     0.037 C
ENDBRANCH   9  10
ENDBRANCH   8   9
ENDBRANCH   7   8
ENDBRANCH   6   7
ENDBRANCH   5   6
ENDBRANCH   4   5
ENDBRANCH   1   4
BRANCH   1  12
HETATM   12  C10 UNL     1      -4.545   3.643  14.791  1.00  0.00     0.243 C
BRANCH  12  13
HETATM   13  N1  UNL     1      -5.793   2.974  15.039  1.00  0.00    -0.070 N
ATOM     14  H12 UNL     1      -6.595   3.602  15.037  1.00  0.00     0.277 HD
ATOM     15  H11 UNL     1      -6.093   2.381  14.265  1.00  0.00     0.277 HD
BRANCH  13  16
HETATM   16  C11 UNL     1      -5.633   2.254  16.280  1.00  0.00     0.186 C
HETATM   17  C12 UNL     1      -5.117   0.838  16.209  1.00  0.00     0.033 C
HETATM   18  C13 UNL     1      -6.094   0.559  17.366  1.00  0.00     0.004 C
HETATM   19  C14 UNL     1      -6.975   1.643  16.725  1.00  0.00     0.033 C
ENDBRANCH  13  16
ENDBRANCH  12  13
ENDBRANCH   1  12
TORSDOF 10
ENDMDL