MODEL 4
REMARK VINA RESULT: -5.713516595      1.701      3.760
REMARK  9 active torsions:
REMARK  status: ('A' for Active; 'I' for Inactive)
REMARK    1  A    between atoms: C2_2  and  N1_3
REMARK    2  A    between atoms: N1_3  and  C3_4
REMARK    3  A    between atoms: N1_3  and  C5_6
REMARK    4  A    between atoms: C5_6  and  C6_7
REMARK    5  A    between atoms: C6_7  and  N2_8
REMARK    6  A    between atoms: N2_8  and  C7_10
REMARK    7  A    between atoms: C7_10  and  C8_11
REMARK    8  A    between atoms: C7_10  and  C11_15
REMARK    9  A    between atoms: C8_11  and  C9_12
ROOT
HETATM    1  C9  UNL     1      -6.059   4.796  15.218  1.00  0.00     0.126 C
HETATM    2  C10 UNL     1      -6.291   5.471  13.970  1.00  0.00     0.059 C
HETATM    3  N3  UNL     1      -6.474   6.055  12.981  1.00  0.00    -0.197 NA
ENDROOT
BRANCH   1   4
HETATM    4  C8  UNL     1      -6.312   3.328  15.136  1.00  0.00     0.039 C
BRANCH   4   5
HETATM    5  C7  UNL     1      -5.274   2.423  15.659  1.00  0.00     0.082 C
BRANCH   5   6
HETATM    6  N2  UNL     1      -4.132   2.129  14.890  1.00  0.00    -0.412 N
ATOM      7  H2  UNL     1      -3.267   1.809  15.324  1.00  0.00     0.153 HD
BRANCH   6   8
HETATM    8  C6  UNL     1      -4.239   2.303  13.458  1.00  0.00     0.159 C
BRANCH   8   9
HETATM    9  C5  UNL     1      -4.257   0.920  12.857  1.00  0.00     0.087 C
BRANCH   9  10
HETATM   10  N1  UNL     1      -3.457   0.745  11.716  1.00  0.00    -0.353 N
BRANCH  10  11
HETATM   11  C2  UNL     1      -2.747   1.829  11.188  1.00  0.00     0.064 C
HETATM   12  C1  UNL     1      -1.391   1.341  10.696  1.00  0.00     0.055 C
ENDBRANCH  10  11
BRANCH  10  13
HETATM   13  C3  UNL     1      -3.835  -0.316  10.885  1.00  0.00     0.064 C
HETATM   14  C4  UNL     1      -3.712  -1.694  11.428  1.00  0.00     0.055 C
ENDBRANCH  10  13
ENDBRANCH   9  10
ENDBRANCH   8   9
ENDBRANCH   6   8
ENDBRANCH   5   6
BRANCH   5  15
HETATM   15  C11 UNL     1      -5.842   1.139  16.247  1.00  0.00     0.012 A
HETATM   16  C12 UNL     1      -7.236   1.064  16.721  1.00  0.00     0.011 A
HETATM   17  C13 UNL     1      -6.099   1.059  17.741  1.00  0.00    -0.012 A
HETATM   18  C14 UNL     1      -6.039   2.333  18.561  1.00  0.00     0.010 C
ENDBRANCH   5  15
ENDBRANCH   4   5
ENDBRANCH   1   4
TORSDOF 9
ENDMDL