MODEL 3
REMARK VINA RESULT: -6.027722523      1.522      2.920
REMARK  10 active torsions:
REMARK  status: ('A' for Active; 'I' for Inactive)
REMARK    1  A    between atoms: C2_2  and  C3_3
REMARK    2  A    between atoms: C3_3  and  C4_4
REMARK    3  A    between atoms: C4_4  and  C5_5
REMARK    4  A    between atoms: C4_4  and  N2_9
REMARK    5  A    between atoms: C5_5  and  C6_6
REMARK    6  A    between atoms: N2_9  and  C8_11
REMARK    7  A    between atoms: C8_11  and  C9_12
REMARK    8  A    between atoms: C8_11  and  C11_15
REMARK    9  A    between atoms: C9_12  and  O1_13
REMARK   10  A    between atoms: C11_15  and  C12_16
ROOT
HETATM    1  C6  UNL     1      -3.618  -0.558  10.864  1.00  0.00     0.129 C
HETATM    2  C7  UNL     1      -3.079  -1.938  11.159  1.00  0.00     0.059 C
HETATM    3  N1  UNL     1      -2.656  -2.995  11.385  1.00  0.00    -0.197 NA
ENDROOT
BRANCH   1   4
HETATM    4  C5  UNL     1      -4.189  -0.099  12.174  1.00  0.00     0.067 C
BRANCH   4   5
HETATM    5  C4  UNL     1      -4.302   1.335  12.397  1.00  0.00    -0.009 C
BRANCH   5   6
HETATM    6  C3  UNL     1      -3.890   2.261  11.280  1.00  0.00     0.078 C
BRANCH   6   7
HETATM    7  C2  UNL     1      -2.667   3.013  11.395  1.00  0.00    -0.031 C
HETATM    8  C1  UNL     1      -1.545   2.565  10.880  1.00  0.00     0.007 C
ENDBRANCH   6   7
ENDBRANCH   5   6
BRANCH   5   9
HETATM    9  N2  UNL     1      -3.830   1.917  13.559  1.00  0.00    -0.368 N
ATOM     10  H2  UNL     1      -2.841   2.169  13.540  1.00  0.00     0.165 HD
BRANCH   9  11
HETATM   11  C8  UNL     1      -4.483   2.214  14.749  1.00  0.00     0.010 C
BRANCH  11  12
HETATM   12  C9  UNL     1      -4.431   1.163  15.813  1.00  0.00     0.219 C
BRANCH  12  13
HETATM   13  O1  UNL     1      -5.656   0.522  15.988  1.00  0.00    -0.390 OA
HETATM   14  C10 UNL     1      -6.029   0.477  17.322  1.00  0.00     0.201 C
ENDBRANCH  12  13
ENDBRANCH  11  12
BRANCH  11  15
HETATM   15  C11 UNL     1      -5.804   2.898  14.561  1.00  0.00     0.059 C
BRANCH  15  16
HETATM   16  C12 UNL     1      -5.901   4.346  14.879  1.00  0.00    -0.009 A
HETATM   17  C13 UNL     1      -4.753   5.229  14.490  1.00  0.00     0.005 A
HETATM   18  C14 UNL     1      -6.126   5.405  13.871  1.00  0.00     0.005 A
ENDBRANCH  15  16
ENDBRANCH  11  15
ENDBRANCH   9  11
ENDBRANCH   5   9
ENDBRANCH   4   5
ENDBRANCH   1   4
TORSDOF 10
ENDMDL