MODEL 4
REMARK VINA RESULT: -8.263133913      4.109      8.184
REMARK  13 active torsions:
REMARK  status: ('A' for Active; 'I' for Inactive)
REMARK    1  A    between atoms: C2_2  and  C3_3
REMARK    2  A    between atoms: C8_10  and  C9_11
REMARK    3  A    between atoms: C9_11  and  O3_12
REMARK    4  A    between atoms: C10_14  and  O4_15
REMARK    5  A    between atoms: C10_14  and  C11_17
REMARK    6  A    between atoms: C11_17  and  C12_18
REMARK    7  A    between atoms: C12_18  and  O6_20
REMARK    8  A    between atoms: C15_24  and  C16_25
REMARK    9  A    between atoms: C21_33  and  N1_34
REMARK   10  A    between atoms: C22_38  and  O13_39
REMARK   11  A    between atoms: C24_42  and  C25_43
REMARK   12  A    between atoms: C25_43  and  O14_44
REMARK   13  A    between atoms: N2_46  and  O15_48
ROOT
HETATM    1  C3  UNL     1     -30.305  14.997 -11.927  1.00  0.00    -0.008 C
HETATM    2  C4  UNL     1     -30.615  13.807 -11.447  1.00  0.00     0.022 C
HETATM    3  C5  UNL     1     -31.278  13.829 -10.145  1.00  0.00     0.225 C
HETATM    4  O1  UNL     1     -30.786  14.452  -9.281  1.00  0.00    -0.284 OA
HETATM    5  C6  UNL     1     -32.508  12.968 -10.364  1.00  0.00     0.203 C
HETATM    6  O2  UNL     1     -33.076  12.399  -9.521  1.00  0.00    -0.289 OA
HETATM    7  C7  UNL     1     -32.896  12.956 -11.845  1.00  0.00     0.134 C
HETATM    8  C8  UNL     1     -31.821  12.465 -12.833  1.00  0.00     0.140 C
HETATM    9  O7  UNL     1     -31.709  13.372 -13.984  1.00  0.00    -0.328 OA
HETATM   10  C14 UNL     1     -30.755  14.372 -14.310  1.00  0.00     0.123 A
HETATM   11  C15 UNL     1     -30.346  14.827 -15.491  1.00  0.00     0.149 A
HETATM   12  O12 UNL     1     -29.372  15.779 -15.235  1.00  0.00    -0.281 OA
HETATM   13  C22 UNL     1     -29.168  15.937 -13.967  1.00  0.00     0.198 A
HETATM   14  C23 UNL     1     -29.996  15.105 -13.356  1.00  0.00     0.069 A
HETATM   15  C24 UNL     1     -30.495  12.457 -12.147  1.00  0.00     0.142 C
ENDROOT
BRANCH  11  16
HETATM   16  C16 UNL     1     -30.728  14.540 -16.858  1.00  0.00     0.149 A
HETATM   17  O8  UNL     1     -31.427  13.386 -17.046  1.00  0.00    -0.308 OA
HETATM   18  C17 UNL     1     -31.829  12.984 -18.208  1.00  0.00     0.075 A
HETATM   19  C18 UNL     1     -32.601  11.698 -18.363  1.00  0.00     0.078 C
HETATM   20  C19 UNL     1     -31.594  13.676 -19.377  1.00  0.00     0.116 A
HETATM   21 CL1  UNL     1     -32.165  13.079 -20.912  1.00  0.00    -0.077 Cl
HETATM   22  C20 UNL     1     -30.902  14.837 -19.269  1.00  0.00     0.231 A
HETATM   23  O9  UNL     1     -30.649  15.521 -20.284  1.00  0.00    -0.284 OA
HETATM   24  C21 UNL     1     -30.478  15.243 -17.984  1.00  0.00     0.191 A
BRANCH  24  25
HETATM   25  N1  UNL     1     -29.663  16.388 -18.010  1.00  0.00    -0.108 N
HETATM   26  O10 UNL     1     -28.447  16.475 -18.156  1.00  0.00    -0.532 OA
HETATM   27  O11 UNL     1     -30.310  17.611 -17.755  1.00  0.00    -0.532 OA
ENDBRANCH  24  25
ENDBRANCH  11  16
BRANCH  13  28
HETATM   28  O13 UNL     1     -28.325  16.723 -13.175  1.00  0.00    -0.340 OA
ATOM     29  H13 UNL     1     -28.388  17.157 -12.332  1.00  0.00     0.220 HD
ENDBRANCH  13  28
BRANCH   8  30
HETATM   30  C9  UNL     1     -32.375  11.228 -13.402  1.00  0.00     0.109 C
HETATM   31  C10 UNL     1     -31.724  10.319 -14.319  1.00  0.00     0.084 C
BRANCH  30  32
HETATM   32  O3  UNL     1     -33.130  10.484 -12.452  1.00  0.00    -0.359 OA
ATOM     33  H3  UNL     1     -33.682  11.039 -11.914  1.00  0.00     0.217 HD
ENDBRANCH  30  32
BRANCH  31  34
HETATM   34  O4  UNL     1     -30.915  10.774 -15.307  1.00  0.00    -0.362 OA
ATOM     35  H4  UNL     1     -30.067  11.157 -15.114  1.00  0.00     0.217 HD
ENDBRANCH  31  34
BRANCH  31  36
HETATM   36  C11 UNL     1     -31.062   9.065 -13.747  1.00  0.00     0.178 C
BRANCH  36  37
HETATM   37  C12 UNL     1     -30.788   8.079 -14.835  1.00  0.00     0.264 C
HETATM   38  O5  UNL     1     -30.042   7.067 -14.674  1.00  0.00    -0.265 OA
BRANCH  37  39
HETATM   39  O6  UNL     1     -31.344   8.224 -16.103  1.00  0.00    -0.326 OA
HETATM   40  C13 UNL     1     -31.145   7.229 -17.091  1.00  0.00     0.213 C
ENDBRANCH  37  39
ENDBRANCH  36  37
ENDBRANCH  31  36
ENDBRANCH   8  30
BRANCH   1  41
HETATM   41  C2  UNL     1     -30.607  16.114 -11.125  1.00  0.00     0.003 C
HETATM   42  C1  UNL     1     -31.336  17.151 -11.357  1.00  0.00     0.012 C
ENDBRANCH   1  41
BRANCH  15  43
HETATM   43  C25 UNL     1     -30.020  11.517 -11.214  1.00  0.00     0.147 C
HETATM   44  N2  UNL     1     -28.809  11.416 -10.724  1.00  0.00    -0.250 N
ATOM     45  H2  UNL     1     -28.124  12.097 -11.054  1.00  0.00     0.196 HD
BRANCH  43  46
HETATM   46  O14 UNL     1     -30.807  10.525 -10.666  1.00  0.00    -0.347 OA
ATOM     47  H14 UNL     1     -30.800  10.301  -9.743  1.00  0.00     0.219 HD
ENDBRANCH  43  46
BRANCH  44  48
HETATM   48  O15 UNL     1     -28.377  10.511  -9.833  1.00  0.00    -0.288 OA
ATOM     49  H15 UNL     1     -28.800  10.270  -9.017  1.00  0.00     0.244 HD
ENDBRANCH  44  48
ENDBRANCH  15  43
TORSDOF 13
ENDMDL