MODEL 2
REMARK VINA RESULT: -8.939022377      2.849      5.195
REMARK  11 active torsions:
REMARK  status: ('A' for Active; 'I' for Inactive)
REMARK    1  A    between atoms: C2_2  and  C3_3
REMARK    2  A    between atoms: C5_7  and  N2_8
REMARK    3  A    between atoms: N2_8  and  C6_10
REMARK    4  A    between atoms: C8_13  and  C9_14
REMARK    5  A    between atoms: C12_22  and  N5_23
REMARK    6  A    between atoms: C13_28  and  N7_29
REMARK    7  A    between atoms: C15_35  and  O2_36
REMARK    8  A    between atoms: O2_36  and  C16_37
REMARK    9  A    between atoms: C16_37  and  C17_38
REMARK   10  A    between atoms: N12_43  and  C18_44
REMARK   11  A    between atoms: C18_44  and  C19_45
ROOT
HETATM    1  C3  UNL     1     -27.887  13.722 -13.467  1.00  0.00     0.053 A
HETATM    2  N1  UNL     1     -28.906  12.894 -13.332  1.00  0.00    -0.349 N
ATOM      3  H1  UNL     1     -28.876  11.974 -13.768  1.00  0.00     0.166 HD
HETATM    4  C4  UNL     1     -29.953  13.253 -12.638  1.00  0.00     0.112 A
HETATM    5  C5  UNL     1     -31.120  12.466 -12.409  1.00  0.00     0.139 A
HETATM    6  N8  UNL     1     -32.093  13.015 -11.666  1.00  0.00    -0.306 N
ATOM      7  H8  UNL     1     -32.924  12.447 -11.507  1.00  0.00     0.171 HD
HETATM    8  C15 UNL     1     -32.081  14.233 -11.113  1.00  0.00     0.226 A
HETATM    9  N15 UNL     1     -30.977  14.967 -11.333  1.00  0.00    -0.314 N
ATOM     10  H15 UNL     1     -30.918  15.904 -10.934  1.00  0.00     0.170 HD
HETATM   11  C24 UNL     1     -29.934  14.498 -12.075  1.00  0.00     0.109 A
HETATM   12  S1  UNL     1     -28.407  15.084 -12.579  1.00  0.00    -0.057 SA
ENDROOT
BRANCH   5  13
HETATM   13  N2  UNL     1     -31.250  11.200 -12.969  1.00  0.00    -0.338 N
ATOM     14  H2  UNL     1     -31.269  10.429 -12.301  1.00  0.00     0.167 HD
BRANCH  13  15
HETATM   15  C6  UNL     1     -31.346  10.866 -14.176  1.00  0.00     0.076 A
HETATM   16  C7  UNL     1     -31.671  11.672 -15.247  1.00  0.00     0.092 A
HETATM   17 CL1  UNL     1     -31.999  13.372 -15.028  1.00  0.00    -0.079 Cl
HETATM   18  C8  UNL     1     -31.745  11.164 -16.525  1.00  0.00     0.104 A
HETATM   19  N3  UNL     1     -31.493   9.865 -16.717  1.00  0.00    -0.337 N
HETATM   20  C11 UNL     1     -31.173   9.048 -15.700  1.00  0.00     0.138 A
ATOM     21  H3  UNL     1     -31.546   9.483 -17.662  1.00  0.00     0.167 HD
HETATM   22  N4  UNL     1     -30.919   7.723 -15.916  1.00  0.00    -0.176 N
HETATM   23  C14 UNL     1     -31.084   9.494 -14.410  1.00  0.00     0.081 A
HETATM   24  C12 UNL     1     -30.596   6.913 -14.874  1.00  0.00     0.679 A
ATOM     25  H4  UNL     1     -30.972   7.341 -16.861  1.00  0.00     0.186 HD
HETATM   26  N6  UNL     1     -30.515   7.371 -13.622  1.00  0.00    -0.176 N
HETATM   27  C13 UNL     1     -30.754   8.663 -13.351  1.00  0.00     0.131 A
ATOM     28  H6  UNL     1     -30.269   6.732 -12.864  1.00  0.00     0.186 HD
BRANCH  18  29
HETATM   29  C9  UNL     1     -32.101  12.044 -17.666  1.00  0.00     0.173 C
HETATM   30  C10 UNL     1     -33.352  11.785 -18.420  1.00  0.00     0.098 C
HETATM   31  O1  UNL     1     -31.387  12.990 -18.013  1.00  0.00    -0.291 OA
ENDBRANCH  18  29
BRANCH  24  32
HETATM   32  N5  UNL     1     -30.362   5.670 -15.112  1.00  0.00    -0.234 N
ATOM     33  H52 UNL     1     -29.409   5.368 -15.315  1.00  0.00     0.174 HD
ATOM     34  H51 UNL     1     -31.143   5.014 -15.090  1.00  0.00     0.174 HD
ENDBRANCH  24  32
BRANCH  27  35
HETATM   35  N7  UNL     1     -30.678   9.121 -12.146  1.00  0.00    -0.384 N
ATOM     36  H72 UNL     1     -29.782   9.397 -11.744  1.00  0.00     0.157 HD
ATOM     37  H71 UNL     1     -31.509   9.217 -11.562  1.00  0.00     0.157 HD
ENDBRANCH  27  35
ENDBRANCH  13  15
ENDBRANCH   5  13
BRANCH   8  38
HETATM   38  O2  UNL     1     -33.166  14.656 -10.371  1.00  0.00    -0.314 OA
BRANCH  38  39
HETATM   39  C16 UNL     1     -33.656  13.907  -9.284  1.00  0.00     0.257 C
BRANCH  39  40
HETATM   40  C17 UNL     1     -32.759  13.917  -8.100  1.00  0.00     0.134 A
HETATM   41  N9  UNL     1     -32.772  14.820  -7.079  1.00  0.00    -0.272 N
HETATM   42  N10 UNL     1     -31.824  14.528  -6.207  1.00  0.00    -0.007 NA
ATOM     43  H9  UNL     1     -33.417  15.605  -7.000  1.00  0.00     0.185 HD
HETATM   44  N11 UNL     1     -31.198  13.451  -6.646  1.00  0.00    -0.005 NA
HETATM   45  N12 UNL     1     -31.761  13.069  -7.800  1.00  0.00    -0.257 N
BRANCH  45  46
HETATM   46  C18 UNL     1     -31.308  11.917  -8.520  1.00  0.00     0.206 C
BRANCH  46  47
HETATM   47  C19 UNL     1     -29.899  12.160  -8.962  1.00  0.00     0.044 A
HETATM   48  C20 UNL     1     -29.268  11.117  -9.613  1.00  0.00     0.114 A
HETATM   49  N13 UNL     1     -28.008  11.269 -10.025  1.00  0.00    -0.371 N
HETATM   50  C21 UNL     1     -27.374  12.422  -9.806  1.00  0.00     0.112 A
ATOM     51  H13 UNL     1     -27.532  10.507 -10.507  1.00  0.00     0.164 HD
HETATM   52  C22 UNL     1     -27.968  13.488  -9.159  1.00  0.00     0.021 A
HETATM   53  C23 UNL     1     -27.224  14.744  -8.941  1.00  0.00     0.069 C
HETATM   54  N14 UNL     1     -29.235  13.296  -8.760  1.00  0.00    -0.360 N
ATOM     55  H14 UNL     1     -29.712  14.058  -8.279  1.00  0.00     0.165 HD
ENDBRANCH  46  47
ENDBRANCH  45  46
ENDBRANCH  39  40
ENDBRANCH  38  39
ENDBRANCH   8  38
BRANCH   1  56
HETATM   56  C2  UNL     1     -26.616  13.454 -14.233  1.00  0.00     0.060 C
HETATM   57  C1  UNL     1     -25.529  13.309 -13.209  1.00  0.00     0.012 C
ENDBRANCH   1  56
TORSDOF 11
ENDMDL