MODEL 3
REMARK VINA RESULT: -8.555904030      1.948      3.131
REMARK  10 active torsions:
REMARK  status: ('A' for Active; 'I' for Inactive)
REMARK    1  A    between atoms: C3_4  and  N1_5
REMARK    2  A    between atoms: C5_7  and  C6_8
REMARK    3  A    between atoms: C6_8  and  S1_9
REMARK    4  A    between atoms: S1_9  and  C7_10
REMARK    5  A    between atoms: C7_10  and  C8_11
REMARK    6  A    between atoms: N2_12  and  C9_14
REMARK    7  A    between atoms: N4_17  and  C10_18
REMARK    8  A    between atoms: C15_24  and  O3_25
REMARK    9  A    between atoms: C17_30  and  N6_31
REMARK   10  A    between atoms: C20_41  and  N9_42
ROOT
HETATM    1  C9  UNL     1     -31.210  12.958 -10.529  1.00  0.00     0.137 A
HETATM    2  N3  UNL     1     -31.234  12.616 -11.852  1.00  0.00    -0.280 N
ATOM      3  H3  UNL     1     -31.553  13.223 -12.607  1.00  0.00     0.189 HD
HETATM    4  N4  UNL     1     -30.784  11.386 -12.013  1.00  0.00    -0.264 N
HETATM    5  C16 UNL     1     -30.443  10.858 -10.816  1.00  0.00     0.156 A
HETATM    6  N5  UNL     1     -29.938   9.652 -10.443  1.00  0.00    -0.174 N
ATOM      7  H5  UNL     1     -29.753   8.944 -11.153  1.00  0.00     0.186 HD
HETATM    8  C17 UNL     1     -29.681   9.379  -9.154  1.00  0.00     0.679 A
HETATM    9  N7  UNL     1     -29.935  10.328  -8.236  1.00  0.00    -0.176 N
ATOM     10  H7  UNL     1     -29.742  10.127  -7.255  1.00  0.00     0.186 HD
HETATM   11  C18 UNL     1     -30.436  11.538  -8.569  1.00  0.00     0.132 A
HETATM   12  N8  UNL     1     -30.678  12.452  -7.699  1.00  0.00    -0.384 N
ATOM     13  H81 UNL     1     -31.056  13.365  -7.950  1.00  0.00     0.157 HD
ATOM     14  H82 UNL     1     -30.476  12.227  -6.725  1.00  0.00     0.157 HD
HETATM   15  C19 UNL     1     -30.709  11.842  -9.888  1.00  0.00     0.099 A
ENDROOT
BRANCH   1  16
HETATM   16  N2  UNL     1     -31.605  14.187  -9.953  1.00  0.00    -0.353 N
HETATM   17  C8  UNL     1     -30.740  15.107  -9.755  1.00  0.00     0.073 C
ATOM     18  H2  UNL     1     -32.580  14.340  -9.696  1.00  0.00     0.166 HD
BRANCH  17  19
HETATM   19  C7  UNL     1     -29.335  14.952 -10.099  1.00  0.00     0.118 C
BRANCH  19  20
HETATM   20  S1  UNL     1     -28.178  16.065  -9.346  1.00  0.00    -0.159 SA
BRANCH  20  21
HETATM   21  C6  UNL     1     -27.604  15.610  -7.727  1.00  0.00     0.118 C
BRANCH  21  22
HETATM   22  C5  UNL     1     -26.345  14.876  -7.736  1.00  0.00     0.016 A
HETATM   23  C4  UNL     1     -25.771  14.184  -8.761  1.00  0.00     0.125 A
HETATM   24  N1  UNL     1     -24.576  13.739  -8.324  1.00  0.00    -0.270 N
HETATM   25  N12 UNL     1     -24.385  14.120  -7.094  1.00  0.00    -0.279 N
HETATM   26  C20 UNL     1     -25.429  14.814  -6.687  1.00  0.00     0.160 A
ATOM     27  H12 UNL     1     -23.558  13.913  -6.533  1.00  0.00     0.189 HD
BRANCH  24  28
HETATM   28  C3  UNL     1     -23.646  12.956  -9.108  1.00  0.00     0.267 C
HETATM   29  O1  UNL     1     -24.086  12.697 -10.378  1.00  0.00    -0.352 OA
HETATM   30  C2  UNL     1     -24.420  11.396 -10.645  1.00  0.00     0.187 C
HETATM   31  C1  UNL     1     -25.852  11.071 -10.203  1.00  0.00     0.045 C
HETATM   32  C22 UNL     1     -23.442  10.376 -10.167  1.00  0.00     0.227 C
HETATM   33  O4  UNL     1     -22.731  10.730  -9.052  1.00  0.00    -0.345 OA
HETATM   34  C23 UNL     1     -24.141   9.036  -9.932  1.00  0.00     0.087 C
HETATM   35  F1  UNL     1     -22.507  10.118 -11.180  1.00  0.00    -0.209 F
HETATM   36  C21 UNL     1     -23.272  11.749  -8.309  1.00  0.00     0.227 C
ENDBRANCH  24  28
BRANCH  26  37
HETATM   37  N9  UNL     1     -25.682  15.437  -5.419  1.00  0.00    -0.180 N
HETATM   38  N10 UNL     1     -26.400  15.241  -4.347  1.00  0.00    -0.219 N
HETATM   39  N11 UNL     1     -26.023  16.319  -3.658  1.00  0.00    -0.025 NA
ATOM     40  H10 UNL     1     -27.051  14.492  -4.109  1.00  0.00     0.206 HD
HETATM   41  S2  UNL     1     -24.993  16.868  -4.849  1.00  0.00     0.106 SA
ENDBRANCH  26  37
ENDBRANCH  21  22
ENDBRANCH  20  21
ENDBRANCH  19  20
ENDBRANCH  17  19
ENDBRANCH   1  16
BRANCH   4  42
HETATM   42  C10 UNL     1     -30.644  10.638 -13.253  1.00  0.00     0.165 C
HETATM   43  C11 UNL     1     -30.120  11.463 -14.384  1.00  0.00     0.199 C
HETATM   44  O2  UNL     1     -31.014  11.349 -15.442  1.00  0.00    -0.376 OA
HETATM   45  C12 UNL     1     -31.703  10.172 -15.282  1.00  0.00     0.081 C
HETATM   46  C13 UNL     1     -32.984  10.184 -16.083  1.00  0.00     0.048 C
HETATM   47  C14 UNL     1     -30.849   8.979 -15.556  1.00  0.00     0.048 C
HETATM   48  C15 UNL     1     -31.999  10.195 -13.779  1.00  0.00     0.178 C
BRANCH  48  49
HETATM   49  O3  UNL     1     -32.930  11.201 -13.551  1.00  0.00    -0.390 OA
ATOM     50  H3  UNL     1     -33.687  10.833 -13.111  1.00  0.00     0.210 HD
ENDBRANCH  48  49
ENDBRANCH   4  42
BRANCH   8  51
HETATM   51  N6  UNL     1     -29.196   8.217  -8.789  1.00  0.00    -0.234 N
ATOM     52  H62 UNL     1     -29.404   7.378  -9.331  1.00  0.00     0.174 HD
ATOM     53  H61 UNL     1     -28.604   8.127  -7.963  1.00  0.00     0.174 HD
ENDBRANCH   8  51
TORSDOF 10
ENDMDL