MODEL 3
REMARK VINA RESULT: -8.868663635      5.954     13.078
REMARK  11 active torsions:
REMARK  status: ('A' for Active; 'I' for Inactive)
REMARK    1  A    between atoms: O1_2  and  C2_3
REMARK    2  A    between atoms: C2_3  and  C3_5
REMARK    3  A    between atoms: C3_5  and  N1_7
REMARK    4  A    between atoms: N1_7  and  N2_8
REMARK    5  A    between atoms: N1_7  and  C12_23
REMARK       I    between atoms: N2_8  and  C5_10
REMARK    6  A    between atoms: C5_10  and  C6_12
REMARK    7  A    between atoms: C8_14  and  O4_15
REMARK    8  A    between atoms: C9_17  and  O5_18
REMARK    9  A    between atoms: C13_28  and  C14_29
REMARK   10  A    between atoms: C15_34  and  S2_35
REMARK   11  A    between atoms: S2_35  and  C16_36
ROOT
HETATM    1  C12 UNL     1     -29.430   8.986  -8.947  1.00  0.00     0.183 A
HETATM    2  N3  UNL     1     -29.770   8.517  -7.752  1.00  0.00    -0.277 N
ATOM      3  H3  UNL     1     -30.125   9.152  -7.036  1.00  0.00     0.189 HD
HETATM    4  N4  UNL     1     -29.655   7.285  -7.501  1.00  0.00    -0.289 N
ATOM      5  H4  UNL     1     -29.917   6.925  -6.583  1.00  0.00     0.188 HD
HETATM    6  C13 UNL     1     -29.193   6.458  -8.431  1.00  0.00     0.138 A
HETATM    7  S3  UNL     1     -28.920   7.553  -9.728  1.00  0.00    -0.028 SA
ENDROOT
BRANCH   1   8
HETATM    8  N1  UNL     1     -29.519  10.349  -9.389  1.00  0.00    -0.253 N
BRANCH   8   9
HETATM    9  C3  UNL     1     -29.449  11.427  -8.403  1.00  0.00     0.206 C
HETATM   10  C4  UNL     1     -30.862  11.965  -8.135  1.00  0.00     0.045 C
BRANCH   9  11
HETATM   11  C2  UNL     1     -28.706  12.572  -8.979  1.00  0.00     0.283 C
HETATM   12  O2  UNL     1     -27.464  12.519  -9.048  1.00  0.00    -0.263 OA
BRANCH  11  13
HETATM   13  O1  UNL     1     -29.375  13.678  -9.429  1.00  0.00    -0.325 OA
HETATM   14  C1  UNL     1     -28.954  14.391 -10.559  1.00  0.00     0.213 C
ENDBRANCH  11  13
ENDBRANCH   9  11
ENDBRANCH   8   9
BRANCH   8  15
HETATM   15  N2  UNL     1     -29.650  10.689 -10.720  1.00  0.00    -0.261 N
HETATM   16  C5  UNL     1     -30.888  10.824 -11.393  1.00  0.00     0.270 C
HETATM   17  O3  UNL     1     -31.944  10.616 -10.720  1.00  0.00    -0.266 OA
ATOM     18  H2  UNL     1     -28.797  10.854 -11.256  1.00  0.00     0.190 HD
BRANCH  16  19
HETATM   19  C6  UNL     1     -30.991  11.186 -12.807  1.00  0.00     0.037 A
HETATM   20  C7  UNL     1     -31.863  10.583 -13.678  1.00  0.00     0.056 A
HETATM   21  C8  UNL     1     -31.915  10.982 -15.019  1.00  0.00     0.101 A
HETATM   22  C9  UNL     1     -31.092  11.984 -15.482  1.00  0.00     0.116 A
HETATM   23  C10 UNL     1     -30.207  12.597 -14.607  1.00  0.00     0.048 A
HETATM   24  S1  UNL     1     -29.120  13.909 -15.179  1.00  0.00    -0.050 SA
HETATM   25  C11 UNL     1     -30.174  12.188 -13.291  1.00  0.00     0.039 A
BRANCH  21  26
HETATM   26  O4  UNL     1     -32.799  10.360 -15.867  1.00  0.00    -0.358 OA
ATOM     27  H4  UNL     1     -32.460   9.819 -16.571  1.00  0.00     0.217 HD
ENDBRANCH  21  26
BRANCH  22  28
HETATM   28  O5  UNL     1     -31.085  12.429 -16.781  1.00  0.00    -0.357 OA
ATOM     29  H5  UNL     1     -30.493  13.096 -17.108  1.00  0.00     0.218 HD
ENDBRANCH  22  28
ENDBRANCH  16  19
ENDBRANCH   8  15
ENDBRANCH   1   8
BRANCH   6  30
HETATM   30  C14 UNL     1     -28.975   5.006  -8.370  1.00  0.00     0.158 A
HETATM   31  N5  UNL     1     -29.170   4.276  -7.262  1.00  0.00    -0.281 N
HETATM   32  N6  UNL     1     -28.864   2.993  -7.527  1.00  0.00    -0.278 N
ATOM     33  H5  UNL     1     -29.498   4.635  -6.365  1.00  0.00     0.188 HD
HETATM   34  C15 UNL     1     -28.472   2.904  -8.810  1.00  0.00     0.165 A
ATOM     35  H6  UNL     1     -28.920   2.219  -6.866  1.00  0.00     0.189 HD
HETATM   36  N8  UNL     1     -28.549   4.152  -9.305  1.00  0.00    -0.318 N
ATOM     37  H8  UNL     1     -28.314   4.410 -10.263  1.00  0.00     0.169 HD
BRANCH  34  38
HETATM   38  S2  UNL     1     -27.959   1.412  -9.687  1.00  0.00    -0.064 SA
BRANCH  38  39
HETATM   39  C16 UNL     1     -28.578  -0.015  -8.849  1.00  0.00     0.068 C
HETATM   40  C17 UNL     1     -27.976  -1.175  -9.015  1.00  0.00     0.049 C
HETATM   41  C18 UNL     1     -28.440  -2.405  -8.345  1.00  0.00     0.257 C
HETATM   42  C20 UNL     1     -26.799  -1.529  -9.822  1.00  0.00     0.147 C
HETATM   43  O6  UNL     1     -29.309  -2.448  -7.440  1.00  0.00    -0.267 OA
HETATM   44  N7  UNL     1     -27.725  -3.495  -8.916  1.00  0.00    -0.292 N
HETATM   45  C19 UNL     1     -26.837  -3.011  -9.911  1.00  0.00     0.252 C
ATOM     46  H7  UNL     1     -27.834  -4.474  -8.651  1.00  0.00     0.172 HD
HETATM   47  O7  UNL     1     -26.166  -3.664 -10.753  1.00  0.00    -0.271 OA
HETATM   48  C21 UNL     1     -25.549  -1.041  -9.107  1.00  0.00     0.049 C
HETATM   49 CL1  UNL     1     -26.841  -0.875 -11.463  1.00  0.00    -0.104 Cl
ENDBRANCH  38  39
ENDBRANCH  34  38
ENDBRANCH   6  30
TORSDOF 11
ENDMDL