MODEL 4
REMARK VINA RESULT: -9.330093277      2.722      5.014
REMARK  10 active torsions:
REMARK  status: ('A' for Active; 'I' for Inactive)
REMARK    1  A    between atoms: C2_2  and  C3_3
REMARK    2  A    between atoms: C4_4  and  S1_5
REMARK    3  A    between atoms: S1_5  and  C5_6
REMARK    4  A    between atoms: C6_11  and  C7_12
REMARK    5  A    between atoms: N5_17  and  C8_18
REMARK    6  A    between atoms: C8_18  and  C9_19
REMARK    7  A    between atoms: C9_19  and  C10_20
REMARK    8  A    between atoms: N8_27  and  C12_28
REMARK    9  A    between atoms: C17_37  and  O3_38
REMARK   10  A    between atoms: C18_44  and  N12_45
ROOT
HETATM    1  C3  UNL     1     -28.504   1.879  -7.579  1.00  0.00    -0.001 A
HETATM    2  C4  UNL     1     -28.529   3.108  -8.195  1.00  0.00     0.087 A
HETATM    3  N11 UNL     1     -28.185   3.142  -9.494  1.00  0.00    -0.335 N
ATOM      4  H11 UNL     1     -28.193   4.037  -9.981  1.00  0.00     0.168 HD
HETATM    5  C18 UNL     1     -27.826   2.024 -10.181  1.00  0.00     0.122 A
HETATM    6  C19 UNL     1     -27.796   0.781  -9.577  1.00  0.00     0.110 A
HETATM    7  C20 UNL     1     -27.414  -0.413 -10.309  1.00  0.00     0.105 C
HETATM    8  N13 UNL     1     -27.122  -1.363 -10.905  1.00  0.00    -0.191 NA
HETATM    9  C21 UNL     1     -28.147   0.719  -8.243  1.00  0.00     0.067 A
HETATM   10 CL1  UNL     1     -28.118  -0.842  -7.457  1.00  0.00    -0.082 Cl
ENDROOT
BRANCH   5  11
HETATM   11  N12 UNL     1     -27.497   2.064 -11.427  1.00  0.00    -0.384 N
ATOM     12 2H12 UNL     1     -28.146   2.542 -12.051  1.00  0.00     0.157 HD
ATOM     13 1H12 UNL     1     -26.636   1.641 -11.772  1.00  0.00     0.157 HD
ENDBRANCH   5  11
BRANCH   1  14
HETATM   14  C2  UNL     1     -28.879   1.813  -6.143  1.00  0.00     0.039 C
HETATM   15  C1  UNL     1     -27.689   1.957  -5.220  1.00  0.00     0.010 C
ENDBRANCH   1  14
BRANCH   2  16
HETATM   16  S1  UNL     1     -29.001   4.560  -7.274  1.00  0.00    -0.034 SA
BRANCH  16  17
HETATM   17  C5  UNL     1     -29.187   5.969  -8.355  1.00  0.00     0.167 A
HETATM   18  N1  UNL     1     -29.419   5.928  -9.675  1.00  0.00    -0.278 N
HETATM   19  N2  UNL     1     -29.495   7.182 -10.137  1.00  0.00    -0.281 N
ATOM     20  H1  UNL     1     -29.521   5.081 -10.234  1.00  0.00     0.189 HD
HETATM   21  C6  UNL     1     -29.316   8.043  -9.128  1.00  0.00     0.155 A
ATOM     22  H2  UNL     1     -29.665   7.441 -11.108  1.00  0.00     0.188 HD
HETATM   23  N10 UNL     1     -29.128   7.278  -8.039  1.00  0.00    -0.319 N
ATOM     24  H10 UNL     1     -28.962   7.640  -7.100  1.00  0.00     0.169 HD
BRANCH  21  25
HETATM   25  C7  UNL     1     -29.317   9.499  -9.136  1.00  0.00     0.147 A
HETATM   26  N3  UNL     1     -29.196  10.295 -10.213  1.00  0.00    -0.279 N
HETATM   27  N4  UNL     1     -29.240  11.549  -9.820  1.00  0.00    -0.238 N
ATOM     28  H3  UNL     1     -29.088   9.977 -11.177  1.00  0.00     0.189 HD
HETATM   29  N5  UNL     1     -29.384  11.663  -8.525  1.00  0.00    -0.254 N
ATOM     30  H4  UNL     1     -29.169  12.344 -10.455  1.00  0.00     0.208 HD
HETATM   31  C17 UNL     1     -29.436  10.376  -8.079  1.00  0.00     0.191 A
BRANCH  29  32
HETATM   32  C8  UNL     1     -29.457  12.825  -7.678  1.00  0.00     0.160 C
BRANCH  32  33
HETATM   33  C9  UNL     1     -29.871  14.087  -8.332  1.00  0.00     0.100 C
BRANCH  33  34
HETATM   34  C10 UNL     1     -31.224  14.495  -7.966  1.00  0.00     0.107 A
HETATM   35  N6  UNL     1     -31.796  14.927  -6.833  1.00  0.00    -0.286 N
HETATM   36  N7  UNL     1     -33.078  15.181  -6.985  1.00  0.00    -0.274 N
ATOM     37  H6  UNL     1     -31.295  15.045  -5.952  1.00  0.00     0.188 HD
HETATM   38  C11 UNL     1     -33.367  14.905  -8.276  1.00  0.00     0.199 A
ATOM     39  H7  UNL     1     -33.723  15.520  -6.271  1.00  0.00     0.189 HD
HETATM   40  S2  UNL     1     -34.866  15.070  -8.951  1.00  0.00    -0.039 SA
HETATM   41  N8  UNL     1     -32.244  14.492  -8.859  1.00  0.00    -0.269 N
BRANCH  41  42
HETATM   42  C12 UNL     1     -32.174  14.106 -10.249  1.00  0.00     0.118 A
HETATM   43  C13 UNL     1     -31.958  15.142 -11.136  1.00  0.00     0.090 A
HETATM   44  S3  UNL     1     -31.878  14.674 -12.772  1.00  0.00    -0.038 SA
HETATM   45  C14 UNL     1     -32.086  12.991 -13.002  1.00  0.00     0.292 A
HETATM   46  O1  UNL     1     -32.073  12.385 -14.099  1.00  0.00    -0.259 OA
HETATM   47  N9  UNL     1     -32.277  12.304 -11.865  1.00  0.00    -0.278 N
HETATM   48  C15 UNL     1     -32.461  10.849 -12.030  1.00  0.00     0.163 C
HETATM   49  C16 UNL     1     -32.316  12.807 -10.637  1.00  0.00     0.278 A
HETATM   50  O2  UNL     1     -32.511  11.976  -9.679  1.00  0.00    -0.265 OA
ENDBRANCH  41  42
ENDBRANCH  33  34
ENDBRANCH  32  33
ENDBRANCH  29  32
BRANCH  31  51
HETATM   51  O3  UNL     1     -29.584  10.028  -6.752  1.00  0.00    -0.343 OA
ATOM     52  H3  UNL     1     -30.402   9.812  -6.321  1.00  0.00     0.219 HD
ENDBRANCH  31  51
ENDBRANCH  21  25
ENDBRANCH  16  17
ENDBRANCH   2  16
TORSDOF 10
ENDMDL