MODEL 3
REMARK VINA RESULT: -8.802441997      1.927      2.212
REMARK  11 active torsions:
REMARK  status: ('A' for Active; 'I' for Inactive)
REMARK    1  A    between atoms: C2_2  and  C3_4
REMARK    2  A    between atoms: C3_4  and  S1_6
REMARK    3  A    between atoms: C3_4  and  C10_20
REMARK    4  A    between atoms: S1_6  and  C4_7
REMARK    5  A    between atoms: C5_12  and  C6_13
REMARK    6  A    between atoms: C10_20  and  C11_24
REMARK    7  A    between atoms: C11_24  and  S2_36
REMARK    8  A    between atoms: N5_25  and  N6_27
REMARK    9  A    between atoms: N6_27  and  C12_29
REMARK   10  A    between atoms: S2_36  and  C15_37
REMARK   11  A    between atoms: C17_45  and  C19_47
ROOT
HETATM    1  C11 UNL     1     -30.046  12.332  -9.482  1.00  0.00     0.116 C
HETATM    2  N5  UNL     1     -30.024  11.138  -9.149  1.00  0.00    -0.289 N
ATOM      3  H5  UNL     1     -30.040  10.524  -9.963  1.00  0.00     0.188 HD
ENDROOT
BRANCH   1   4
HETATM    4  C10 UNL     1     -30.084  12.551 -10.984  1.00  0.00     0.081 C
HETATM    5  N4  UNL     1     -28.977  12.355 -11.598  1.00  0.00    -0.397 N
ATOM      6  H42 UNL     1     -29.002  12.502 -12.607  1.00  0.00     0.156 HD
ATOM      7  H41 UNL     1     -28.123  12.069 -11.118  1.00  0.00     0.156 HD
BRANCH   4   8
HETATM    8  C3  UNL     1     -31.314  12.963 -11.675  1.00  0.00     0.196 C
HETATM    9 CL1  UNL     1     -31.980  14.482 -10.998  1.00  0.00    -0.091 Cl
BRANCH   8  10
HETATM   10  C2  UNL     1     -32.347  11.916 -11.676  1.00  0.00     0.163 C
HETATM   11  C1  UNL     1     -33.800  12.208 -11.797  1.00  0.00     0.094 C
HETATM   12  O1  UNL     1     -32.036  10.741 -11.574  1.00  0.00    -0.295 OA
ENDBRANCH   8  10
BRANCH   8  13
HETATM   13  S1  UNL     1     -30.882  13.314 -13.405  1.00  0.00    -0.052 SA
BRANCH  13  14
HETATM   14  C4  UNL     1     -31.370  11.951 -14.455  1.00  0.00     0.163 A
HETATM   15  N1  UNL     1     -32.321  11.921 -15.401  1.00  0.00    -0.278 N
HETATM   16  N2  UNL     1     -32.360  10.701 -15.951  1.00  0.00    -0.281 N
ATOM     17  H1  UNL     1     -32.921  12.705 -15.660  1.00  0.00     0.189 HD
HETATM   18  C5  UNL     1     -31.440   9.924 -15.375  1.00  0.00     0.156 A
ATOM     19  H2  UNL     1     -32.994  10.410 -16.695  1.00  0.00     0.188 HD
HETATM   20  N3  UNL     1     -30.843  10.711 -14.459  1.00  0.00    -0.318 N
ATOM     21  H3  UNL     1     -30.087  10.407 -13.846  1.00  0.00     0.169 HD
BRANCH  18  22
HETATM   22  C6  UNL     1     -31.115   8.529 -15.647  1.00  0.00     0.120 A
HETATM   23  C7  UNL     1     -31.368   7.817 -16.807  1.00  0.00     0.043 A
HETATM   24  C8  UNL     1     -30.891   6.533 -16.621  1.00  0.00     0.027 A
HETATM   25  C9  UNL     1     -30.368   6.532 -15.346  1.00  0.00     0.142 A
HETATM   26  O2  UNL     1     -30.520   7.721 -14.813  1.00  0.00    -0.319 OA
ENDBRANCH  18  22
ENDBRANCH  13  14
ENDBRANCH   8  13
ENDBRANCH   4   8
ENDBRANCH   1   4
BRANCH   1  27
HETATM   27  S2  UNL     1     -29.973  13.782  -8.475  1.00  0.00    -0.056 SA
BRANCH  27  28
HETATM   28  C15 UNL     1     -28.415  14.581  -8.304  1.00  0.00     0.050 C
HETATM   29  N9  UNL     1     -28.289  15.795  -8.076  1.00  0.00    -0.363 N
HETATM   30  C16 UNL     1     -27.127  16.568  -7.920  1.00  0.00     0.226 C
ATOM     31  H9  UNL     1     -29.165  16.310  -7.990  1.00  0.00     0.162 HD
HETATM   32  N10 UNL     1     -27.203  17.615  -6.963  1.00  0.00    -0.312 N
HETATM   33  C20 UNL     1     -25.955  15.678  -7.574  1.00  0.00     0.169 C
HETATM   34  N11 UNL     1     -26.564  17.640  -5.940  1.00  0.00    -0.295 N
ATOM     35  H10 UNL     1     -27.837  18.392  -7.152  1.00  0.00     0.182 HD
HETATM   36  C17 UNL     1     -25.654  16.628  -5.553  1.00  0.00     0.234 C
ATOM     37  H11 UNL     1     -26.687  18.438  -5.317  1.00  0.00     0.183 HD
HETATM   38  C18 UNL     1     -25.913  16.398  -4.045  1.00  0.00     0.085 C
HETATM   39  O5  UNL     1     -25.880  15.440  -6.218  1.00  0.00    -0.341 OA
HETATM   40  C21 UNL     1     -25.930  14.422  -8.416  1.00  0.00     0.042 C
HETATM   41  C22 UNL     1     -27.213  13.687  -8.489  1.00  0.00     0.067 C
BRANCH  36  42
HETATM   42  C19 UNL     1     -24.226  17.064  -5.618  1.00  0.00     0.232 C
HETATM   43  O3  UNL     1     -23.285  16.255  -5.500  1.00  0.00    -0.644 OA
HETATM   44  O4  UNL     1     -23.925  18.404  -5.817  1.00  0.00    -0.644 OA
ENDBRANCH  36  42
ENDBRANCH  27  28
ENDBRANCH   1  27
BRANCH   2  45
HETATM   45  N6  UNL     1     -29.985  10.441  -8.018  1.00  0.00    -0.271 N
ATOM     46  H6  UNL     1     -30.208  10.878  -7.123  1.00  0.00     0.190 HD
BRANCH  45  47
HETATM   47  C12 UNL     1     -29.616   9.035  -8.097  1.00  0.00     0.190 A
HETATM   48  N7  UNL     1     -29.613   8.245  -7.074  1.00  0.00    -0.360 N
HETATM   49  C13 UNL     1     -29.209   6.920  -7.452  1.00  0.00     0.142 A
ATOM     50  H7  UNL     1     -29.864   8.525  -6.126  1.00  0.00     0.162 HD
HETATM   51  C14 UNL     1     -29.002   6.970  -8.941  1.00  0.00     0.142 A
HETATM   52  N8  UNL     1     -29.227   8.364  -9.273  1.00  0.00    -0.360 N
ATOM     53  H8  UNL     1     -29.123   8.784 -10.197  1.00  0.00     0.162 HD
ENDBRANCH  45  47
ENDBRANCH   2  45
TORSDOF 11
ENDMDL