MODEL 2
REMARK VINA RESULT: -7.074326519      2.985      5.466
REMARK  13 active torsions:
REMARK  status: ('A' for Active; 'I' for Inactive)
REMARK    1  A    between atoms: C2_2  and  O1_3
REMARK    2  A    between atoms: O1_3  and  N1_4
REMARK    3  A    between atoms: C3_6  and  O2_7
REMARK    4  A    between atoms: C3_6  and  C17_38
REMARK    5  A    between atoms: O2_7  and  C4_8
REMARK    6  A    between atoms: C6_11  and  N2_12
REMARK    7  A    between atoms: C8_14  and  O4_15
REMARK    8  A    between atoms: C9_17  and  N3_18
REMARK       I    between atoms: N4_20  and  C10_22
REMARK       I    between atoms: C10_22  and  N5_24
REMARK    9  A    between atoms: C16_33  and  O6_34
REMARK   10  A    between atoms: C17_38  and  N8_39
REMARK   11  A    between atoms: C17_38  and  C18_43
REMARK   12  A    between atoms: C18_43  and  S3_44
REMARK   13  A    between atoms: S3_44  and  C19_45
ROOT
HETATM    1  C4  UNL     1     -29.677  13.267 -15.625  1.00  0.00     0.343 C
HETATM    2  O3  UNL     1     -28.313  13.518 -15.493  1.00  0.00    -0.348 OA
HETATM    3  C5  UNL     1     -27.877  13.490 -14.197  1.00  0.00     0.209 C
HETATM    4  C6  UNL     1     -27.789  14.831 -13.502  1.00  0.00     0.188 C
HETATM    5  S1  UNL     1     -28.917  16.008 -14.383  1.00  0.00    -0.065 SA
HETATM    6  S2  UNL     1     -30.558  14.698 -14.955  1.00  0.00    -0.035 SA
ENDROOT
BRANCH   4   7
HETATM    7  N2  UNL     1     -28.337  14.749 -12.131  1.00  0.00    -0.316 N
HETATM    8  C7  UNL     1     -29.187  13.840 -11.634  1.00  0.00     0.133 A
HETATM    9  C8  UNL     1     -29.510  14.106 -10.346  1.00  0.00     0.113 A
HETATM   10  C9  UNL     1     -28.808  15.273  -9.998  1.00  0.00     0.134 A
HETATM   11  C16 UNL     1     -28.112  15.624 -11.126  1.00  0.00     0.175 A
BRANCH   9  12
HETATM   12  O4  UNL     1     -30.360  13.366  -9.541  1.00  0.00    -0.357 OA
ATOM     13  H4  UNL     1     -31.290  13.229  -9.676  1.00  0.00     0.218 HD
ENDBRANCH   9  12
BRANCH  10  14
HETATM   14  N3  UNL     1     -28.942  15.830  -8.714  1.00  0.00    -0.290 N
HETATM   15  N4  UNL     1     -29.954  16.412  -8.381  1.00  0.00    -0.251 N
HETATM   16  C10 UNL     1     -31.145  16.672  -9.077  1.00  0.00     0.344 C
ATOM     17  H4  UNL     1     -29.936  16.776  -7.428  1.00  0.00     0.191 HD
HETATM   18  O5  UNL     1     -31.054  17.139 -10.226  1.00  0.00    -0.245 OA
HETATM   19  N5  UNL     1     -32.435  16.437  -8.550  1.00  0.00    -0.261 N
HETATM   20  C11 UNL     1     -32.765  15.762  -7.301  1.00  0.00     0.195 C
HETATM   21  C13 UNL     1     -33.734  16.886  -9.019  1.00  0.00     0.053 C
HETATM   22  N6  UNL     1     -32.041  14.629  -6.829  1.00  0.00    -0.063 NA
HETATM   23  N7  UNL     1     -33.796  16.382  -6.777  1.00  0.00    -0.362 N
HETATM   24  C12 UNL     1     -34.198  17.486  -7.654  1.00  0.00     0.153 C
ATOM     25  H7  UNL     1     -34.247  16.135  -5.897  1.00  0.00     0.162 HD
HETATM   26  C14 UNL     1     -34.723  15.824  -9.335  1.00  0.00     0.040 C
HETATM   27  C15 UNL     1     -33.649  17.977 -10.040  1.00  0.00     0.040 C
ATOM     28  H3  UNL     1     -28.173  15.744  -8.048  1.00  0.00     0.187 HD
ENDBRANCH  10  14
BRANCH  11  29
HETATM   29  O6  UNL     1     -27.281  16.740 -11.238  1.00  0.00    -0.344 OA
ATOM     30  H6  UNL     1     -26.664  17.011 -10.567  1.00  0.00     0.219 HD
ENDBRANCH  11  29
ENDBRANCH   4   7
BRANCH   1  31
HETATM   31  O2  UNL     1     -30.036  12.043 -15.098  1.00  0.00    -0.294 OA
BRANCH  31  32
HETATM   32  C3  UNL     1     -31.303  11.698 -14.719  1.00  0.00     0.172 C
HETATM   33  N1  UNL     1     -32.047  11.403 -15.662  1.00  0.00    -0.247 N
ATOM     34  H1  UNL     1     -32.924  11.160 -15.202  1.00  0.00     0.196 HD
BRANCH  33  35
HETATM   35  O1  UNL     1     -32.306  11.240 -16.883  1.00  0.00    -0.279 OA
BRANCH  35  36
HETATM   36  C2  UNL     1     -32.561  12.413 -17.759  1.00  0.00     0.197 C
HETATM   37  C1  UNL     1     -32.658  11.782 -19.146  1.00  0.00     0.036 C
ENDBRANCH  35  36
ENDBRANCH  33  35
BRANCH  32  38
HETATM   38  C17 UNL     1     -31.955  11.630 -13.371  1.00  0.00     0.269 C
BRANCH  38  39
HETATM   39  N8  UNL     1     -33.138  12.431 -13.314  1.00  0.00    -0.067 N
ATOM     40  H83 UNL     1     -32.955  13.387 -13.617  1.00  0.00     0.275 HD
ATOM     41  H82 UNL     1     -33.805  12.160 -14.036  1.00  0.00     0.275 HD
ATOM     42  H81 UNL     1     -33.564  12.410 -12.387  1.00  0.00     0.275 HD
ENDBRANCH  38  39
BRANCH  38  43
HETATM   43  C18 UNL     1     -32.372  10.140 -13.206  1.00  0.00     0.123 C
BRANCH  43  44
HETATM   44  S3  UNL     1     -30.893   9.110 -13.051  1.00  0.00    -0.092 SA
BRANCH  44  45
HETATM   45  C19 UNL     1     -30.783   8.009 -14.509  1.00  0.00     0.136 C
HETATM   46  N9  UNL     1     -31.196   8.319 -15.671  1.00  0.00    -0.369 N
HETATM   47  C20 UNL     1     -30.989   7.256 -16.638  1.00  0.00     0.141 C
ATOM     48  H9  UNL     1     -31.625   9.215 -15.899  1.00  0.00     0.161 HD
HETATM   49  C21 UNL     1     -30.654   6.076 -15.770  1.00  0.00     0.141 C
HETATM   50  N10 UNL     1     -30.289   6.699 -14.522  1.00  0.00    -0.369 N
ATOM     51  H10 UNL     1     -29.758   6.257 -13.772  1.00  0.00     0.161 HD
ENDBRANCH  44  45
ENDBRANCH  43  44
ENDBRANCH  38  43
ENDBRANCH  32  38
ENDBRANCH  31  32
ENDBRANCH   1  31
TORSDOF 13
ENDMDL