MODEL 1
REMARK VINA RESULT: -7.936227551      0.000      0.000
REMARK  15 active torsions:
REMARK  status: ('A' for Active; 'I' for Inactive)
REMARK    1  A    between atoms: O1_2  and  C2_3
REMARK    2  A    between atoms: C2_3  and  C3_5
REMARK    3  A    between atoms: C5_8  and  C6_9
REMARK    4  A    between atoms: C6_9  and  O4_14
REMARK    5  A    between atoms: N1_10  and  O3_12
REMARK    6  A    between atoms: O4_14  and  C7_15
REMARK    7  A    between atoms: C10_20  and  C11_21
REMARK    8  A    between atoms: C12_22  and  C13_23
REMARK    9  A    between atoms: C14_24  and  O7_25
REMARK   10  A    between atoms: C16_28  and  O8_29
REMARK   11  A    between atoms: N2_31  and  O9_32
REMARK   12  A    between atoms: C17_34  and  O10_35
REMARK   13  A    between atoms: C20_40  and  O11_41
REMARK   14  A    between atoms: C23_45  and  C24_46
REMARK   15  A    between atoms: C24_46  and  C25_47
ROOT
HETATM    1  O11 UNL     1     -30.715  11.336 -11.306  1.00  0.00    -0.270 OA
HETATM    2  C21 UNL     1     -31.782  10.895 -11.941  1.00  0.00     0.229 C
HETATM    3  N4  UNL     1     -32.685  10.500 -12.513  1.00  0.00    -0.164 NA
ENDROOT
BRANCH   1   4
HETATM    4  C20 UNL     1     -30.421  12.253 -10.335  1.00  0.00     0.101 C
HETATM    5  C4  UNL     1     -31.616  12.748  -9.607  1.00  0.00     0.097 C
HETATM    6  S1  UNL     1     -32.054  14.443 -10.053  1.00  0.00    -0.145 SA
HETATM    7  C5  UNL     1     -30.942  12.548  -8.275  1.00  0.00     0.089 C
HETATM    8  C3  UNL     1     -31.430  14.554 -11.737  1.00  0.00     0.151 C
HETATM    9  C23 UNL     1     -29.956  14.334 -11.734  1.00  0.00     0.013 C
HETATM   10  C22 UNL     1     -29.456  13.306 -10.801  1.00  0.00     0.048 C
HETATM   11  C10 UNL     1     -29.954  11.676  -9.029  1.00  0.00     0.058 C
BRANCH   8  12
HETATM   12  C2  UNL     1     -31.884  15.700 -12.498  1.00  0.00     0.272 C
HETATM   13  O2  UNL     1     -32.595  16.593 -11.990  1.00  0.00    -0.264 OA
BRANCH  12  14
HETATM   14  O1  UNL     1     -31.527  15.818 -13.826  1.00  0.00    -0.326 OA
HETATM   15  C1  UNL     1     -31.132  17.041 -14.393  1.00  0.00     0.213 C
ENDBRANCH  12  14
ENDBRANCH   8  12
BRANCH   9  16
HETATM   16  C24 UNL     1     -29.218  15.639 -11.587  1.00  0.00     0.021 C
BRANCH  16  17
HETATM   17  C25 UNL     1     -28.072  15.869 -12.486  1.00  0.00     0.115 C
HETATM   18 CL1  UNL     1     -28.205  14.811 -13.942  1.00  0.00    -0.130 Cl
ENDBRANCH  16  17
ENDBRANCH   9  16
BRANCH   7  19
HETATM   19  C6  UNL     1     -30.488  13.712  -7.573  1.00  0.00     0.144 C
HETATM   20  N1  UNL     1     -31.047  14.257  -6.599  1.00  0.00    -0.251 N
ATOM     21  H1  UNL     1     -30.583  15.081  -6.216  1.00  0.00     0.196 HD
BRANCH  20  22
HETATM   22  O3  UNL     1     -32.189  13.884  -5.995  1.00  0.00    -0.288 OA
ATOM     23  H3  UNL     1     -32.320  13.146  -5.410  1.00  0.00     0.244 HD
ENDBRANCH  20  22
BRANCH  19  24
HETATM   24  O4  UNL     1     -29.292  14.309  -8.028  1.00  0.00    -0.320 OA
BRANCH  24  25
HETATM   25  C7  UNL     1     -28.018  13.923  -7.602  1.00  0.00     0.254 A
HETATM   26  C8  UNL     1     -26.990  15.008  -7.920  1.00  0.00     0.221 A
HETATM   27  O5  UNL     1     -26.723  14.978  -6.512  1.00  0.00    -0.316 OA
HETATM   28  C9  UNL     1     -27.704  14.063  -6.185  1.00  0.00     0.290 A
HETATM   29  O6  UNL     1     -28.119  13.581  -5.117  1.00  0.00    -0.262 OA
ENDBRANCH  24  25
ENDBRANCH  19  24
ENDBRANCH   7  19
BRANCH  11  30
HETATM   30  C11 UNL     1     -30.209  10.220  -8.795  1.00  0.00    -0.016 C
HETATM   31  C12 UNL     1     -29.227   9.408  -8.711  1.00  0.00     0.029 C
BRANCH  31  32
HETATM   32  C13 UNL     1     -29.275   7.976  -8.489  1.00  0.00     0.069 A
HETATM   33  C14 UNL     1     -29.316   6.919  -9.381  1.00  0.00     0.109 A
HETATM   34  C15 UNL     1     -29.347   5.725  -8.620  1.00  0.00     0.084 A
HETATM   35  C16 UNL     1     -29.389   4.355  -8.644  1.00  0.00     0.185 A
HETATM   36  C18 UNL     1     -29.324   6.076  -7.303  1.00  0.00     0.106 A
HETATM   37  N2  UNL     1     -29.392   3.876  -7.382  1.00  0.00    -0.176 N
HETATM   38  C17 UNL     1     -29.352   4.911  -6.545  1.00  0.00     0.198 A
HETATM   39  N3  UNL     1     -29.282   7.397  -7.246  1.00  0.00    -0.345 N
HETATM   40  C19 UNL     1     -29.246   8.176  -6.000  1.00  0.00     0.156 C
BRANCH  33  41
HETATM   41  O7  UNL     1     -29.329   6.905 -10.724  1.00  0.00    -0.357 OA
ATOM     42  H7  UNL     1     -29.073   6.229 -11.340  1.00  0.00     0.217 HD
ENDBRANCH  33  41
BRANCH  35  43
HETATM   43  O8  UNL     1     -29.423   3.565  -9.776  1.00  0.00    -0.344 OA
ATOM     44  H8  UNL     1     -28.773   2.918 -10.025  1.00  0.00     0.219 HD
ENDBRANCH  35  43
BRANCH  37  45
HETATM   45  O9  UNL     1     -29.428   2.532  -7.019  1.00  0.00    -0.279 OA
ATOM     46  H9  UNL     1     -29.215   2.182  -6.163  1.00  0.00     0.245 HD
ENDBRANCH  37  45
BRANCH  38  47
HETATM   47  O10 UNL     1     -29.340   4.884  -5.168  1.00  0.00    -0.343 OA
ATOM     48  H10 UNL     1     -30.066   4.703  -4.583  1.00  0.00     0.219 HD
ENDBRANCH  38  47
ENDBRANCH  31  32
ENDBRANCH  11  30
ENDBRANCH   1   4
TORSDOF 15
ENDMDL