MODEL 3
REMARK VINA RESULT: -9.099394694      1.781      2.171
REMARK  14 active torsions:
REMARK  status: ('A' for Active; 'I' for Inactive)
REMARK       I    between atoms: C1_2  and  N1_3
REMARK    1  A    between atoms: C1_2  and  C9_32
REMARK    2  A    between atoms: N1_3  and  O2_5
REMARK    3  A    between atoms: O2_5  and  S1_6
REMARK    4  A    between atoms: S1_6  and  C2_9
REMARK    5  A    between atoms: N3_12  and  C3_13
REMARK    6  A    between atoms: C3_13  and  O5_14
REMARK    7  A    between atoms: C3_13  and  O6_16
REMARK    8  A    between atoms: C4_18  and  N4_19
REMARK    9  A    between atoms: N4_19  and  N5_21
REMARK   10  A    between atoms: N5_21  and  C5_23
REMARK   11  A    between atoms: C5_23  and  S3_25
REMARK   12  A    between atoms: S3_25  and  S4_26
REMARK   13  A    between atoms: S4_26  and  C6_27
REMARK   14  A    between atoms: C13_37  and  N6_38
ROOT
HETATM    1  C2  UNL     1     -29.513   8.392  -8.469  1.00  0.00     0.218 A
HETATM    2  N2  UNL     1     -29.311   7.475  -9.367  1.00  0.00    -0.274 N
ATOM      3  H2  UNL     1     -29.154   7.753 -10.336  1.00  0.00     0.189 HD
HETATM    4  N3  UNL     1     -29.305   6.226  -9.064  1.00  0.00    -0.214 N
HETATM    5  C4  UNL     1     -29.514   5.895  -7.799  1.00  0.00     0.187 A
HETATM    6  S6  UNL     1     -29.717   7.446  -7.061  1.00  0.00    -0.017 SA
ENDROOT
BRANCH   1   7
HETATM    7  S1  UNL     1     -29.551  10.163  -8.633  1.00  0.00     0.342 S
HETATM    8  O3  UNL     1     -29.678  10.801  -7.298  1.00  0.00    -0.189 OA
HETATM    9  O4  UNL     1     -28.232  10.540  -9.241  1.00  0.00    -0.189 OA
BRANCH   7  10
HETATM   10  O2  UNL     1     -30.758  10.558  -9.694  1.00  0.00    -0.143 OA
BRANCH  10  11
HETATM   11  N1  UNL     1     -30.552  10.134 -10.956  1.00  0.00    -0.213 N
HETATM   12  C1  UNL     1     -31.545  10.441 -11.918  1.00  0.00     0.276 C
HETATM   13  O1  UNL     1     -32.582  11.102 -11.558  1.00  0.00    -0.265 OA
ATOM     14  H1  UNL     1     -29.713   9.612 -11.209  1.00  0.00     0.199 HD
BRANCH  12  15
HETATM   15  C9  UNL     1     -31.450  10.040 -13.318  1.00  0.00     0.038 A
HETATM   16  C10 UNL     1     -31.050   8.744 -13.643  1.00  0.00     0.041 A
HETATM   17  C11 UNL     1     -30.961   8.380 -14.966  1.00  0.00     0.037 A
HETATM   18 CL1  UNL     1     -30.460   6.753 -15.371  1.00  0.00    -0.084 Cl
HETATM   19  C12 UNL     1     -31.262   9.277 -15.984  1.00  0.00     0.059 A
HETATM   20  C13 UNL     1     -31.656  10.557 -15.685  1.00  0.00     0.105 A
HETATM   21  C14 UNL     1     -31.739  10.900 -14.344  1.00  0.00     0.053 A
BRANCH  20  22
HETATM   22  N6  UNL     1     -31.964  11.467 -16.722  1.00  0.00    -0.116 N
HETATM   23  O7  UNL     1     -32.298  11.039 -17.832  1.00  0.00    -0.532 OA
HETATM   24  O8  UNL     1     -31.899  12.820 -16.529  1.00  0.00    -0.532 OA
ENDBRANCH  20  22
ENDBRANCH  12  15
ENDBRANCH  10  11
ENDBRANCH   7  10
ENDBRANCH   1   7
BRANCH   4  25
HETATM   25  C3  UNL     1     -29.032   5.221 -10.124  1.00  0.00     0.390 C
BRANCH  25  26
HETATM   26  O5  UNL     1     -29.889   4.172 -10.056  1.00  0.00    -0.353 OA
ATOM     27  H5  UNL     1     -30.792   4.458  -9.976  1.00  0.00     0.214 HD
ENDBRANCH  25  26
BRANCH  25  28
HETATM   28  O6  UNL     1     -27.697   4.811  -9.912  1.00  0.00    -0.353 OA
ATOM     29  H6  UNL     1     -27.417   5.266  -9.126  1.00  0.00     0.214 HD
ENDBRANCH  25  28
ENDBRANCH   4  25
BRANCH   5  30
HETATM   30  N4  UNL     1     -29.590   4.728  -7.200  1.00  0.00    -0.277 N
ATOM     31  H4  UNL     1     -30.441   4.417  -6.732  1.00  0.00     0.189 HD
BRANCH  30  32
HETATM   32  N5  UNL     1     -28.432   3.933  -7.243  1.00  0.00    -0.282 N
ATOM     33  H5  UNL     1     -27.560   4.445  -7.375  1.00  0.00     0.188 HD
BRANCH  32  34
HETATM   34  C5  UNL     1     -28.296   2.554  -7.132  1.00  0.00     0.163 C
HETATM   35  S2  UNL     1     -28.084   1.901  -5.592  1.00  0.00    -0.050 SA
BRANCH  34  36
HETATM   36  S3  UNL     1     -28.312   1.336  -8.419  1.00  0.00    -0.026 SA
BRANCH  36  37
HETATM   37  S4  UNL     1     -28.570  -0.600  -7.625  1.00  0.00    -0.084 SA
BRANCH  37  38
HETATM   38  C6  UNL     1     -27.520  -1.789  -8.524  1.00  0.00     0.077 C
HETATM   39  C7  UNL     1     -26.576  -1.206  -9.524  1.00  0.00     0.090 C
HETATM   40  S5  UNL     1     -27.556  -1.710 -10.937  1.00  0.00    -0.167 SA
HETATM   41  C8  UNL     1     -28.276  -2.610  -9.529  1.00  0.00     0.090 C
ENDBRANCH  37  38
ENDBRANCH  36  37
ENDBRANCH  34  36
ENDBRANCH  32  34
ENDBRANCH  30  32
ENDBRANCH   5  30
TORSDOF 14
ENDMDL