MODEL 2
REMARK VINA RESULT: -9.415687961      1.611      1.772
REMARK  11 active torsions:
REMARK  status: ('A' for Active; 'I' for Inactive)
REMARK    1  A    between atoms: C6_10  and  S2_11
REMARK    2  A    between atoms: S2_11  and  S3_12
REMARK    3  A    between atoms: S3_12  and  C7_13
REMARK    4  A    between atoms: C8_14  and  C9_15
REMARK    5  A    between atoms: C9_15  and  C10_16
REMARK    6  A    between atoms: C10_16  and  O1_17
REMARK    7  A    between atoms: C10_16  and  N2_19
REMARK    8  A    between atoms: N2_19  and  C11_21
REMARK    9  A    between atoms: C12_26  and  S4_27
REMARK   10  A    between atoms: S4_27  and  C13_28
REMARK   11  A    between atoms: N10_45  and  N11_46
ROOT
HETATM    1  C7  UNL     1     -32.011  13.633  -9.965  1.00  0.00     0.098 A
HETATM    2  C8  UNL     1     -31.142  12.784  -9.267  1.00  0.00     0.049 A
HETATM    3  C15 UNL     1     -30.266  13.265  -8.308  1.00  0.00     0.258 A
HETATM    4  O2  UNL     1     -29.485  12.495  -7.684  1.00  0.00    -0.267 OA
HETATM    5  N8  UNL     1     -30.263  14.585  -8.051  1.00  0.00    -0.275 N
ATOM      6  H8  UNL     1     -29.633  14.976  -7.351  1.00  0.00     0.173 HD
HETATM    7  C16 UNL     1     -31.097  15.371  -8.724  1.00  0.00     0.329 A
HETATM    8  O3  UNL     1     -31.113  16.606  -8.500  1.00  0.00    -0.246 OA
HETATM    9  N9  UNL     1     -31.974  14.919  -9.677  1.00  0.00    -0.297 N
HETATM   10  C17 UNL     1     -32.857  15.878 -10.321  1.00  0.00     0.162 C
ENDROOT
BRANCH   2  11
HETATM   11  C9  UNL     1     -31.149  11.301  -9.462  1.00  0.00     0.101 C
BRANCH  11  12
HETATM   12  C10 UNL     1     -30.099  10.848 -10.416  1.00  0.00     0.224 C
BRANCH  12  13
HETATM   13  O1  UNL     1     -29.543  11.821 -11.202  1.00  0.00    -0.377 OA
ATOM     14  H1  UNL     1     -28.772  11.568 -11.696  1.00  0.00     0.212 HD
ENDBRANCH  12  13
BRANCH  12  15
HETATM   15  N2  UNL     1     -29.014  10.271  -9.630  1.00  0.00    -0.343 N
ATOM     16  H2  UNL     1     -28.115  10.747  -9.560  1.00  0.00     0.164 HD
BRANCH  15  17
HETATM   17  C11 UNL     1     -29.215   9.128  -9.012  1.00  0.00     0.163 A
HETATM   18  N3  UNL     1     -29.210   7.905  -9.552  1.00  0.00    -0.278 N
HETATM   19  N4  UNL     1     -29.428   6.910  -8.795  1.00  0.00    -0.286 N
ATOM     20  H3  UNL     1     -29.036   7.775 -10.548  1.00  0.00     0.189 HD
HETATM   21  C12 UNL     1     -29.652   7.088  -7.502  1.00  0.00     0.137 A
ATOM     22  H4  UNL     1     -29.431   5.967  -9.185  1.00  0.00     0.188 HD
HETATM   23  S5  UNL     1     -29.545   8.788  -7.369  1.00  0.00    -0.026 SA
BRANCH  21  24
HETATM   24  S4  UNL     1     -30.006   5.839  -6.238  1.00  0.00    -0.026 SA
BRANCH  24  25
HETATM   25  C13 UNL     1     -29.280   4.315  -6.850  1.00  0.00     0.166 A
HETATM   26  N5  UNL     1     -28.602   3.424  -6.114  1.00  0.00    -0.331 N
HETATM   27  C14 UNL     1     -28.217   2.425  -6.935  1.00  0.00     0.199 A
ATOM     28  H5  UNL     1     -28.411   3.491  -5.115  1.00  0.00     0.168 HD
HETATM   29  N6  UNL     1     -28.653   2.687  -8.178  1.00  0.00    -0.294 N
HETATM   30  N7  UNL     1     -29.310   3.854  -8.127  1.00  0.00    -0.279 N
ATOM     31  H6  UNL     1     -28.512   2.107  -9.005  1.00  0.00     0.187 HD
ATOM     32  H7  UNL     1     -29.758   4.320  -8.917  1.00  0.00     0.189 HD
ENDBRANCH  24  25
ENDBRANCH  21  24
ENDBRANCH  15  17
ENDBRANCH  12  15
ENDBRANCH  11  12
ENDBRANCH   2  11
BRANCH   1  33
HETATM   33  S3  UNL     1     -33.015  12.834 -11.194  1.00  0.00    -0.030 SA
BRANCH  33  34
HETATM   34  S2  UNL     1     -32.263  13.309 -13.101  1.00  0.00    -0.013 SA
BRANCH  34  35
HETATM   35  C6  UNL     1     -31.870  11.854 -14.020  1.00  0.00     0.178 A
HETATM   36  N1  UNL     1     -31.507  10.703 -13.371  1.00  0.00    -0.332 N
HETATM   37  C5  UNL     1     -31.342   9.688 -14.276  1.00  0.00     0.078 A
ATOM     38  H1  UNL     1     -31.377  10.615 -12.363  1.00  0.00     0.168 HD
HETATM   39  C2  UNL     1     -31.002   8.374 -14.261  1.00  0.00    -0.004 A
HETATM   40  C4  UNL     1     -31.614  10.247 -15.487  1.00  0.00     0.128 A
HETATM   41  C1  UNL     1     -30.663   7.583 -13.002  1.00  0.00     0.053 C
HETATM   42  C3  UNL     1     -30.964   7.727 -15.466  1.00  0.00     0.085 A
HETATM   43 CL1  UNL     1     -30.562   6.030 -15.781  1.00  0.00    -0.076 Cl
HETATM   44  S1  UNL     1     -31.397   8.953 -16.569  1.00  0.00    -0.055 SA
HETATM   45  N10 UNL     1     -31.936  11.567 -15.324  1.00  0.00    -0.231 N
BRANCH  45  46
HETATM   46  N11 UNL     1     -32.324  12.391 -16.369  1.00  0.00    -0.336 N
ATOM     47 2H11 UNL     1     -32.617  12.127 -17.310  1.00  0.00     0.177 HD
ATOM     48 1H11 UNL     1     -32.305  13.409 -16.317  1.00  0.00     0.177 HD
ENDBRANCH  45  46
ENDBRANCH  34  35
ENDBRANCH  33  34
ENDBRANCH   1  33
TORSDOF 11
ENDMDL