MODEL 3
REMARK VINA RESULT: -6.816511086      1.259      1.894
REMARK  3 active torsions:
REMARK  status: ('A' for Active; 'I' for Inactive)
REMARK       I    between atoms: C1_2  and  N1_3
REMARK    1  A    between atoms: C1_2  and  C8_12
REMARK    2  A    between atoms: N1_3  and  C2_5
REMARK    3  A    between atoms: C2_5  and  C3_6
ROOT
HETATM    1  O1  UNL     1      -6.072   2.979  12.884  1.00  0.00    -0.273 OA
HETATM    2  C1  UNL     1      -5.030   3.326  13.460  1.00  0.00     0.221 C
HETATM    3  N1  UNL     1      -4.978   3.772  14.773  1.00  0.00    -0.360 N
ATOM      4  H1  UNL     1      -4.045   4.004  15.114  1.00  0.00     0.162 HD
ENDROOT
BRANCH   2   5
HETATM    5  C8  UNL     1      -3.771   3.233  12.620  1.00  0.00     0.079 C
HETATM    6  C9  UNL     1      -3.443   1.800  12.433  1.00  0.00     0.029 C
HETATM    7  C10 UNL     1      -2.993   1.456  11.008  1.00  0.00     0.141 C
HETATM    8  S1  UNL     1      -1.827   2.757  10.583  1.00  0.00     0.144 S
HETATM    9  O3  UNL     1      -0.874   2.889  11.713  1.00  0.00    -0.228 OA
HETATM   10  O4  UNL     1      -1.179   2.493   9.270  1.00  0.00    -0.228 OA
HETATM   11  C11 UNL     1      -2.827   4.250  10.528  1.00  0.00     0.141 C
HETATM   12  C12 UNL     1      -4.073   3.961  11.334  1.00  0.00     0.029 C
ENDBRANCH   2   5
BRANCH   3  13
HETATM   13  C2  UNL     1      -6.018   3.952  15.711  1.00  0.00     0.127 C
BRANCH  13  14
HETATM   14  C3  UNL     1      -6.327   2.902  16.697  1.00  0.00     0.007 C
HETATM   15  C4  UNL     1      -5.023   2.087  16.881  1.00  0.00     0.032 C
HETATM   16  C5  UNL     1      -5.156   0.739  16.241  1.00  0.00     0.168 C
HETATM   17  O2  UNL     1      -6.067  -0.028  16.979  1.00  0.00    -0.391 OA
HETATM   18  C6  UNL     1      -7.144   0.742  17.408  1.00  0.00     0.168 C
HETATM   19  C7  UNL     1      -7.383   1.903  16.406  1.00  0.00     0.032 C
ENDBRANCH  13  14
ENDBRANCH   3  13
TORSDOF 3
ENDMDL