MODEL 5
REMARK VINA RESULT: -6.565470291      4.235      5.214
REMARK  4 active torsions:
REMARK  status: ('A' for Active; 'I' for Inactive)
REMARK    1  A    between atoms: C1_2  and  C2_3
REMARK       I    between atoms: C1_2  and  N2_10
REMARK    2  A    between atoms: C2_3  and  N1_4
REMARK    3  A    between atoms: N2_10  and  C8_12
REMARK    4  A    between atoms: C10_16  and  N4_17
ROOT
HETATM    1  O1  UNL     1      -3.992   3.817   9.550  1.00  0.00    -0.271 OA
HETATM    2  C1  UNL     1      -4.140   4.753  10.402  1.00  0.00     0.241 C
HETATM    3  N2  UNL     1      -4.335   4.548  11.746  1.00  0.00    -0.306 N
ATOM      4  H2  UNL     1      -4.528   5.375  12.310  1.00  0.00     0.171 HD
ENDROOT
BRANCH   3   5
HETATM    5  C8  UNL     1      -4.300   3.401  12.382  1.00  0.00     0.153 A
HETATM    6  N3  UNL     1      -4.454   2.160  11.952  1.00  0.00    -0.344 N
HETATM    7  C9  UNL     1      -4.416   1.170  12.825  1.00  0.00     0.134 A
ATOM      8  H3  UNL     1      -4.600   1.969  10.960  1.00  0.00     0.167 HD
HETATM    9  C10 UNL     1      -4.214   1.490  14.132  1.00  0.00     0.162 A
HETATM   10  S1  UNL     1      -4.084   3.184  14.088  1.00  0.00    -0.028 SA
BRANCH   9  11
HETATM   11  N4  UNL     1      -4.141   0.598  15.269  1.00  0.00    -0.107 N
HETATM   12  O2  UNL     1      -4.838  -0.440  15.219  1.00  0.00    -0.531 OA
HETATM   13  O3  UNL     1      -3.337   0.934  16.300  1.00  0.00    -0.531 OA
ENDBRANCH   9  11
ENDBRANCH   3   5
BRANCH   2  14
HETATM   14  C2  UNL     1      -4.097   6.151   9.847  1.00  0.00     0.230 C
BRANCH  14  15
HETATM   15  N1  UNL     1      -5.425   6.714   9.734  1.00  0.00    -0.358 N
HETATM   16  C3  UNL     1      -6.109   6.637   8.573  1.00  0.00     0.091 A
HETATM   17  C4  UNL     1      -7.373   7.139   8.408  1.00  0.00     0.017 A
HETATM   18  C5  UNL     1      -7.941   7.743   9.510  1.00  0.00     0.003 A
HETATM   19  C6  UNL     1      -7.259   7.832  10.709  1.00  0.00     0.017 A
HETATM   20  C7  UNL     1      -5.988   7.304  10.794  1.00  0.00     0.091 A
ENDBRANCH  14  15
ENDBRANCH   2  14
TORSDOF 4
ENDMDL