MODEL 4
REMARK VINA RESULT: -6.755360419      3.909      6.861
REMARK  4 active torsions:
REMARK  status: ('A' for Active; 'I' for Inactive)
REMARK       I    between atoms: C1_2  and  N1_3
REMARK    1  A    between atoms: C1_2  and  C6_9
REMARK    2  A    between atoms: C6_9  and  O3_10
REMARK    3  A    between atoms: N2_14  and  C9_15
REMARK    4  A    between atoms: C9_15  and  C10_16
ROOT
HETATM    1  C6  UNL     1      -3.872   3.850  14.384  1.00  0.00     0.141 C
HETATM    2  C7  UNL     1      -4.242   5.215  14.864  1.00  0.00     0.078 C
HETATM    3  C8  UNL     1      -3.516   6.349  14.271  1.00  0.00     0.276 C
HETATM    4  N2  UNL     1      -2.208   6.085  13.769  1.00  0.00     0.089 N
HETATM    5  C13 UNL     1      -1.689   4.925  14.436  1.00  0.00     0.276 C
HETATM    6  C14 UNL     1      -2.473   3.753  13.832  1.00  0.00     0.078 C
ENDROOT
BRANCH   1   7
HETATM    7  C1  UNL     1      -3.956   2.857  15.473  1.00  0.00     0.254 C
HETATM    8  O1  UNL     1      -2.826   2.359  15.868  1.00  0.00    -0.270 OA
HETATM    9  N1  UNL     1      -5.075   2.377  16.139  1.00  0.00    -0.345 N
HETATM   10  C2  UNL     1      -6.410   2.822  15.829  1.00  0.00     0.152 C
HETATM   11  C5  UNL     1      -4.974   1.382  17.207  1.00  0.00     0.152 C
HETATM   12  C3  UNL     1      -7.362   2.042  16.747  1.00  0.00     0.187 C
HETATM   13  O2  UNL     1      -7.192   0.684  16.619  1.00  0.00    -0.388 OA
HETATM   14  C4  UNL     1      -5.899   0.249  16.871  1.00  0.00     0.187 C
ENDBRANCH   1   7
BRANCH   1  15
HETATM   15  O3  UNL     1      -4.737   3.493  13.366  1.00  0.00    -0.380 OA
ATOM     16  H3  UNL     1      -4.725   2.550  13.254  1.00  0.00     0.211 HD
ENDBRANCH   1  15
BRANCH   4  17
HETATM   17  C9  UNL     1      -1.374   7.233  13.823  1.00  0.00     0.277 C
BRANCH  17  18
HETATM   18  C10 UNL     1      -1.934   8.185  14.865  1.00  0.00     0.014 A
HETATM   19  C11 UNL     1      -1.021   8.828  15.844  1.00  0.00     0.007 A
HETATM   20  C12 UNL     1      -1.653   9.645  14.745  1.00  0.00     0.007 A
ENDBRANCH  17  18
ENDBRANCH   4  17
TORSDOF 4
ENDMDL