MODEL 1
REMARK VINA RESULT: -6.864579693      0.000      0.000
REMARK  4 active torsions:
REMARK  status: ('A' for Active; 'I' for Inactive)
REMARK    1  A    between atoms: C4_5  and  O1_6
REMARK       I    between atoms: N2_9  and  C6_10
REMARK    2  A    between atoms: C6_10  and  C7_12
REMARK    3  A    between atoms: N3_16  and  C11_17
REMARK    4  A    between atoms: C11_17  and  C12_18
ROOT
HETATM    1  N1  UNL     1      -4.536  -0.042  14.017  1.00  0.00    -0.195 NA
HETATM    2  C1  UNL     1      -4.436   0.741  13.158  1.00  0.00     0.085 C
HETATM    3  C2  UNL     1      -4.321   1.747  12.082  1.00  0.00     0.197 C
HETATM    4  C3  UNL     1      -4.799   1.123  10.761  1.00  0.00     0.074 C
HETATM    5  C4  UNL     1      -3.840  -0.075  10.710  1.00  0.00     0.139 C
HETATM    6  C5  UNL     1      -2.576   0.453  11.399  1.00  0.00     0.159 C
HETATM    7  N2  UNL     1      -2.907   1.825  11.795  1.00  0.00    -0.332 N
HETATM    8  C6  UNL     1      -2.074   2.949  11.875  1.00  0.00     0.230 C
HETATM    9  O2  UNL     1      -0.828   2.884  11.626  1.00  0.00    -0.273 OA
ENDROOT
BRANCH   5  10
HETATM   10  O1  UNL     1      -3.597  -0.469   9.412  1.00  0.00    -0.394 OA
ATOM     11  H1  UNL     1      -4.107  -1.236   9.182  1.00  0.00     0.210 HD
ENDBRANCH   5  10
BRANCH   8  12
HETATM   12  C7  UNL     1      -2.617   4.259  12.249  1.00  0.00     0.117 C
HETATM   13  C8  UNL     1      -1.843   5.416  11.702  1.00  0.00     0.024 C
HETATM   14  C9  UNL     1      -2.477   6.715  12.115  1.00  0.00     0.046 C
HETATM   15  C10 UNL     1      -2.933   6.736  13.541  1.00  0.00     0.063 C
HETATM   16  N3  UNL     1      -3.301   5.539  14.135  1.00  0.00    -0.373 N
HETATM   17  C15 UNL     1      -2.697   4.325  13.761  1.00  0.00     0.077 C
BRANCH  16  18
HETATM   18  C11 UNL     1      -4.388   5.505  15.021  1.00  0.00     0.131 C
BRANCH  18  19
HETATM   19  C12 UNL     1      -5.122   4.163  14.955  1.00  0.00     0.004 A
HETATM   20  C13 UNL     1      -6.461   4.128  14.250  1.00  0.00     0.007 A
HETATM   21  C14 UNL     1      -6.405   4.071  15.727  1.00  0.00     0.007 A
ENDBRANCH  18  19
ENDBRANCH  16  18
ENDBRANCH   8  12
TORSDOF 4
ENDMDL