MODEL 3
REMARK VINA RESULT: -7.419628112      2.572      6.191
REMARK  3 active torsions:
REMARK  status: ('A' for Active; 'I' for Inactive)
REMARK       I    between atoms: C1_2  and  N1_3
REMARK    1  A    between atoms: C1_2  and  C7_14
REMARK    2  A    between atoms: N1_3  and  C2_5
REMARK    3  A    between atoms: C2_5  and  C3_6
ROOT
HETATM    1  O1  UNL     1      -3.165   3.194  14.733  1.00  0.00    -0.273 OA
HETATM    2  C1  UNL     1      -4.401   2.975  14.672  1.00  0.00     0.221 C
HETATM    3  N1  UNL     1      -5.041   3.090  13.413  1.00  0.00    -0.359 N
ATOM      4  H1  UNL     1      -6.044   2.916  13.353  1.00  0.00     0.162 HD
ENDROOT
BRANCH   3   5
HETATM    5  C2  UNL     1      -4.333   3.441  12.230  1.00  0.00     0.144 C
BRANCH   5   6
HETATM    6  C3  UNL     1      -4.090   2.312  11.287  1.00  0.00     0.150 C
HETATM    7  C4  UNL     1      -4.700   1.003  11.775  1.00  0.00     0.189 C
HETATM    8  O2  UNL     1      -4.713   0.039  10.809  1.00  0.00    -0.389 OA
HETATM    9  C5  UNL     1      -3.530  -0.286  10.231  1.00  0.00     0.182 C
HETATM   10  C6  UNL     1      -2.296   0.170  10.938  1.00  0.00     0.167 C
HETATM   11  S1  UNL     1      -2.385   1.971  11.002  1.00  0.00     0.154 S
HETATM   12  O3  UNL     1      -1.940   2.452   9.653  1.00  0.00    -0.227 OA
HETATM   13  O4  UNL     1      -1.486   2.411  12.090  1.00  0.00    -0.227 OA
ENDBRANCH   5   6
ENDBRANCH   3   5
BRANCH   2  14
HETATM   14  C7  UNL     1      -5.118   2.612  15.916  1.00  0.00     0.078 C
HETATM   15  C8  UNL     1      -6.445   3.294  16.041  1.00  0.00     0.014 C
HETATM   16  C9  UNL     1      -6.927   3.128  17.465  1.00  0.00     0.001 C
HETATM   17  C10 UNL     1      -6.138   2.110  18.228  1.00  0.00     0.000 C
HETATM   18  C11 UNL     1      -5.864   0.859  17.440  1.00  0.00     0.001 C
HETATM   19  C12 UNL     1      -5.329   1.134  16.057  1.00  0.00     0.014 C
ENDBRANCH   2  14
TORSDOF 3
ENDMDL