MODEL 5
REMARK VINA RESULT: -5.983380395      2.129      4.542
REMARK  4 active torsions:
REMARK  status: ('A' for Active; 'I' for Inactive)
REMARK    1  A    between atoms: C2_2  and  C3_3
REMARK       I    between atoms: C3_3  and  N1_5
REMARK    2  A    between atoms: N1_5  and  C5_7
REMARK    3  A    between atoms: C9_14  and  O4_15
REMARK    4  A    between atoms: C9_14  and  C10_17
ROOT
HETATM    1  C5  UNL     1      -3.931   2.751  13.243  1.00  0.00     0.140 C
HETATM    2  C6  UNL     1      -4.611   2.297  11.943  1.00  0.00     0.130 C
HETATM    3  C7  UNL     1      -4.741   0.813  11.882  1.00  0.00     0.028 C
HETATM    4  S1  UNL     1      -3.375   2.892  10.774  1.00  0.00     0.153 S
HETATM    5  O2  UNL     1      -3.989   3.632   9.640  1.00  0.00    -0.227 OA
HETATM    6  O3  UNL     1      -2.509   1.757  10.323  1.00  0.00    -0.227 OA
HETATM    7  C8  UNL     1      -2.525   4.002  11.861  1.00  0.00     0.181 C
HETATM    8  C9  UNL     1      -3.591   4.149  13.011  1.00  0.00     0.095 C
ENDROOT
BRANCH   1   9
HETATM    9  N1  UNL     1      -4.597   2.292  14.389  1.00  0.00    -0.347 N
HETATM   10  C3  UNL     1      -5.737   2.764  15.053  1.00  0.00     0.219 C
HETATM   11  O1  UNL     1      -6.089   2.163  16.108  1.00  0.00    -0.273 OA
HETATM   12  C4  UNL     1      -3.992   1.086  15.043  1.00  0.00     0.153 C
BRANCH  10  13
HETATM   13  C2  UNL     1      -6.593   3.895  14.658  1.00  0.00     0.098 C
HETATM   14  C1  UNL     1      -6.279   5.129  15.535  1.00  0.00     0.014 C
ENDBRANCH  10  13
ENDBRANCH   1   9
BRANCH   8  15
HETATM   15  O4  UNL     1      -4.631   4.831  12.351  1.00  0.00    -0.386 OA
ATOM     16  H4  UNL     1      -5.462   4.384  12.456  1.00  0.00     0.210 HD
ENDBRANCH   8  15
BRANCH   8  17
HETATM   17  C10 UNL     1      -2.943   4.974  14.036  1.00  0.00     0.015 C
HETATM   18  C11 UNL     1      -1.482   4.754  14.301  1.00  0.00     0.012 C
HETATM   19  C12 UNL     1      -3.225   6.467  13.891  1.00  0.00     0.012 C
ENDBRANCH   8  17
TORSDOF 4
ENDMDL