MODEL 1
REMARK VINA RESULT: -7.205504664      0.000      0.000
REMARK  3 active torsions:
REMARK  status: ('A' for Active; 'I' for Inactive)
REMARK       I    between atoms: C1_2  and  N1_3
REMARK    1  A    between atoms: C1_2  and  C7_11
REMARK    2  A    between atoms: N1_3  and  C2_5
REMARK    3  A    between atoms: C10_15  and  N2_16
ROOT
HETATM    1  C7  UNL     1      -3.267   3.307  12.637  1.00  0.00     0.137 C
HETATM    2  C8  UNL     1      -2.209   4.397  12.524  1.00  0.00     0.184 C
HETATM    3  O3  UNL     1      -1.010   3.766  12.296  1.00  0.00    -0.388 OA
HETATM    4  C9  UNL     1      -1.346   2.756  11.394  1.00  0.00     0.204 C
HETATM    5  C10 UNL     1      -2.558   2.120  12.040  1.00  0.00     0.261 C
ENDROOT
BRANCH   1   6
HETATM    6  C1  UNL     1      -3.601   3.126  14.065  1.00  0.00     0.226 C
HETATM    7  O1  UNL     1      -2.832   3.568  14.948  1.00  0.00    -0.273 OA
HETATM    8  N1  UNL     1      -4.776   2.460  14.438  1.00  0.00    -0.356 N
ATOM      9  H1  UNL     1      -5.384   2.110  13.698  1.00  0.00     0.162 HD
BRANCH   8  10
HETATM   10  C2  UNL     1      -5.178   2.240  15.818  1.00  0.00     0.088 C
HETATM   11  C3  UNL     1      -5.105   0.745  16.059  1.00  0.00     0.051 C
HETATM   12  C4  UNL     1      -5.862   0.402  17.324  1.00  0.00     0.169 C
HETATM   13  O2  UNL     1      -7.194   0.724  17.114  1.00  0.00    -0.391 OA
HETATM   14  C5  UNL     1      -7.337   2.096  17.085  1.00  0.00     0.169 C
HETATM   15  C6  UNL     1      -6.603   2.732  15.932  1.00  0.00     0.051 C
ENDBRANCH   8  10
ENDBRANCH   1   6
BRANCH   5  16
HETATM   16  N2  UNL     1      -3.322   1.461  11.018  1.00  0.00     0.096 N
HETATM   17  C11 UNL     1      -4.600   0.978  11.491  1.00  0.00     0.273 C
HETATM   18  C12 UNL     1      -4.291  -0.412  12.036  1.00  0.00     0.032 C
HETATM   19  C13 UNL     1      -3.327  -0.929  10.990  1.00  0.00     0.032 C
HETATM   20  C14 UNL     1      -2.586   0.301  10.573  1.00  0.00     0.273 C
ENDBRANCH   5  16
TORSDOF 3
ENDMDL