MODEL 1
REMARK VINA RESULT: -6.666552452      0.000      0.000
REMARK  3 active torsions:
REMARK  status: ('A' for Active; 'I' for Inactive)
REMARK    1  A    between atoms: N1_3  and  C3_4
REMARK    2  A    between atoms: N3_14  and  C10_15
REMARK    3  A    between atoms: C10_15  and  C11_16
ROOT
HETATM    1  C3  UNL     1      -5.257   2.999  14.203  1.00  0.00     0.320 C
HETATM    2  C4  UNL     1      -4.992   4.479  14.371  1.00  0.00     0.064 C
HETATM    3  C5  UNL     1      -3.551   4.738  14.688  1.00  0.00     0.022 C
HETATM    4  C6  UNL     1      -3.325   6.214  14.878  1.00  0.00     0.237 C
HETATM    5  N2  UNL     1      -2.522   6.672  13.767  1.00  0.00    -0.074 N
ATOM      6  H21 UNL     1      -1.541   6.814  14.009  1.00  0.00     0.277 HD
ATOM      7  H22 UNL     1      -2.725   7.633  13.492  1.00  0.00     0.277 HD
HETATM    8  C7  UNL     1      -2.715   5.718  12.699  1.00  0.00     0.239 C
HETATM    9  C8  UNL     1      -2.766   4.404  13.446  1.00  0.00     0.045 C
HETATM   10  C9  UNL     1      -3.539   3.423  12.592  1.00  0.00     0.281 C
HETATM   11  N3  UNL     1      -4.221   2.409  13.389  1.00  0.00     0.112 N
ENDROOT
BRANCH   1  12
HETATM   12  N1  UNL     1      -5.300   2.446  15.532  1.00  0.00    -0.380 N
HETATM   13  C2  UNL     1      -4.689   1.192  15.741  1.00  0.00     0.145 C
HETATM   14  C1  UNL     1      -5.454   0.478  16.867  1.00  0.00     0.187 C
HETATM   15  O1  UNL     1      -5.603   1.279  17.978  1.00  0.00    -0.388 OA
HETATM   16  C15 UNL     1      -6.265   2.474  17.713  1.00  0.00     0.187 C
HETATM   17  C14 UNL     1      -6.537   2.612  16.213  1.00  0.00     0.145 C
ENDBRANCH   1  12
BRANCH  11  18
HETATM   18  C10 UNL     1      -4.760   1.451  12.431  1.00  0.00     0.279 C
BRANCH  18  19
HETATM   19  C11 UNL     1      -3.681   0.531  11.892  1.00  0.00     0.014 A
HETATM   20  C12 UNL     1      -4.110  -0.923  11.822  1.00  0.00     0.007 A
HETATM   21  C13 UNL     1      -3.864  -0.174  10.583  1.00  0.00     0.007 A
ENDBRANCH  18  19
ENDBRANCH  11  18
TORSDOF 3
ENDMDL