MODEL 4
REMARK VINA RESULT: -7.349668405      1.069      1.578
REMARK  4 active torsions:
REMARK  status: ('A' for Active; 'I' for Inactive)
REMARK    1  A    between atoms: C1_2  and  C2_3
REMARK       I    between atoms: C1_2  and  N2_16
REMARK    2  A    between atoms: C2_3  and  C3_4
REMARK    3  A    between atoms: C3_4  and  N1_5
REMARK    4  A    between atoms: C9_12  and  O3_13
ROOT
HETATM    1  N1  UNL     1      -2.844   3.651  12.799  1.00  0.00     0.098 N
HETATM    2  C4  UNL     1      -4.181   3.998  12.420  1.00  0.00     0.280 C
HETATM    3  C5  UNL     1      -4.364   3.677  10.963  1.00  0.00     0.040 C
HETATM    4  C6  UNL     1      -4.920   2.250  10.899  1.00  0.00     0.174 C
HETATM    5  O2  UNL     1      -4.747   1.601  12.087  1.00  0.00    -0.388 OA
HETATM    6  C7  UNL     1      -3.469   1.296  12.433  1.00  0.00     0.206 C
HETATM    7  C8  UNL     1      -2.466   2.400  12.252  1.00  0.00     0.275 C
HETATM    8  C9  UNL     1      -2.141   2.619  10.770  1.00  0.00     0.154 C
HETATM    9  C10 UNL     1      -3.059   3.665  10.220  1.00  0.00     0.042 C
ENDROOT
BRANCH   1  10
HETATM   10  C3  UNL     1      -2.555   3.887  14.168  1.00  0.00     0.282 C
BRANCH  10  11
HETATM   11  C2  UNL     1      -3.717   3.961  15.087  1.00  0.00     0.133 C
BRANCH  11  12
HETATM   12  C1  UNL     1      -3.856   2.625  15.770  1.00  0.00     0.221 C
HETATM   13  O1  UNL     1      -2.847   1.964  16.103  1.00  0.00    -0.273 OA
HETATM   14  N2  UNL     1      -5.141   2.100  16.045  1.00  0.00    -0.352 N
HETATM   15  C11 UNL     1      -6.402   2.744  15.720  1.00  0.00     0.126 C
HETATM   16  C14 UNL     1      -5.424   0.841  16.688  1.00  0.00     0.126 C
HETATM   17  C12 UNL     1      -7.287   2.324  16.874  1.00  0.00     0.021 C
HETATM   18  C13 UNL     1      -6.880   0.906  17.109  1.00  0.00     0.021 C
ENDBRANCH  11  12
ENDBRANCH  10  11
ENDBRANCH   1  10
BRANCH   8  19
HETATM   19  O3  UNL     1      -2.124   1.443  10.061  1.00  0.00    -0.393 OA
ATOM     20  H3  UNL     1      -2.096   1.589   9.123  1.00  0.00     0.210 HD
ENDBRANCH   8  19
TORSDOF 4
ENDMDL