MODEL 4
REMARK VINA RESULT: -6.295753041      1.249      1.436
REMARK  3 active torsions:
REMARK  status: ('A' for Active; 'I' for Inactive)
REMARK    1  A    between atoms: C2_2  and  N1_3
REMARK    2  A    between atoms: C9_13  and  C10_14
REMARK    3  A    between atoms: C10_14  and  N3_15
ROOT
HETATM    1  N1  UNL     1      -6.358   2.853  15.482  1.00  0.00    -0.412 N
HETATM    2  C3  UNL     1      -5.243   1.994  15.311  1.00  0.00     0.123 C
HETATM    3  C4  UNL     1      -4.100   2.545  14.532  1.00  0.00     0.035 C
HETATM    4  C5  UNL     1      -3.283   3.447  15.397  1.00  0.00     0.239 C
HETATM    5  N2  UNL     1      -3.347   4.828  14.987  1.00  0.00    -0.074 N
ATOM      6  H21 UNL     1      -2.758   4.989  14.171  1.00  0.00     0.277 HD
ATOM      7  H22 UNL     1      -2.872   5.426  15.662  1.00  0.00     0.277 HD
HETATM    8  C6  UNL     1      -4.696   5.302  14.745  1.00  0.00     0.239 C
HETATM    9  C7  UNL     1      -5.474   4.424  13.812  1.00  0.00     0.035 C
HETATM   10  C8  UNL     1      -6.642   3.753  14.427  1.00  0.00     0.123 C
HETATM   11  C9  UNL     1      -4.505   3.352  13.314  1.00  0.00     0.028 C
ENDROOT
BRANCH  11  12
HETATM   12  C10 UNL     1      -5.082   2.516  12.236  1.00  0.00     0.278 C
BRANCH  12  13
HETATM   13  N3  UNL     1      -4.232   2.509  11.055  1.00  0.00     0.090 N
HETATM   14  C11 UNL     1      -3.069   3.377  11.284  1.00  0.00     0.274 C
HETATM   15  C12 UNL     1      -1.990   3.056  10.313  1.00  0.00     0.056 C
HETATM   16  C13 UNL     1      -0.920   2.133  10.859  1.00  0.00     0.169 C
HETATM   17  O1  UNL     1      -1.396   0.839  10.811  1.00  0.00    -0.389 OA
HETATM   18  C14 UNL     1      -2.566   0.791  11.571  1.00  0.00     0.198 C
HETATM   19  C15 UNL     1      -3.764   1.166  10.737  1.00  0.00     0.298 C
ENDBRANCH  12  13
ENDBRANCH  11  12
BRANCH   1  20
HETATM   20  C2  UNL     1      -6.618   3.335  16.790  1.00  0.00     0.112 C
HETATM   21  C1  UNL     1      -6.224   2.353  17.887  1.00  0.00     0.026 C
ENDBRANCH   1  20
TORSDOF 3
ENDMDL