MODEL 1
REMARK VINA RESULT: -6.181609133      0.000      0.000
REMARK  10 active torsions:
REMARK  status: ('A' for Active; 'I' for Inactive)
REMARK    1  A    between atoms: C2_3  and  N2_4
REMARK    2  A    between atoms: N2_4  and  C3_6
REMARK    3  A    between atoms: C4_9  and  N4_10
REMARK    4  A    between atoms: N4_10  and  C5_11
REMARK    5  A    between atoms: N4_10  and  C7_15
REMARK    6  A    between atoms: C5_11  and  C6_12
REMARK    7  A    between atoms: C6_12  and  O1_13
REMARK    8  A    between atoms: C7_15  and  C8_16
REMARK    9  A    between atoms: C8_16  and  O2_17
REMARK   10  A    between atoms: C10_20  and  N5_21
ROOT
HETATM    1  N1  UNL     1      -8.283   2.904   0.455  1.00  0.00    -0.191 NA
HETATM    2  C1  UNL     1      -8.563   3.351  -0.564  1.00  0.00     0.105 C
HETATM    3  C2  UNL     1      -8.915   3.943  -1.837  1.00  0.00     0.200 C
ENDROOT
BRANCH   3   4
HETATM    4  N2  UNL     1      -8.759   3.103  -2.971  1.00  0.00    -0.192 N
ATOM      5  H2  UNL     1      -8.583   3.569  -3.861  1.00  0.00     0.184 HD
BRANCH   4   6
HETATM    6  C3  UNL     1      -8.816   1.817  -3.000  1.00  0.00     0.695 A
HETATM    7  N3  UNL     1      -9.824   0.986  -2.725  1.00  0.00    -0.173 N
HETATM    8  C4  UNL     1      -9.464  -0.312  -2.857  1.00  0.00     0.151 A
ATOM      9  H3  UNL     1     -10.756   1.294  -2.448  1.00  0.00     0.186 HD
HETATM   10  C9  UNL     1      -8.124  -0.254  -3.243  1.00  0.00     0.151 A
HETATM   11  C10 UNL     1      -7.232  -1.262  -3.525  1.00  0.00     0.146 A
HETATM   12  N8  UNL     1      -7.774   1.041  -3.319  1.00  0.00    -0.087 N
HETATM   13  N6  UNL     1      -5.985  -0.911  -3.883  1.00  0.00    -0.280 N
HETATM   14  N7  UNL     1      -5.617   0.374  -3.965  1.00  0.00    -0.249 N
ATOM     15  H6  UNL     1      -5.304  -1.640  -4.097  1.00  0.00     0.188 HD
HETATM   16  C11 UNL     1      -6.493   1.337  -3.687  1.00  0.00     0.360 A
ATOM     17  H7  UNL     1      -4.665   0.614  -4.241  1.00  0.00     0.192 HD
HETATM   18  O3  UNL     1      -6.150   2.534  -3.763  1.00  0.00    -0.244 OA
BRANCH   8  19
HETATM   19  N4  UNL     1     -10.257  -1.476  -2.682  1.00  0.00    -0.361 N
BRANCH  19  20
HETATM   20  C5  UNL     1     -10.423  -2.033  -1.370  1.00  0.00     0.150 C
BRANCH  20  21
HETATM   21  C6  UNL     1     -11.869  -2.380  -1.153  1.00  0.00     0.183 C
BRANCH  21  22
HETATM   22  O1  UNL     1     -12.053  -3.754  -0.957  1.00  0.00    -0.399 OA
ATOM     23  H1  UNL     1     -11.494  -4.092  -0.268  1.00  0.00     0.209 HD
ENDBRANCH  21  22
ENDBRANCH  20  21
ENDBRANCH  19  20
BRANCH  19  24
HETATM   24  C7  UNL     1     -10.909  -2.153  -3.782  1.00  0.00     0.150 C
BRANCH  24  25
HETATM   25  C8  UNL     1     -11.607  -1.233  -4.741  1.00  0.00     0.183 C
BRANCH  25  26
HETATM   26  O2  UNL     1     -12.364  -1.943  -5.678  1.00  0.00    -0.399 OA
ATOM     27  H2  UNL     1     -12.300  -1.557  -6.543  1.00  0.00     0.209 HD
ENDBRANCH  25  26
ENDBRANCH  24  25
ENDBRANCH  19  24
ENDBRANCH   8  19
BRANCH  11  28
HETATM   28  N5  UNL     1      -7.524  -2.506  -3.468  1.00  0.00    -0.382 N
ATOM     29  H52 UNL     1      -8.407  -2.779  -3.037  1.00  0.00     0.157 HD
ATOM     30  H51 UNL     1      -6.922  -3.246  -3.828  1.00  0.00     0.157 HD
ENDBRANCH  11  28
ENDBRANCH   4   6
ENDBRANCH   3   4
TORSDOF 10
ENDMDL