MODEL 2
REMARK VINA RESULT: -6.236113482      2.355      3.109
REMARK  6 active torsions:
REMARK  status: ('A' for Active; 'I' for Inactive)
REMARK       I    between atoms: N1_1  and  C1_5
REMARK       I    between atoms: C1_5  and  N2_6
REMARK       I    between atoms: C1_5  and  N3_10
REMARK       I    between atoms: N3_10  and  C2_12
REMARK    1  A    between atoms: C2_12  and  C3_14
REMARK    2  A    between atoms: C3_14  and  N4_15
REMARK    3  A    between atoms: C3_14  and  C4_19
REMARK    4  A    between atoms: C4_19  and  C5_20
REMARK    5  A    between atoms: N5_22  and  N6_23
REMARK       I    between atoms: N6_23  and  C7_25
REMARK    6  A    between atoms: C7_25  and  C8_27
ROOT
HETATM    1  C3  UNL     1     -10.567  -2.037  -2.536  1.00  0.00     0.280 C
ENDROOT
BRANCH   1   2
HETATM    2  C2  UNL     1     -10.898  -1.710  -3.942  1.00  0.00     0.251 C
HETATM    3  N3  UNL     1     -12.122  -1.091  -4.273  1.00  0.00    -0.310 N
HETATM    4  C1  UNL     1     -12.502  -0.747  -5.626  1.00  0.00     0.482 C
ATOM      5  H3  UNL     1     -12.774  -0.875  -3.519  1.00  0.00     0.166 HD
HETATM    6  N1  UNL     1     -13.689  -1.542  -5.972  1.00  0.00    -0.033 N
HETATM    7  N2  UNL     1     -12.779   0.667  -5.746  1.00  0.00    -0.033 N
ATOM      8  H13 UNL     1     -14.500  -1.268  -5.419  1.00  0.00     0.278 HD
ATOM      9  H12 UNL     1     -14.046  -1.304  -6.898  1.00  0.00     0.278 HD
ATOM     10  H11 UNL     1     -13.493  -2.539  -5.888  1.00  0.00     0.278 HD
ATOM     11  H23 UNL     1     -13.136   0.904  -6.672  1.00  0.00     0.278 HD
ATOM     12  H22 UNL     1     -13.590   0.941  -5.193  1.00  0.00     0.278 HD
ATOM     13  H21 UNL     1     -11.955   1.218  -5.506  1.00  0.00     0.278 HD
HETATM   14  O1  UNL     1     -10.059  -1.999  -4.830  1.00  0.00    -0.271 OA
ENDBRANCH   1   2
BRANCH   1  15
HETATM   15  N4  UNL     1     -11.502  -3.028  -2.047  1.00  0.00    -0.066 N
ATOM     16  H43 UNL     1     -12.425  -2.634  -1.865  1.00  0.00     0.275 HD
ATOM     17  H42 UNL     1     -11.770  -3.698  -2.768  1.00  0.00     0.275 HD
ATOM     18  H41 UNL     1     -11.107  -3.483  -1.224  1.00  0.00     0.275 HD
ENDBRANCH   1  15
BRANCH   1  19
HETATM   19  C4  UNL     1      -9.134  -2.521  -2.399  1.00  0.00     0.101 C
BRANCH  19  20
HETATM   20  C5  UNL     1      -8.247  -1.299  -2.388  1.00  0.00     0.034 A
HETATM   21  C6  UNL     1      -7.048  -1.144  -3.036  1.00  0.00     0.146 A
HETATM   22  N5  UNL     1      -6.560   0.123  -2.767  1.00  0.00    -0.212 N
HETATM   23  C11 UNL     1      -7.455   0.691  -1.979  1.00  0.00     0.345 A
HETATM   24  O3  UNL     1      -7.394   1.866  -1.495  1.00  0.00    -0.245 OA
HETATM   25  N7  UNL     1      -8.482  -0.163  -1.743  1.00  0.00    -0.309 N
ATOM     26  H7  UNL     1      -9.299   0.034  -1.165  1.00  0.00     0.170 HD
BRANCH  22  27
HETATM   27  N6  UNL     1      -5.353   0.534  -3.308  1.00  0.00    -0.259 N
HETATM   28  C7  UNL     1      -5.117   1.529  -4.253  1.00  0.00     0.240 C
HETATM   29  O2  UNL     1      -6.002   2.226  -4.775  1.00  0.00    -0.271 OA
ATOM     30  H6  UNL     1      -4.526   0.043  -2.968  1.00  0.00     0.190 HD
BRANCH  28  31
HETATM   31  C8  UNL     1      -3.678   1.758  -4.658  1.00  0.00     0.080 A
HETATM   32  C9  UNL     1      -2.922   2.608  -3.658  1.00  0.00     0.015 A
HETATM   33  C10 UNL     1      -3.205   3.093  -5.020  1.00  0.00     0.015 A
ENDBRANCH  28  31
ENDBRANCH  22  27
ENDBRANCH  19  20
ENDBRANCH   1  19
TORSDOF 6
ENDMDL