MODEL 4
REMARK VINA RESULT: -6.231424842      3.168      4.191
REMARK  6 active torsions:
REMARK  status: ('A' for Active; 'I' for Inactive)
REMARK    1  A    between atoms: N1_1  and  C1_4
REMARK    2  A    between atoms: C2_7  and  N3_8
REMARK    3  A    between atoms: C3_10  and  C4_11
REMARK    4  A    between atoms: C4_11  and  N4_12
REMARK    5  A    between atoms: C4_11  and  C6_17
REMARK    6  A    between atoms: C7_20  and  N7_21
ROOT
HETATM    1  C1  UNL     1      -6.649   0.007  -2.361  1.00  0.00     0.680 A
HETATM    2  N2  UNL     1      -7.813  -0.016  -1.678  1.00  0.00    -0.174 N
ATOM      3  H2  UNL     1      -7.877   0.467  -0.782  1.00  0.00     0.186 HD
HETATM    4  C2  UNL     1      -8.894  -0.666  -2.158  1.00  0.00     0.159 A
HETATM    5  C7  UNL     1      -8.769  -1.311  -3.376  1.00  0.00     0.215 A
HETATM    6  C8  UNL     1      -7.593  -1.286  -4.063  1.00  0.00     0.296 A
HETATM    7  O5  UNL     1      -7.505  -1.882  -5.171  1.00  0.00    -0.265 OA
HETATM    8  N8  UNL     1      -6.532  -0.624  -3.549  1.00  0.00    -0.154 N
ATOM      9  H8  UNL     1      -5.647  -0.600  -4.057  1.00  0.00     0.187 HD
ENDROOT
BRANCH   4  10
HETATM   10  N3  UNL     1     -10.083  -0.667  -1.422  1.00  0.00    -0.351 N
HETATM   11  C3  UNL     1     -10.757   0.333  -1.039  1.00  0.00     0.098 C
ATOM     12  H3  UNL     1     -10.451  -1.583  -1.162  1.00  0.00     0.166 HD
BRANCH  11  13
HETATM   13  C4  UNL     1     -12.000   0.156  -0.264  1.00  0.00     0.224 C
BRANCH  13  14
HETATM   14  N4  UNL     1     -13.133   0.845  -0.840  1.00  0.00    -0.348 N
HETATM   15  C5  UNL     1     -14.049   1.401  -0.119  1.00  0.00     0.198 C
HETATM   16  N5  UNL     1     -15.135   2.060  -0.777  1.00  0.00    -0.067 NA
HETATM   17  N6  UNL     1     -14.046   1.400   1.295  1.00  0.00    -0.067 NA
ATOM     18  H4  UNL     1     -13.213   0.894  -1.856  1.00  0.00     0.163 HD
ENDBRANCH  13  14
BRANCH  13  19
HETATM   19  C6  UNL     1     -12.324  -1.300  -0.223  1.00  0.00     0.202 C
HETATM   20  O1  UNL     1     -13.068  -1.815  -1.097  1.00  0.00    -0.646 OA
HETATM   21  O2  UNL     1     -11.823  -2.130   0.770  1.00  0.00    -0.646 OA
ENDBRANCH  13  19
ENDBRANCH  11  13
ENDBRANCH   4  10
BRANCH   5  22
HETATM   22  N7  UNL     1      -9.901  -1.991  -3.877  1.00  0.00    -0.106 N
HETATM   23  O3  UNL     1     -10.351  -3.024  -3.368  1.00  0.00    -0.531 OA
HETATM   24  O4  UNL     1     -10.519  -1.463  -4.986  1.00  0.00    -0.531 OA
ENDBRANCH   5  22
BRANCH   1  25
HETATM   25  N1  UNL     1      -5.600   0.617  -1.932  1.00  0.00    -0.234 N
ATOM     26  H12 UNL     1      -5.760   1.415  -1.318  1.00  0.00     0.174 HD
ATOM     27  H11 UNL     1      -4.653   0.332  -2.182  1.00  0.00     0.174 HD
ENDBRANCH   1  25
TORSDOF 6
ENDMDL