MODEL 1
REMARK VINA RESULT: -7.066540247      0.000      0.000
REMARK  9 active torsions:
REMARK  status: ('A' for Active; 'I' for Inactive)
REMARK    1  A    between atoms: N1_1  and  C1_4
REMARK    2  A    between atoms: C2_7  and  C3_8
REMARK    3  A    between atoms: C3_8  and  N3_9
REMARK    4  A    between atoms: N3_9  and  C4_11
REMARK    5  A    between atoms: C4_11  and  O1_12
REMARK    6  A    between atoms: C4_11  and  C5_14
REMARK    7  A    between atoms: C5_14  and  N4_15
REMARK    8  A    between atoms: C8_23  and  N7_24
REMARK    9  A    between atoms: C10_30  and  C11_31
ROOT
HETATM    1  N3  UNL     1     -11.975  -1.912  -2.219  1.00  0.00    -0.389 N
ATOM      2  H3  UNL     1     -11.667  -2.418  -3.049  1.00  0.00     0.156 HD
ENDROOT
BRANCH   1   3
HETATM    3  C3  UNL     1     -12.742  -0.709  -2.299  1.00  0.00     0.193 C
BRANCH   3   4
HETATM    4  C2  UNL     1     -12.661  -0.227  -3.715  1.00  0.00     0.100 A
HETATM    5  N2  UNL     1     -13.068  -0.987  -4.743  1.00  0.00    -0.330 N
HETATM    6  C1  UNL     1     -13.004  -0.562  -6.043  1.00  0.00     0.115 A
ATOM      7  H2  UNL     1     -13.440  -1.917  -4.548  1.00  0.00     0.168 HD
HETATM    8  C10 UNL     1     -12.508   0.685  -6.340  1.00  0.00     0.060 A
HETATM    9  C9  UNL     1     -12.088   1.460  -5.257  1.00  0.00     0.107 A
HETATM   10  N8  UNL     1     -12.174   0.995  -3.996  1.00  0.00    -0.353 N
ATOM     11  H8  UNL     1     -11.859   1.589  -3.229  1.00  0.00     0.166 HD
BRANCH   6  12
HETATM   12  N1  UNL     1     -13.410  -1.339  -6.967  1.00  0.00    -0.385 N
ATOM     13  H12 UNL     1     -14.077  -2.085  -6.766  1.00  0.00     0.157 HD
ATOM     14  H11 UNL     1     -13.059  -1.205  -7.915  1.00  0.00     0.157 HD
ENDBRANCH   6  12
BRANCH   8  15
HETATM   15  C11 UNL     1     -12.410   1.203  -7.702  1.00  0.00     0.275 C
HETATM   16  O3  UNL     1     -11.546   0.794  -8.517  1.00  0.00    -0.301 OA
ENDBRANCH   8  15
ENDBRANCH   3   4
ENDBRANCH   1   3
BRANCH   1  17
HETATM   17  C4  UNL     1     -11.667  -2.359  -0.892  1.00  0.00     0.234 C
BRANCH  17  18
HETATM   18  O1  UNL     1     -11.865  -3.718  -0.774  1.00  0.00    -0.375 OA
ATOM     19  H1  UNL     1     -11.789  -3.994   0.132  1.00  0.00     0.212 HD
ENDBRANCH  17  18
BRANCH  17  20
HETATM   20  C5  UNL     1     -10.257  -2.013  -0.500  1.00  0.00     0.221 C
BRANCH  20  21
HETATM   21  N4  UNL     1      -9.387  -1.734  -1.625  1.00  0.00    -0.120 N
HETATM   22  N5  UNL     1      -9.170  -0.519  -2.060  1.00  0.00    -0.290 N
HETATM   23  C6  UNL     1      -8.371  -0.305  -3.107  1.00  0.00     0.182 A
ATOM     24  H5  UNL     1      -9.617   0.272  -1.595  1.00  0.00     0.187 HD
HETATM   25  C7  UNL     1      -7.750  -1.355  -3.756  1.00  0.00     0.276 A
HETATM   26  O2  UNL     1      -6.989  -1.205  -4.745  1.00  0.00    -0.266 OA
HETATM   27  N6  UNL     1      -7.983  -2.587  -3.298  1.00  0.00    -0.154 N
HETATM   28  C8  UNL     1      -8.792  -2.787  -2.242  1.00  0.00     0.695 A
ATOM     29  H6  UNL     1      -7.542  -3.387  -3.753  1.00  0.00     0.187 HD
BRANCH  28  30
HETATM   30  N7  UNL     1      -9.000  -4.000  -1.792  1.00  0.00    -0.233 N
ATOM     31  H72 UNL     1      -9.235  -4.753  -2.438  1.00  0.00     0.174 HD
ATOM     32  H71 UNL     1      -8.915  -4.186  -0.793  1.00  0.00     0.174 HD
ENDBRANCH  28  30
ENDBRANCH  20  21
ENDBRANCH  17  20
ENDBRANCH   1  17
TORSDOF 9
ENDMDL