MODEL 5
REMARK VINA RESULT: -5.967683726      2.585      4.867
REMARK  8 active torsions:
REMARK  status: ('A' for Active; 'I' for Inactive)
REMARK    1  A    between atoms: C2_3  and  N2_4
REMARK    2  A    between atoms: C2_3  and  O1_8
REMARK    3  A    between atoms: O1_8  and  C3_9
REMARK    4  A    between atoms: C3_9  and  C4_11
REMARK    5  A    between atoms: C4_11  and  C5_12
REMARK    6  A    between atoms: C4_11  and  C7_18
REMARK       I    between atoms: C5_12  and  N3_14
REMARK    7  A    between atoms: N3_14  and  C6_16
REMARK    8  A    between atoms: C8_19  and  O5_20
ROOT
HETATM    1  N1  UNL     1      -7.506  -1.600  -4.583  1.00  0.00    -0.193 NA
HETATM    2  C1  UNL     1      -8.193  -1.912  -3.725  1.00  0.00     0.121 C
HETATM    3  C2  UNL     1      -9.062  -2.299  -2.609  1.00  0.00     0.434 C
ENDROOT
BRANCH   3   4
HETATM    4  N2  UNL     1      -9.268  -3.719  -2.547  1.00  0.00    -0.039 N
ATOM      5  H23 UNL     1      -9.834  -4.044  -3.330  1.00  0.00     0.278 HD
ATOM      6  H22 UNL     1      -8.405  -4.226  -2.748  1.00  0.00     0.278 HD
ATOM      7  H21 UNL     1      -9.668  -4.013  -1.656  1.00  0.00     0.278 HD
ENDBRANCH   3   4
BRANCH   3   8
HETATM    8  O1  UNL     1     -10.333  -1.642  -2.718  1.00  0.00    -0.270 OA
BRANCH   8   9
HETATM    9  C3  UNL     1     -11.018  -1.584  -3.950  1.00  0.00     0.304 C
HETATM   10  O2  UNL     1     -10.785  -2.552  -4.712  1.00  0.00    -0.259 OA
BRANCH   9  11
HETATM   11  C4  UNL     1     -11.925  -0.490  -4.313  1.00  0.00     0.139 C
BRANCH  11  12
HETATM   12  C5  UNL     1     -12.814  -0.119  -3.209  1.00  0.00     0.266 C
HETATM   13  O3  UNL     1     -13.113   1.135  -3.151  1.00  0.00    -0.267 OA
HETATM   14  N3  UNL     1     -13.368  -0.953  -2.227  1.00  0.00    -0.300 N
ATOM     15  H3  UNL     1     -13.158  -1.951  -2.223  1.00  0.00     0.171 HD
BRANCH  14  16
HETATM   16  C6  UNL     1     -14.236  -0.388  -1.226  1.00  0.00     0.355 C
HETATM   17  O4  UNL     1     -14.513  -0.953  -0.161  1.00  0.00    -0.283 OA
ENDBRANCH  14  16
ENDBRANCH  11  12
BRANCH  11  18
HETATM   18  C7  UNL     1     -12.505  -0.510  -5.652  1.00  0.00     0.121 A
HETATM   19  C8  UNL     1     -12.428   0.514  -6.467  1.00  0.00     0.172 A
HETATM   20  N4  UNL     1     -12.991   0.529  -7.782  1.00  0.00    -0.311 N
HETATM   21  C9  UNL     1     -13.687  -0.593  -8.298  1.00  0.00     0.192 A
ATOM     22  H4  UNL     1     -12.889   1.363  -8.361  1.00  0.00     0.170 HD
HETATM   23  S1  UNL     1     -14.341  -0.608  -9.793  1.00  0.00    -0.039 SA
HETATM   24  N5  UNL     1     -13.784  -1.719  -7.424  1.00  0.00    -0.276 N
HETATM   25  N6  UNL     1     -13.209  -1.662  -6.157  1.00  0.00    -0.293 N
ATOM     26  H5  UNL     1     -14.272  -2.562  -7.727  1.00  0.00     0.189 HD
ATOM     27  H6  UNL     1     -13.292  -2.480  -5.552  1.00  0.00     0.187 HD
BRANCH  19  28
HETATM   28  O5  UNL     1     -11.782   1.660  -6.076  1.00  0.00    -0.344 OA
ATOM     29  H5  UNL     1     -10.843   1.743  -6.195  1.00  0.00     0.219 HD
ENDBRANCH  19  28
ENDBRANCH  11  18
ENDBRANCH   9  11
ENDBRANCH   8   9
ENDBRANCH   3   8
TORSDOF 8
ENDMDL