MODEL 3
REMARK VINA RESULT: -5.496991457      2.850      5.397
REMARK  9 active torsions:
REMARK  status: ('A' for Active; 'I' for Inactive)
REMARK    1  A    between atoms: N1_1  and  C1_4
REMARK    2  A    between atoms: C2_7  and  N3_8
REMARK    3  A    between atoms: C3_11  and  N4_12
REMARK    4  A    between atoms: N4_12  and  C4_13
REMARK    5  A    between atoms: N4_12  and  C5_15
REMARK    6  A    between atoms: C5_15  and  C6_16
REMARK    7  A    between atoms: C6_16  and  C7_17
REMARK    8  A    between atoms: C7_17  and  N5_18
REMARK    9  A    between atoms: C8_22  and  N6_23
REMARK       I    between atoms: N6_23  and  C9_25
REMARK       I    between atoms: C9_25  and  N7_26
REMARK       I    between atoms: C9_25  and  N8_30
ROOT
HETATM    1  C1  UNL     1      -6.652  -0.728  -3.586  1.00  0.00     0.679 A
HETATM    2  N2  UNL     1      -7.117  -1.667  -2.781  1.00  0.00    -0.169 N
ATOM      3  H2  UNL     1      -6.632  -2.563  -2.752  1.00  0.00     0.186 HD
HETATM    4  C2  UNL     1      -8.221  -1.495  -1.982  1.00  0.00     0.219 A
HETATM    5  C3  UNL     1      -8.836  -0.279  -2.053  1.00  0.00     0.133 A
HETATM    6  C8  UNL     1      -8.339   0.729  -2.916  1.00  0.00     0.151 A
HETATM    7  N9  UNL     1      -7.265   0.445  -3.639  1.00  0.00    -0.175 N
ATOM      8  H9  UNL     1      -6.896   1.161  -4.265  1.00  0.00     0.186 HD
ENDROOT
BRANCH   6   9
HETATM    9  N6  UNL     1      -8.969   1.821  -2.946  1.00  0.00    -0.325 N
HETATM   10  C9  UNL     1      -8.519   3.155  -3.064  1.00  0.00     0.481 C
HETATM   11  N7  UNL     1      -9.056   3.931  -1.928  1.00  0.00    -0.033 N
HETATM   12  N8  UNL     1      -9.004   3.836  -4.256  1.00  0.00    -0.033 N
ATOM     13  H73 UNL     1     -10.071   3.865  -1.853  1.00  0.00     0.278 HD
ATOM     14  H72 UNL     1      -8.822   3.517  -1.025  1.00  0.00     0.278 HD
ATOM     15  H71 UNL     1      -8.731   4.894  -2.014  1.00  0.00     0.278 HD
ATOM     16  H83 UNL     1      -8.771   3.304  -5.094  1.00  0.00     0.278 HD
ATOM     17  H82 UNL     1     -10.022   3.795  -4.304  1.00  0.00     0.278 HD
ATOM     18  H81 UNL     1      -8.679   4.799  -4.341  1.00  0.00     0.278 HD
ATOM     19  H6  UNL     1      -9.981   1.723  -2.873  1.00  0.00     0.165 HD
ENDBRANCH   6   9
BRANCH   5  20
HETATM   20  N4  UNL     1      -9.981   0.076  -1.273  1.00  0.00    -0.319 N
BRANCH  20  21
HETATM   21  C4  UNL     1      -9.788   0.672  -0.008  1.00  0.00     0.356 C
HETATM   22  O3  UNL     1      -9.977   1.924   0.100  1.00  0.00    -0.283 OA
ENDBRANCH  20  21
BRANCH  20  23
HETATM   23  C5  UNL     1     -11.289  -0.235  -1.772  1.00  0.00     0.133 C
BRANCH  23  24
HETATM   24  C6  UNL     1     -12.291  -0.709  -0.767  1.00  0.00     0.047 C
BRANCH  24  25
HETATM   25  C7  UNL     1     -12.044  -2.174  -0.405  1.00  0.00     0.231 C
BRANCH  25  26
HETATM   26  N5  UNL     1     -11.925  -2.889  -1.645  1.00  0.00    -0.079 N
ATOM     27  H53 UNL     1     -12.409  -2.436  -2.420  1.00  0.00     0.274 HD
ATOM     28  H52 UNL     1     -10.987  -2.854  -2.043  1.00  0.00     0.274 HD
ATOM     29  H51 UNL     1     -12.252  -3.840  -1.466  1.00  0.00     0.274 HD
ENDBRANCH  25  26
ENDBRANCH  24  25
ENDBRANCH  23  24
ENDBRANCH  20  23
ENDBRANCH   5  20
BRANCH   4  30
HETATM   30  N3  UNL     1      -8.634  -2.573  -1.183  1.00  0.00    -0.095 N
HETATM   31  O1  UNL     1      -9.082  -3.610  -1.777  1.00  0.00    -0.530 OA
HETATM   32  O2  UNL     1      -8.623  -2.669   0.158  1.00  0.00    -0.530 OA
ENDBRANCH   4  30
BRANCH   1  33
HETATM   33  N1  UNL     1      -5.595  -0.930  -4.329  1.00  0.00    -0.234 N
ATOM     34  H12 UNL     1      -4.753  -1.318  -3.903  1.00  0.00     0.174 HD
ATOM     35  H11 UNL     1      -5.596  -0.711  -5.325  1.00  0.00     0.174 HD
ENDBRANCH   1  33
TORSDOF 9
ENDMDL