MODEL 4
REMARK VINA RESULT: -6.793436719      3.927      7.656
REMARK  6 active torsions:
REMARK  status: ('A' for Active; 'I' for Inactive)
REMARK       I    between atoms: C1_4  and  N3_6
REMARK    1  A    between atoms: N3_6  and  C2_7
REMARK    2  A    between atoms: N3_6  and  C6_21
REMARK    3  A    between atoms: C2_7  and  C3_8
REMARK       I    between atoms: C3_8  and  N4_10
REMARK    4  A    between atoms: N4_10  and  C4_12
REMARK    5  A    between atoms: C4_12  and  C5_13
REMARK    6  A    between atoms: C8_27  and  N11_28
ROOT
HETATM    1  N1  UNL     1      -6.393   0.635  -2.018  1.00  0.00    -0.373 N
ATOM      2  H11 UNL     1      -6.091   0.120  -1.191  1.00  0.00     0.158 HD
ATOM      3  H12 UNL     1      -5.612   1.049  -2.528  1.00  0.00     0.158 HD
HETATM    4  C1  UNL     1      -7.619   0.654  -2.218  1.00  0.00     0.190 C
HETATM    5  N2  UNL     1      -8.052   1.394  -3.406  1.00  0.00    -0.063 NA
HETATM    6  N3  UNL     1      -8.703   0.079  -1.510  1.00  0.00    -0.297 N
ENDROOT
BRANCH   6   7
HETATM    7  C2  UNL     1      -9.273   0.747  -0.406  1.00  0.00     0.236 C
BRANCH   7   8
HETATM    8  C3  UNL     1      -9.274   2.199  -0.350  1.00  0.00     0.236 C
HETATM    9  O1  UNL     1     -10.350   2.738  -0.841  1.00  0.00    -0.272 OA
HETATM   10  N4  UNL     1      -8.331   3.092   0.139  1.00  0.00    -0.353 N
ATOM     11  H4  UNL     1      -7.465   2.742   0.549  1.00  0.00     0.162 HD
BRANCH  10  12
HETATM   12  C4  UNL     1      -8.570   4.516   0.070  1.00  0.00     0.201 C
BRANCH  12  13
HETATM   13  C5  UNL     1      -8.903   5.083   1.379  1.00  0.00     0.128 A
HETATM   14  N5  UNL     1     -10.113   5.176   1.938  1.00  0.00    -0.269 N
HETATM   15  N6  UNL     1      -9.988   5.759   3.134  1.00  0.00    -0.005 NA
ATOM     16  H5  UNL     1     -10.986   4.856   1.522  1.00  0.00     0.185 HD
HETATM   17  N7  UNL     1      -8.706   6.033   3.328  1.00  0.00    -0.225 N
HETATM   18  N8  UNL     1      -8.053   5.622   2.263  1.00  0.00    -0.274 N
ATOM     19  H7  UNL     1      -8.301   6.480   4.150  1.00  0.00     0.205 HD
ATOM     20  H8  UNL     1      -7.045   5.702   2.129  1.00  0.00     0.189 HD
ENDBRANCH  12  13
ENDBRANCH  10  12
ENDBRANCH   7   8
ENDBRANCH   6   7
BRANCH   6  21
HETATM   21  C6  UNL     1      -9.155  -1.191  -1.986  1.00  0.00     0.143 A
HETATM   22  C7  UNL     1      -8.785  -2.361  -1.411  1.00  0.00     0.157 A
HETATM   23  N9  UNL     1      -9.221  -3.556  -1.868  1.00  0.00    -0.294 N
HETATM   24  N10 UNL     1     -10.027  -3.567  -2.902  1.00  0.00    -0.133 N
ATOM     25  H9  UNL     1      -8.930  -4.426  -1.422  1.00  0.00     0.186 HD
HETATM   26  C8  UNL     1     -10.434  -2.452  -3.519  1.00  0.00     0.692 A
ATOM     27  H10 UNL     1     -10.359  -4.466  -3.252  1.00  0.00     0.205 HD
HETATM   28  N12 UNL     1      -9.994  -1.276  -3.057  1.00  0.00    -0.174 N
ATOM     29  H12 UNL     1     -10.296  -0.418  -3.520  1.00  0.00     0.186 HD
BRANCH  26  30
HETATM   30  N11 UNL     1     -11.234  -2.548  -4.539  1.00  0.00    -0.233 N
ATOM     31 2H11 UNL     1     -11.066  -3.197  -5.308  1.00  0.00     0.174 HD
ATOM     32 1H11 UNL     1     -12.064  -1.956  -4.577  1.00  0.00     0.174 HD
ENDBRANCH  26  30
ENDBRANCH   6  21
TORSDOF 6
ENDMDL