MODEL 3
REMARK VINA RESULT: -6.131343256      2.621      3.404
REMARK  8 active torsions:
REMARK  status: ('A' for Active; 'I' for Inactive)
REMARK    1  A    between atoms: N1_1  and  N2_4
REMARK    2  A    between atoms: N2_4  and  N3_6
REMARK    3  A    between atoms: N3_6  and  N4_7
REMARK       I    between atoms: N4_7  and  C1_9
REMARK       I    between atoms: C1_9  and  N5_11
REMARK    4  A    between atoms: N5_11  and  C2_13
REMARK    5  A    between atoms: C2_13  and  C3_14
REMARK    6  A    between atoms: N6_17  and  C6_18
REMARK    7  A    between atoms: C6_18  and  C7_19
REMARK       I    between atoms: C7_19  and  N7_21
REMARK    8  A    between atoms: N7_21  and  N8_23
REMARK       I    between atoms: N8_23  and  C8_25
ROOT
HETATM    1  C3  UNL     1     -11.645  -0.822  -3.171  1.00  0.00     0.045 A
HETATM    2  C4  UNL     1     -11.847  -1.449  -1.930  1.00  0.00     0.047 A
HETATM    3  C5  UNL     1     -10.716  -2.157  -1.608  1.00  0.00     0.112 A
HETATM    4  N6  UNL     1      -9.859  -1.968  -2.614  1.00  0.00    -0.294 N
HETATM    5  N10 UNL     1     -10.408  -1.175  -3.540  1.00  0.00    -0.301 N
ATOM      6  H10 UNL     1      -9.951  -0.881  -4.403  1.00  0.00     0.187 HD
ENDROOT
BRANCH   1   7
HETATM    7  C2  UNL     1     -12.668   0.044  -3.862  1.00  0.00     0.183 C
BRANCH   7   8
HETATM    8  N5  UNL     1     -13.287  -0.700  -4.928  1.00  0.00    -0.335 N
HETATM    9  C1  UNL     1     -13.068  -0.633  -6.301  1.00  0.00     0.347 C
HETATM   10  N4  UNL     1     -13.821  -1.496  -7.176  1.00  0.00    -0.163 N
HETATM   11  O1  UNL     1     -12.232   0.154  -6.843  1.00  0.00    -0.245 OA
ATOM     12  H4  UNL     1     -14.484  -2.145  -6.750  1.00  0.00     0.209 HD
ATOM     13  H5  UNL     1     -13.991  -1.376  -4.633  1.00  0.00     0.164 HD
BRANCH  10  14
HETATM   14  N3  UNL     1     -13.716  -1.504  -8.452  1.00  0.00    -0.217 NA
BRANCH  14  15
HETATM   15  N2  UNL     1     -13.619  -1.169  -9.558  1.00  0.00    -0.162 N
ATOM     16  H2  UNL     1     -14.076  -1.735 -10.274  1.00  0.00     0.225 HD
BRANCH  15  17
HETATM   17  N1  UNL     1     -12.904  -0.017  -9.975  1.00  0.00    -0.319 N
ATOM     18  H12 UNL     1     -12.139   0.294  -9.377  1.00  0.00     0.179 HD
ATOM     19  H11 UNL     1     -13.113   0.504 -10.826  1.00  0.00     0.179 HD
ENDBRANCH  15  17
ENDBRANCH  14  15
ENDBRANCH  10  14
ENDBRANCH   7   8
ENDBRANCH   1   7
BRANCH   4  20
HETATM   20  C6  UNL     1      -8.536  -2.577  -2.650  1.00  0.00     0.252 C
BRANCH  20  21
HETATM   21  C7  UNL     1      -7.598  -1.898  -3.541  1.00  0.00     0.255 C
HETATM   22  O2  UNL     1      -7.919  -1.896  -4.791  1.00  0.00    -0.270 OA
HETATM   23  N7  UNL     1      -6.399  -1.261  -3.179  1.00  0.00    -0.265 N
ATOM     24  H7  UNL     1      -6.130  -1.250  -2.196  1.00  0.00     0.190 HD
BRANCH  23  25
HETATM   25  N8  UNL     1      -5.562  -0.643  -4.108  1.00  0.00    -0.251 N
HETATM   26  C8  UNL     1      -5.278   0.739  -4.055  1.00  0.00     0.347 C
HETATM   27  N9  UNL     1      -4.428   1.355  -5.007  1.00  0.00    -0.038 NA
HETATM   28  O3  UNL     1      -5.795   1.427  -3.135  1.00  0.00    -0.249 OA
ATOM     29  H8  UNL     1      -5.144  -1.206  -4.849  1.00  0.00     0.191 HD
ENDBRANCH  23  25
ENDBRANCH  20  21
ENDBRANCH   4  20
TORSDOF 8
ENDMDL