MODEL 3
REMARK VINA RESULT: -5.852186058      3.308      7.636
REMARK  10 active torsions:
REMARK  status: ('A' for Active; 'I' for Inactive)
REMARK    1  A    between atoms: N1_1  and  C1_4
REMARK    2  A    between atoms: C2_7  and  C3_8
REMARK    3  A    between atoms: C3_8  and  C4_9
REMARK    4  A    between atoms: C4_9  and  C5_10
REMARK    5  A    between atoms: C5_10  and  C6_11
REMARK    6  A    between atoms: C6_11  and  N3_12
REMARK    7  A    between atoms: C9_25  and  O3_26
REMARK    8  A    between atoms: O3_26  and  C10_27
REMARK    9  A    between atoms: C10_27  and  N7_28
REMARK   10  A    between atoms: C10_27  and  N8_32
ROOT
HETATM    1  C1  UNL     1     -11.544   0.590  -3.359  1.00  0.00     0.134 A
HETATM    2  N2  UNL     1     -12.906   0.707  -3.341  1.00  0.00    -0.329 N
ATOM      3  H2  UNL     1     -13.341   1.512  -3.792  1.00  0.00     0.168 HD
HETATM    4  C2  UNL     1     -13.684  -0.210  -2.748  1.00  0.00     0.098 A
HETATM    5  N4  UNL     1     -13.033  -1.260  -2.168  1.00  0.00    -0.279 N
ATOM      6  H4  UNL     1     -13.590  -1.979  -1.706  1.00  0.00     0.189 HD
HETATM    7  N5  UNL     1     -11.717  -1.391  -2.174  1.00  0.00    -0.206 N
HETATM    8  C7  UNL     1     -11.117  -2.457  -1.580  1.00  0.00     0.335 A
HETATM    9  O1  UNL     1     -11.854  -3.316  -1.024  1.00  0.00    -0.260 OA
HETATM   10  C8  UNL     1      -9.748  -2.585  -1.591  1.00  0.00     0.317 A
HETATM   11  O2  UNL     1      -9.170  -3.575  -1.041  1.00  0.00    -0.262 OA
HETATM   12  N6  UNL     1      -8.942  -1.675  -2.181  1.00  0.00    -0.297 N
ATOM     13  H6  UNL     1      -7.928  -1.783  -2.182  1.00  0.00     0.171 HD
HETATM   14  C9  UNL     1      -9.535  -0.622  -2.767  1.00  0.00     0.182 A
HETATM   15  C11 UNL     1     -10.929  -0.487  -2.759  1.00  0.00     0.154 A
ENDROOT
BRANCH  14  16
HETATM   16  O3  UNL     1      -8.836   0.365  -3.397  1.00  0.00    -0.278 OA
BRANCH  16  17
HETATM   17  C10 UNL     1      -7.571   0.862  -3.169  1.00  0.00     0.525 C
BRANCH  17  18
HETATM   18  N7  UNL     1      -7.265   2.031  -3.997  1.00  0.00    -0.027 N
ATOM     19  H73 UNL     1      -6.383   1.907  -4.493  1.00  0.00     0.279 HD
ATOM     20  H72 UNL     1      -7.897   2.089  -4.796  1.00  0.00     0.279 HD
ATOM     21  H71 UNL     1      -7.267   2.901  -3.466  1.00  0.00     0.279 HD
ENDBRANCH  17  18
BRANCH  17  22
HETATM   22  N8  UNL     1      -7.349   1.295  -1.801  1.00  0.00    -0.027 N
ATOM     23  H83 UNL     1      -7.891   2.134  -1.598  1.00  0.00     0.279 HD
ATOM     24  H82 UNL     1      -7.784   0.647  -1.145  1.00  0.00     0.279 HD
ATOM     25  H81 UNL     1      -6.366   1.436  -1.569  1.00  0.00     0.279 HD
ENDBRANCH  17  22
ENDBRANCH  16  17
ENDBRANCH  14  16
BRANCH   1  26
HETATM   26  N1  UNL     1     -10.813   1.478  -3.932  1.00  0.00    -0.383 N
ATOM     27  H12 UNL     1     -11.249   2.120  -4.595  1.00  0.00     0.157 HD
ATOM     28  H11 UNL     1      -9.815   1.545  -3.730  1.00  0.00     0.157 HD
ENDBRANCH   1  26
BRANCH   4  29
HETATM   29  C3  UNL     1     -15.158  -0.153  -2.654  1.00  0.00     0.078 C
BRANCH  29  30
HETATM   30  C4  UNL     1     -15.915  -0.796  -3.746  1.00  0.00     0.009 C
BRANCH  30  31
HETATM   31  C5  UNL     1     -15.760  -0.219  -5.109  1.00  0.00     0.027 C
BRANCH  31  32
HETATM   32  C6  UNL     1     -15.518  -1.401  -6.060  1.00  0.00     0.229 C
BRANCH  32  33
HETATM   33  N3  UNL     1     -14.083  -1.606  -6.117  1.00  0.00    -0.079 N
ATOM     34  H33 UNL     1     -13.731  -2.199  -5.366  1.00  0.00     0.274 HD
ATOM     35  H32 UNL     1     -13.792  -2.197  -6.896  1.00  0.00     0.274 HD
ATOM     36  H31 UNL     1     -13.654  -0.680  -6.134  1.00  0.00     0.274 HD
ENDBRANCH  32  33
ENDBRANCH  31  32
ENDBRANCH  30  31
ENDBRANCH  29  30
ENDBRANCH   4  29
TORSDOF 10
ENDMDL