MODEL 5
REMARK VINA RESULT: -5.787761549      2.083      5.500
REMARK  9 active torsions:
REMARK  status: ('A' for Active; 'I' for Inactive)
REMARK    1  A    between atoms: C2_2  and  C3_3
REMARK    2  A    between atoms: C3_3  and  N1_4
REMARK    3  A    between atoms: N1_4  and  C4_7
REMARK    4  A    between atoms: C4_7  and  C5_8
REMARK    5  A    between atoms: C5_8  and  N2_9
REMARK    6  A    between atoms: C7_12  and  C8_13
REMARK    7  A    between atoms: C8_13  and  N3_14
REMARK    8  A    between atoms: C8_13  and  O2_18
REMARK    9  A    between atoms: C11_27  and  N6_28
ROOT
HETATM    1  N2  UNL     1      -9.088   0.050  -1.035  1.00  0.00    -0.294 N
HETATM    2  C6  UNL     1     -10.187  -0.752  -1.018  1.00  0.00     0.276 A
HETATM    3  O1  UNL     1     -11.002  -0.564  -0.077  1.00  0.00    -0.266 OA
HETATM    4  C7  UNL     1     -10.418  -1.724  -1.967  1.00  0.00     0.135 A
HETATM    5  N4  UNL     1      -9.503  -1.865  -2.943  1.00  0.00    -0.344 N
ATOM      6  H4  UNL     1      -9.646  -2.574  -3.661  1.00  0.00     0.166 HD
HETATM    7  C9  UNL     1      -8.405  -1.090  -2.991  1.00  0.00     0.147 A
HETATM    8  C10 UNL     1      -7.449  -1.212  -3.975  1.00  0.00     0.290 A
HETATM    9  O3  UNL     1      -7.626  -2.079  -4.848  1.00  0.00    -0.265 OA
HETATM   10  N5  UNL     1      -6.346  -0.451  -4.042  1.00  0.00    -0.154 N
ATOM     11  H5  UNL     1      -5.666  -0.578  -4.792  1.00  0.00     0.187 HD
HETATM   12  C11 UNL     1      -6.162   0.484  -3.095  1.00  0.00     0.680 A
HETATM   13  N7  UNL     1      -7.068   0.648  -2.106  1.00  0.00    -0.174 N
ATOM     14  H7  UNL     1      -6.905   1.364  -1.399  1.00  0.00     0.186 HD
HETATM   15  C12 UNL     1      -8.174  -0.105  -2.027  1.00  0.00     0.158 A
ENDROOT
BRANCH   1  16
HETATM   16  C5  UNL     1      -8.877   1.050  -0.029  1.00  0.00     0.161 C
BRANCH  16  17
HETATM   17  C4  UNL     1      -9.443   2.403  -0.456  1.00  0.00     0.253 C
BRANCH  17  18
HETATM   18  N1  UNL     1      -8.625   3.486   0.041  1.00  0.00    -0.071 N
ATOM     19  H12 UNL     1      -8.022   3.851  -0.697  1.00  0.00     0.277 HD
ATOM     20  H11 UNL     1      -7.914   3.136   0.683  1.00  0.00     0.277 HD
BRANCH  18  21
HETATM   21  C3  UNL     1      -9.388   4.554   0.653  1.00  0.00     0.259 C
BRANCH  21  22
HETATM   22  C2  UNL     1      -8.492   5.371   1.505  1.00  0.00    -0.010 C
HETATM   23  C1  UNL     1      -8.888   5.887   2.657  1.00  0.00     0.008 C
ENDBRANCH  21  22
ENDBRANCH  18  21
ENDBRANCH  17  18
ENDBRANCH  16  17
ENDBRANCH   1  16
BRANCH   4  24
HETATM   24  C8  UNL     1     -11.636  -2.565  -1.899  1.00  0.00     0.373 C
BRANCH  24  25
HETATM   25  N3  UNL     1     -12.806  -1.715  -1.875  1.00  0.00    -0.047 N
ATOM     26  H33 UNL     1     -12.656  -0.836  -2.371  1.00  0.00     0.277 HD
ATOM     27  H32 UNL     1     -13.562  -2.081  -2.453  1.00  0.00     0.277 HD
ATOM     28  H31 UNL     1     -13.097  -1.566  -0.909  1.00  0.00     0.277 HD
ENDBRANCH  24  25
BRANCH  24  29
HETATM   29  O2  UNL     1     -11.627  -3.248  -0.679  1.00  0.00    -0.365 OA
ATOM     30  H2  UNL     1     -12.333  -3.883  -0.690  1.00  0.00     0.212 HD
ENDBRANCH  24  29
ENDBRANCH   4  24
BRANCH  12  31
HETATM   31  N6  UNL     1      -5.112   1.214  -3.152  1.00  0.00    -0.234 N
ATOM     32  H62 UNL     1      -4.484   1.290  -2.351  1.00  0.00     0.174 HD
ATOM     33  H61 UNL     1      -4.916   1.719  -4.017  1.00  0.00     0.174 HD
ENDBRANCH  12  31
TORSDOF 9
ENDMDL