MODEL 2
REMARK VINA RESULT: -6.414868087      1.978      7.466
REMARK  7 active torsions:
REMARK  status: ('A' for Active; 'I' for Inactive)
REMARK    1  A    between atoms: N1_2  and  C2_5
REMARK    2  A    between atoms: C5_8  and  C6_9
REMARK    3  A    between atoms: C6_9  and  N2_10
REMARK    4  A    between atoms: N2_10  and  C7_12
REMARK    5  A    between atoms: C9_14  and  C10_15
REMARK    6  A    between atoms: C15_24  and  N5_25
REMARK    7  A    between atoms: C18_28  and  N6_29
ROOT
HETATM    1  C7  UNL     1      11.493   2.950   2.468  1.00  0.00     0.033 A
HETATM    2  C8  UNL     1      12.499   2.112   1.953  1.00  0.00     0.059 A
HETATM    3  C9  UNL     1      12.411   1.580   0.705  1.00  0.00     0.048 A
HETATM    4  N4  UNL     1      11.303   1.906  -0.004  1.00  0.00    -0.342 N
ATOM      5  H4  UNL     1      11.210   1.522  -0.945  1.00  0.00     0.167 HD
HETATM    6  C15 UNL     1      10.320   2.701   0.448  1.00  0.00     0.105 A
HETATM    7  C20 UNL     1      10.391   3.256   1.722  1.00  0.00     0.077 A
ENDROOT
BRANCH   1   8
HETATM    8  N2  UNL     1      11.597   3.500   3.772  1.00  0.00    -0.389 N
ATOM      9  H2  UNL     1      10.742   3.703   4.290  1.00  0.00     0.159 HD
BRANCH   8  10
HETATM   10  C6  UNL     1      12.873   3.783   4.393  1.00  0.00     0.124 C
BRANCH  10  11
HETATM   11  C5  UNL     1      13.341   5.120   3.907  1.00  0.00     0.003 C
HETATM   12  C4  UNL     1      13.354   6.154   4.994  1.00  0.00     0.008 C
HETATM   13  C3  UNL     1      14.168   7.350   4.737  1.00  0.00     0.033 C
HETATM   14  C2  UNL     1      14.756   7.524   3.395  1.00  0.00     0.185 C
HETATM   15  C22 UNL     1      14.984   6.275   2.601  1.00  0.00     0.033 C
HETATM   16  C21 UNL     1      14.807   5.019   3.451  1.00  0.00     0.008 C
BRANCH  14  17
HETATM   17  N1  UNL     1      13.974   8.436   2.572  1.00  0.00    -0.075 N
HETATM   18  C1  UNL     1      13.553   7.847   1.331  1.00  0.00     0.267 C
ATOM     19  H12 UNL     1      14.481   9.306   2.409  1.00  0.00     0.277 HD
ATOM     20  H11 UNL     1      13.176   8.803   3.091  1.00  0.00     0.277 HD
ENDBRANCH  14  17
ENDBRANCH  10  11
ENDBRANCH   8  10
ENDBRANCH   1   8
BRANCH   3  21
HETATM   21  C10 UNL     1      13.391   0.682   0.089  1.00  0.00     0.013 A
HETATM   22  C11 UNL     1      13.040  -0.595  -0.392  1.00  0.00     0.101 A
HETATM   23  N3  UNL     1      14.115  -1.177  -0.914  1.00  0.00    -0.374 N
HETATM   24  C12 UNL     1      15.138  -0.334  -0.792  1.00  0.00     0.095 A
ATOM     25  H3  UNL     1      14.150  -2.106  -1.335  1.00  0.00     0.164 HD
HETATM   26  C13 UNL     1      14.716   0.842  -0.166  1.00  0.00    -0.033 A
HETATM   27  C14 UNL     1      15.572   2.017   0.124  1.00  0.00     0.050 C
ENDBRANCH   3  21
BRANCH   6  28
HETATM   28  N5  UNL     1       9.181   3.009  -0.341  1.00  0.00    -0.365 N
HETATM   29  C16 UNL     1       7.836   2.559  -0.123  1.00  0.00     0.126 C
HETATM   30  C17 UNL     1       6.974   3.274  -1.140  1.00  0.00     0.054 C
HETATM   31  C18 UNL     1       7.829   4.437  -1.542  1.00  0.00     0.203 C
HETATM   32  C19 UNL     1       9.224   3.852  -1.519  1.00  0.00     0.157 C
BRANCH  31  33
HETATM   33  N6  UNL     1       7.756   5.447  -0.513  1.00  0.00    -0.073 N
ATOM     34  H63 UNL     1       6.878   5.413   0.005  1.00  0.00     0.274 HD
ATOM     35  H62 UNL     1       8.387   5.256   0.265  1.00  0.00     0.274 HD
ATOM     36  H61 UNL     1       7.923   6.360  -0.936  1.00  0.00     0.274 HD
ENDBRANCH  31  33
ENDBRANCH   6  28
TORSDOF 7
ENDMDL