MODEL 5
REMARK VINA RESULT: -6.354497709      1.221      2.557
REMARK  11 active torsions:
REMARK  status: ('A' for Active; 'I' for Inactive)
REMARK    1  A    between atoms: C4_5  and  O2_6
REMARK    2  A    between atoms: O2_6  and  C5_7
REMARK    3  A    between atoms: C5_7  and  C6_8
REMARK    4  A    between atoms: C6_8  and  C20_24
REMARK    5  A    between atoms: C7_9  and  C8_10
REMARK    6  A    between atoms: C8_10  and  C9_11
REMARK    7  A    between atoms: C9_11  and  C10_12
REMARK    8  A    between atoms: C10_12  and  O3_13
REMARK    9  A    between atoms: C20_24  and  O4_25
REMARK   10  A    between atoms: C21_27  and  O5_28
REMARK   11  A    between atoms: C22_30  and  O6_31
ROOT
HETATM    1  C6  UNL     1      15.416   1.365   1.009  1.00  0.00    -0.037 C
HETATM    2  C7  UNL     1      15.524   2.567   0.504  1.00  0.00    -0.020 C
ENDROOT
BRANCH   1   3
HETATM    3  C5  UNL     1      14.857   0.253   0.145  1.00  0.00     0.204 C
BRANCH   3   4
HETATM    4  O2  UNL     1      15.430  -0.923   0.134  1.00  0.00    -0.377 OA
BRANCH   4   5
HETATM    5  C4  UNL     1      15.867  -1.665  -0.866  1.00  0.00     0.176 C
HETATM    6  C3  UNL     1      15.941  -3.167  -0.530  1.00  0.00     0.203 C
HETATM    7  O1  UNL     1      14.796  -3.551   0.118  1.00  0.00    -0.381 OA
HETATM    8  C2  UNL     1      13.647  -3.390  -0.637  1.00  0.00     0.148 C
HETATM    9  C1  UNL     1      12.597  -2.730   0.200  1.00  0.00     0.042 C
HETATM   10  C22 UNL     1      13.872  -2.761  -1.966  1.00  0.00     0.178 C
HETATM   11  C21 UNL     1      14.820  -1.613  -1.998  1.00  0.00     0.180 C
BRANCH  10  12
HETATM   12  O6  UNL     1      14.167  -3.732  -2.951  1.00  0.00    -0.390 OA
ATOM     13  H6  UNL     1      15.086  -3.714  -3.191  1.00  0.00     0.210 HD
ENDBRANCH  10  12
BRANCH  11  14
HETATM   14  O5  UNL     1      15.501  -1.642  -3.229  1.00  0.00    -0.390 OA
ATOM     15  H5  UNL     1      16.296  -2.151  -3.116  1.00  0.00     0.210 HD
ENDBRANCH  11  14
ENDBRANCH   4   5
ENDBRANCH   3   4
ENDBRANCH   1   3
BRANCH   1  16
HETATM   16  C20 UNL     1      15.770   1.050   2.403  1.00  0.00     0.200 C
BRANCH  16  17
HETATM   17  O4  UNL     1      16.736   0.000   2.387  1.00  0.00    -0.397 OA
ATOM     18  H4  UNL     1      17.450   0.249   2.961  1.00  0.00     0.209 HD
ENDBRANCH  16  17
ENDBRANCH   1  16
BRANCH   2  19
HETATM   19  C8  UNL     1      16.030   3.760   1.158  1.00  0.00     0.030 C
BRANCH  19  20
HETATM   20  C9  UNL     1      15.206   4.975   0.885  1.00  0.00     0.041 C
BRANCH  20  21
HETATM   21  C10 UNL     1      14.581   5.573   2.118  1.00  0.00     0.058 C
HETATM   22  C11 UNL     1      15.256   6.885   2.449  1.00  0.00     0.038 C
HETATM   23  C12 UNL     1      15.297   7.305   3.858  1.00  0.00     0.003 C
HETATM   24  C13 UNL     1      13.958   7.699   4.436  1.00  0.00     0.000 C
HETATM   25  C14 UNL     1      13.701   6.982   5.763  1.00  0.00     0.000 C
HETATM   26  C15 UNL     1      12.396   6.255   5.784  1.00  0.00     0.000 C
HETATM   27  C16 UNL     1      12.476   4.803   6.110  1.00  0.00     0.000 C
HETATM   28  C17 UNL     1      13.356   3.977   5.244  1.00  0.00     0.000 C
HETATM   29  C18 UNL     1      13.186   4.253   3.762  1.00  0.00     0.003 C
HETATM   30  C19 UNL     1      14.559   4.596   3.221  1.00  0.00     0.038 C
BRANCH  21  31
HETATM   31  O3  UNL     1      13.273   5.923   1.787  1.00  0.00    -0.390 OA
ATOM     32  H3  UNL     1      12.733   5.155   1.928  1.00  0.00     0.210 HD
ENDBRANCH  21  31
ENDBRANCH  20  21
ENDBRANCH  19  20
ENDBRANCH   2  19
TORSDOF 11
ENDMDL