MODEL 1
REMARK VINA RESULT: -6.312868246      0.000      0.000
REMARK  10 active torsions:
REMARK  status: ('A' for Active; 'I' for Inactive)
REMARK    1  A    between atoms: C2_2  and  C3_3
REMARK    2  A    between atoms: C3_3  and  C4_4
REMARK    3  A    between atoms: C4_4  and  C5_5
REMARK    4  A    between atoms: C5_5  and  C6_6
REMARK    5  A    between atoms: C8_10  and  N2_11
REMARK    6  A    between atoms: C9_16  and  N4_17
REMARK    7  A    between atoms: N4_17  and  C10_19
REMARK    8  A    between atoms: C10_19  and  C12_21
REMARK    9  A    between atoms: C12_21  and  O1_22
REMARK   10  A    between atoms: N6_29  and  C15_30
ROOT
HETATM    1  C6  UNL     1      14.088   4.536   3.198  1.00  0.00     0.087 A
HETATM    2  N1  UNL     1      15.066   3.748   2.741  1.00  0.00    -0.341 N
ATOM      3  H1  UNL     1      16.021   3.904   3.065  1.00  0.00     0.167 HD
HETATM    4  C7  UNL     1      14.829   2.756   1.868  1.00  0.00     0.111 A
HETATM    5  C8  UNL     1      15.862   1.952   1.410  1.00  0.00     0.144 A
HETATM    6  N3  UNL     1      15.639   0.952   0.535  1.00  0.00    -0.175 N
ATOM      7  H3  UNL     1      16.411   0.370   0.207  1.00  0.00     0.186 HD
HETATM    8  C9  UNL     1      14.391   0.734   0.100  1.00  0.00     0.680 A
HETATM    9  N5  UNL     1      13.353   1.501   0.528  1.00  0.00    -0.184 N
ATOM     10  H5  UNL     1      12.410   1.318   0.186  1.00  0.00     0.184 HD
HETATM   11  C13 UNL     1      13.563   2.491   1.392  1.00  0.00     0.147 A
HETATM   12  C14 UNL     1      12.565   3.326   1.884  1.00  0.00     0.279 A
HETATM   13  O2  UNL     1      11.374   3.135   1.484  1.00  0.00    -0.265 OA
HETATM   14  N6  UNL     1      12.801   4.320   2.758  1.00  0.00    -0.297 N
ENDROOT
BRANCH   8  15
HETATM   15  N4  UNL     1      14.183  -0.218  -0.733  1.00  0.00    -0.220 N
ATOM     16  H4  UNL     1      13.735   0.042  -1.612  1.00  0.00     0.178 HD
BRANCH  15  17
HETATM   17  C10 UNL     1      14.506  -1.594  -0.576  1.00  0.00     0.118 C
HETATM   18  C11 UNL     1      13.217  -2.393  -0.818  1.00  0.00     0.035 C
BRANCH  17  19
HETATM   19  C12 UNL     1      15.517  -2.102  -1.584  1.00  0.00     0.189 C
BRANCH  19  20
HETATM   20  O1  UNL     1      16.727  -1.455  -1.340  1.00  0.00    -0.399 OA
ATOM     21  H1  UNL     1      17.029  -1.082  -2.160  1.00  0.00     0.209 HD
ENDBRANCH  19  20
ENDBRANCH  17  19
ENDBRANCH  15  17
ENDBRANCH   8  15
BRANCH   5  22
HETATM   22  N2  UNL     1      17.070   2.141   1.811  1.00  0.00    -0.383 N
ATOM     23  H22 UNL     1      17.206   2.597   2.713  1.00  0.00     0.157 HD
ATOM     24  H21 UNL     1      17.861   1.842   1.241  1.00  0.00     0.157 HD
ENDBRANCH   5  22
BRANCH  14  25
HETATM   25  C15 UNL     1      11.677   5.111   3.200  1.00  0.00     0.094 C
HETATM   26  C16 UNL     1      10.698   4.337   4.056  1.00  0.00     0.026 C
HETATM   27  C17 UNL     1       9.658   5.383   4.488  1.00  0.00     0.002 C
HETATM   28  C18 UNL     1       8.787   5.576   3.276  1.00  0.00     0.000 C
HETATM   29  C19 UNL     1       9.553   5.823   2.034  1.00  0.00     0.002 C
HETATM   30  C20 UNL     1      11.021   5.923   2.133  1.00  0.00     0.026 C
ENDBRANCH  14  25
BRANCH   1  31
HETATM   31  C5  UNL     1      14.253   5.645   4.154  1.00  0.00     0.077 C
BRANCH  31  32
HETATM   32  C4  UNL     1      15.019   6.784   3.548  1.00  0.00     0.007 C
BRANCH  32  33
HETATM   33  C3  UNL     1      14.440   8.139   3.782  1.00  0.00     0.000 C
BRANCH  33  34
HETATM   34  C2  UNL     1      13.610   8.493   2.530  1.00  0.00    -0.005 C
HETATM   35  C1  UNL     1      14.139   7.796   1.320  1.00  0.00     0.005 C
ENDBRANCH  33  34
ENDBRANCH  32  33
ENDBRANCH  31  32
ENDBRANCH   1  31
TORSDOF 10
ENDMDL