MODEL 3
REMARK VINA RESULT: -6.693846517      0.850      1.010
REMARK  11 active torsions:
REMARK  status: ('A' for Active; 'I' for Inactive)
REMARK    1  A    between atoms: C2_2  and  C3_3
REMARK    2  A    between atoms: C10_10  and  C11_11
REMARK    3  A    between atoms: C11_11  and  C12_12
REMARK    4  A    between atoms: C12_12  and  C13_13
REMARK    5  A    between atoms: C13_13  and  C14_14
REMARK    6  A    between atoms: C14_14  and  O1_15
REMARK    7  A    between atoms: N1_17  and  O2_19
REMARK    8  A    between atoms: C15_21  and  O3_22
REMARK    9  A    between atoms: O3_22  and  C16_23
REMARK   10  A    between atoms: C16_23  and  C17_25
REMARK   11  A    between atoms: C21_32  and  O5_33
ROOT
HETATM    1  C3  UNL     1      14.795   7.959   2.749  1.00  0.00     0.030 C
HETATM    2  C4  UNL     1      13.509   7.942   2.051  1.00  0.00    -0.022 C
HETATM    3  C5  UNL     1      13.044   6.926   1.390  1.00  0.00    -0.022 C
HETATM    4  C6  UNL     1      13.756   5.647   1.255  1.00  0.00     0.043 C
HETATM    5  C7  UNL     1      15.202   5.804   1.562  1.00  0.00    -0.003 C
HETATM    6  C8  UNL     1      15.459   6.622   2.788  1.00  0.00     0.017 C
HETATM    7  C9  UNL     1      15.976   4.508   1.617  1.00  0.00     0.012 C
HETATM    8  C10 UNL     1      15.164   3.287   1.757  1.00  0.00     0.018 C
HETATM    9  C15 UNL     1      13.970   3.589   2.659  1.00  0.00     0.165 C
HETATM   10  C21 UNL     1      13.063   4.646   2.147  1.00  0.00     0.156 C
ENDROOT
BRANCH   8  11
HETATM   11  C11 UNL     1      14.807   2.437   0.617  1.00  0.00     0.007 C
BRANCH  11  12
HETATM   12  C12 UNL     1      15.608   1.327   0.143  1.00  0.00     0.008 C
BRANCH  12  13
HETATM   13  C13 UNL     1      15.061  -0.037   0.084  1.00  0.00     0.086 C
BRANCH  13  14
HETATM   14  C14 UNL     1      15.527  -0.891  -1.020  1.00  0.00     0.135 C
HETATM   15  N1  UNL     1      14.881  -0.826  -2.160  1.00  0.00    -0.251 N
ATOM     16  H1  UNL     1      14.087  -0.189  -2.230  1.00  0.00     0.196 HD
BRANCH  14  17
HETATM   17  O1  UNL     1      16.592  -1.761  -0.966  1.00  0.00    -0.348 OA
ATOM     18  H1  UNL     1      17.009  -2.173  -1.714  1.00  0.00     0.219 HD
ENDBRANCH  14  17
BRANCH  15  19
HETATM   19  O2  UNL     1      15.212  -1.562  -3.248  1.00  0.00    -0.288 OA
ATOM     20  H2  UNL     1      14.579  -1.861  -3.889  1.00  0.00     0.244 HD
ENDBRANCH  15  19
ENDBRANCH  13  14
ENDBRANCH  12  13
ENDBRANCH  11  12
ENDBRANCH   8  11
BRANCH   9  21
HETATM   21  O3  UNL     1      13.258   2.362   2.753  1.00  0.00    -0.311 OA
BRANCH  21  22
HETATM   22  C16 UNL     1      13.259   1.584   3.885  1.00  0.00     0.290 C
HETATM   23  O4  UNL     1      14.309   0.962   4.180  1.00  0.00    -0.263 OA
BRANCH  22  24
HETATM   24  C17 UNL     1      12.062   1.487   4.723  1.00  0.00     0.284 C
HETATM   25  C18 UNL     1      10.837   2.100   4.110  1.00  0.00     0.045 C
HETATM   26  C19 UNL     1       9.724   1.412   4.899  1.00  0.00     0.030 C
HETATM   27  C20 UNL     1      10.408   0.242   5.600  1.00  0.00     0.233 C
HETATM   28  N2  UNL     1      11.678   0.098   4.911  1.00  0.00    -0.062 N
ATOM     29  H22 UNL     1      11.652  -0.466   4.062  1.00  0.00     0.278 HD
ATOM     30  H21 UNL     1      12.368  -0.485   5.386  1.00  0.00     0.278 HD
ENDBRANCH  22  24
ENDBRANCH  21  22
ENDBRANCH   9  21
BRANCH  10  31
HETATM   31  O5  UNL     1      12.442   5.366   3.190  1.00  0.00    -0.392 OA
ATOM     32  H5  UNL     1      11.693   4.859   3.482  1.00  0.00     0.210 HD
ENDBRANCH  10  31
BRANCH   1  33
HETATM   33  C2  UNL     1      14.551   8.449   4.158  1.00  0.00    -0.028 C
HETATM   34  C1  UNL     1      14.139   7.627   5.100  1.00  0.00     0.007 C
ENDBRANCH   1  33
TORSDOF 11
ENDMDL