MODEL 5
REMARK VINA RESULT: -5.458478692      3.660      5.399
REMARK  9 active torsions:
REMARK  status: ('A' for Active; 'I' for Inactive)
REMARK    1  A    between atoms: O1_2  and  C2_3
REMARK    2  A    between atoms: C4_5  and  C5_6
REMARK    3  A    between atoms: C5_6  and  C6_7
REMARK    4  A    between atoms: C8_11  and  N2_12
REMARK    5  A    between atoms: C9_17  and  N4_18
REMARK    6  A    between atoms: C10_21  and  O2_22
REMARK    7  A    between atoms: O2_22  and  C11_23
REMARK    8  A    between atoms: C17_29  and  O3_30
REMARK    9  A    between atoms: C19_32  and  O4_33
ROOT
HETATM    1  C2  UNL     1      12.661   0.553   4.895  1.00  0.00     0.105 A
HETATM    2  C3  UNL     1      12.401   0.856   3.562  1.00  0.00     0.050 A
HETATM    3  C4  UNL     1      12.407   2.136   3.068  1.00  0.00    -0.015 A
HETATM    4  C10 UNL     1      12.684   3.242   3.900  1.00  0.00     0.112 A
HETATM    5  C17 UNL     1      12.940   2.937   5.207  1.00  0.00     0.138 A
HETATM    6  C19 UNL     1      12.931   1.622   5.706  1.00  0.00     0.138 A
ENDROOT
BRANCH   3   7
HETATM    7  C5  UNL     1      12.136   2.373   1.648  1.00  0.00     0.085 C
BRANCH   7   8
HETATM    8  C6  UNL     1      13.075   1.570   0.828  1.00  0.00     0.006 A
HETATM    9  C7  UNL     1      14.415   1.967   0.778  1.00  0.00     0.117 A
HETATM   10  N1  UNL     1      15.293   1.265   0.044  1.00  0.00    -0.202 N
HETATM   11  C8  UNL     1      14.915   0.177  -0.655  1.00  0.00     0.677 A
ATOM     12  H1  UNL     1      16.269   1.562   0.015  1.00  0.00     0.183 HD
HETATM   13  N3  UNL     1      13.625  -0.202  -0.605  1.00  0.00    -0.177 N
HETATM   14  C9  UNL     1      12.698   0.452   0.107  1.00  0.00     0.122 A
ATOM     15  H3  UNL     1      13.340  -1.026  -1.134  1.00  0.00     0.185 HD
BRANCH  11  16
HETATM   16  N2  UNL     1      15.744  -0.519  -1.373  1.00  0.00    -0.234 N
ATOM     17  H22 UNL     1      16.674  -0.142  -1.553  1.00  0.00     0.174 HD
ATOM     18  H21 UNL     1      15.503  -1.429  -1.766  1.00  0.00     0.174 HD
ENDBRANCH  11  16
BRANCH  14  19
HETATM   19  N4  UNL     1      11.469   0.106   0.164  1.00  0.00    -0.385 N
ATOM     20  H42 UNL     1      10.707   0.749   0.379  1.00  0.00     0.157 HD
ATOM     21  H41 UNL     1      11.250  -0.874  -0.018  1.00  0.00     0.157 HD
ENDBRANCH  14  19
ENDBRANCH   7   8
ENDBRANCH   3   7
BRANCH   4  22
HETATM   22  O2  UNL     1      12.691   4.507   3.450  1.00  0.00    -0.342 OA
BRANCH  22  23
HETATM   23  C11 UNL     1      13.544   5.429   2.968  1.00  0.00     0.129 C
HETATM   24  C12 UNL     1      12.960   5.949   1.630  1.00  0.00     0.032 C
HETATM   25  C13 UNL     1      12.988   7.441   1.538  1.00  0.00     0.002 C
HETATM   26  C14 UNL     1      14.341   7.981   1.852  1.00  0.00     0.000 C
HETATM   27  C15 UNL     1      14.718   7.610   3.256  1.00  0.00     0.002 C
HETATM   28  C16 UNL     1      13.667   6.663   3.868  1.00  0.00     0.032 C
ENDBRANCH  22  23
ENDBRANCH   4  22
BRANCH   1  29
HETATM   29  O1  UNL     1      12.649  -0.740   5.385  1.00  0.00    -0.353 OA
HETATM   30  C1  UNL     1      11.457  -1.501   5.339  1.00  0.00     0.210 C
ENDBRANCH   1  29
BRANCH   5  31
HETATM   31  O3  UNL     1      13.238   3.937   6.134  1.00  0.00    -0.351 OA
HETATM   32  C18 UNL     1      12.071   4.619   6.631  1.00  0.00     0.210 C
ENDBRANCH   5  31
BRANCH   6  33
HETATM   33  O4  UNL     1      13.201   1.377   7.055  1.00  0.00    -0.351 OA
HETATM   34  C20 UNL     1      12.099   1.224   7.944  1.00  0.00     0.210 C
ENDBRANCH   6  33
TORSDOF 9
ENDMDL