MODEL 2
REMARK VINA RESULT: -5.896180568      5.980      7.357
REMARK  9 active torsions:
REMARK  status: ('A' for Active; 'I' for Inactive)
REMARK    1  A    between atoms: C2_4  and  O1_5
REMARK    2  A    between atoms: C2_4  and  C3_7
REMARK    3  A    between atoms: C3_7  and  S1_8
REMARK    4  A    between atoms: S1_8  and  C4_9
REMARK    5  A    between atoms: C4_9  and  C5_10
REMARK    6  A    between atoms: C6_11  and  C7_12
REMARK    7  A    between atoms: C9_17  and  C10_18
REMARK    8  A    between atoms: C10_18  and  C11_19
REMARK    9  A    between atoms: C14_24  and  N4_25
ROOT
HETATM    1  C7  UNL     1       7.937   3.874  -0.177  1.00  0.00     0.035 C
HETATM    2  C8  UNL     1       8.679   2.627  -0.642  1.00  0.00     0.241 C
HETATM    3  N2  UNL     1      10.014   3.096  -0.837  1.00  0.00    -0.070 N
ATOM      4  H21 UNL     1      10.182   3.486  -1.765  1.00  0.00     0.277 HD
ATOM      5  H22 UNL     1      10.708   2.350  -0.895  1.00  0.00     0.277 HD
HETATM    6  C9  UNL     1      10.249   4.024   0.232  1.00  0.00     0.193 C
HETATM    7  C20 UNL     1       8.958   4.600   0.693  1.00  0.00     0.043 C
ENDROOT
BRANCH   6   8
HETATM    8  C10 UNL     1      10.984   3.254   1.339  1.00  0.00     0.109 C
BRANCH   8   9
HETATM    9  C11 UNL     1      12.251   3.987   1.565  1.00  0.00     0.084 A
HETATM   10  N3  UNL     1      12.259   5.311   1.352  1.00  0.00    -0.349 N
HETATM   11  C12 UNL     1      13.385   6.015   1.543  1.00  0.00     0.020 A
ATOM     12  H3  UNL     1      11.408   5.784   1.045  1.00  0.00     0.167 HD
HETATM   13  C13 UNL     1      14.547   5.341   1.968  1.00  0.00     0.008 A
HETATM   14  C19 UNL     1      13.229   7.473   1.277  1.00  0.00     0.057 C
HETATM   15  C14 UNL     1      14.551   4.005   2.187  1.00  0.00     0.108 A
HETATM   16  C15 UNL     1      15.832   6.018   2.194  1.00  0.00     0.044 C
HETATM   17  N5  UNL     1      13.352   3.346   1.968  1.00  0.00    -0.332 N
ATOM     18  H5  UNL     1      13.308   2.338   2.121  1.00  0.00     0.168 HD
HETATM   19  C16 UNL     1      15.675   6.777   3.511  1.00  0.00     0.005 C
HETATM   20  C17 UNL     1      14.338   7.495   3.548  1.00  0.00     0.001 C
HETATM   21  C18 UNL     1      14.020   8.241   2.295  1.00  0.00     0.006 C
BRANCH  15  22
HETATM   22  N4  UNL     1      15.558   3.358   2.584  1.00  0.00    -0.385 N
ATOM     23  H42 UNL     1      16.306   3.134   1.929  1.00  0.00     0.157 HD
ATOM     24  H41 UNL     1      15.678   3.018   3.538  1.00  0.00     0.157 HD
ENDBRANCH  15  22
ENDBRANCH   8   9
ENDBRANCH   6   8
BRANCH   1  25
HETATM   25  C6  UNL     1       7.663   4.672  -1.393  1.00  0.00    -0.024 C
HETATM   26  C5  UNL     1       6.577   4.704  -2.108  1.00  0.00    -0.020 C
BRANCH  26  27
HETATM   27  C4  UNL     1       5.384   3.902  -1.799  1.00  0.00     0.101 C
BRANCH  27  28
HETATM   28  S1  UNL     1       4.500   3.457  -3.340  1.00  0.00    -0.157 SA
BRANCH  28  29
HETATM   29  C3  UNL     1       5.158   4.457  -4.723  1.00  0.00     0.157 C
BRANCH  29  30
HETATM   30  C2  UNL     1       4.361   5.692  -4.885  1.00  0.00     0.120 C
HETATM   31  N1  UNL     1       3.200   5.666  -5.479  1.00  0.00    -0.378 N
HETATM   32  C1  UNL     1       2.398   6.851  -5.651  1.00  0.00     0.148 C
ATOM     33  H1  UNL     1       2.848   4.777  -5.835  1.00  0.00     0.160 HD
BRANCH  30  34
HETATM   34  O1  UNL     1       4.814   6.902  -4.417  1.00  0.00    -0.349 OA
ATOM     35  H1  UNL     1       4.242   7.397  -3.841  1.00  0.00     0.219 HD
ENDBRANCH  30  34
ENDBRANCH  29  30
ENDBRANCH  28  29
ENDBRANCH  27  28
ENDBRANCH  26  27
ENDBRANCH   1  25
TORSDOF 9
ENDMDL