MODEL 5
REMARK VINA RESULT: -5.719447491      2.779      8.050
REMARK  8 active torsions:
REMARK  status: ('A' for Active; 'I' for Inactive)
REMARK    1  A    between atoms: O1_2  and  C2_3
REMARK    2  A    between atoms: C8_9  and  O2_10
REMARK    3  A    between atoms: C9_12  and  C10_13
REMARK    4  A    between atoms: C12_15  and  C13_16
REMARK    5  A    between atoms: C13_16  and  N1_17
REMARK    6  A    between atoms: N1_17  and  C14_20
REMARK    7  A    between atoms: C14_20  and  C15_21
REMARK    8  A    between atoms: C15_21  and  N2_22
ROOT
HETATM    1  C10 UNL     1      13.289   3.276   1.611  1.00  0.00     0.067 A
HETATM    2  C11 UNL     1      14.267   2.344   1.316  1.00  0.00     0.058 A
HETATM    3  C12 UNL     1      13.976   1.172   0.610  1.00  0.00     0.054 A
HETATM    4  N3  UNL     1      12.711   0.962   0.217  1.00  0.00    -0.194 N
ATOM      5  H3  UNL     1      12.475   0.113  -0.299  1.00  0.00     0.184 HD
HETATM    6  C22 UNL     1      11.764   1.849   0.495  1.00  0.00     0.676 A
HETATM    7  N4  UNL     1      10.544   1.665   0.126  1.00  0.00    -0.234 N
ATOM      8  H41 UNL     1       9.816   2.348   0.340  1.00  0.00     0.174 HD
ATOM      9  H42 UNL     1      10.334   0.809  -0.388  1.00  0.00     0.174 HD
HETATM   10  N5  UNL     1      12.045   2.997   1.184  1.00  0.00    -0.191 N
ATOM     11  H5  UNL     1      11.292   3.657   1.378  1.00  0.00     0.184 HD
ENDROOT
BRANCH   3  12
HETATM   12  C13 UNL     1      15.022   0.187   0.299  1.00  0.00     0.289 C
BRANCH  12  13
HETATM   13  N1  UNL     1      15.346   0.170  -1.129  1.00  0.00    -0.068 N
ATOM     14  H12 UNL     1      14.893   0.920  -1.651  1.00  0.00     0.277 HD
ATOM     15  H11 UNL     1      16.310   0.439  -1.326  1.00  0.00     0.277 HD
BRANCH  13  16
HETATM   16  C14 UNL     1      15.011  -1.151  -1.621  1.00  0.00     0.262 C
BRANCH  16  17
HETATM   17  C15 UNL     1      15.117  -2.202  -0.561  1.00  0.00     0.299 C
BRANCH  17  18
HETATM   18  N2  UNL     1      14.017  -3.112  -0.491  1.00  0.00     0.090 N
HETATM   19  C16 UNL     1      13.016  -2.732  -1.436  1.00  0.00     0.273 C
HETATM   20  C17 UNL     1      12.444  -3.920  -2.200  1.00  0.00     0.034 C
HETATM   21  C18 UNL     1      13.578  -4.523  -2.981  1.00  0.00    -0.015 C
HETATM   22  C19 UNL     1      13.076  -5.796  -3.634  1.00  0.00     0.010 C
HETATM   23  C20 UNL     1      14.738  -4.773  -2.059  1.00  0.00     0.034 C
HETATM   24  C21 UNL     1      14.393  -4.490  -0.601  1.00  0.00     0.273 C
ENDBRANCH  17  18
ENDBRANCH  16  17
ENDBRANCH  13  16
ENDBRANCH  12  13
ENDBRANCH   3  12
BRANCH   1  25
HETATM   25  C9  UNL     1      13.588   4.453   2.432  1.00  0.00     0.058 A
HETATM   26  C2  UNL     1      13.719   4.327   3.799  1.00  0.00     0.084 A
HETATM   27  C3  UNL     1      13.915   5.475   4.567  1.00  0.00     0.045 A
HETATM   28  C4  UNL     1      13.977   6.715   3.960  1.00  0.00    -0.051 A
HETATM   29  C5  UNL     1      14.185   7.903   4.797  1.00  0.00     0.049 C
HETATM   30  C6  UNL     1      13.852   6.865   2.622  1.00  0.00    -0.022 A
HETATM   31  C7  UNL     1      13.916   8.166   1.977  1.00  0.00     0.052 C
HETATM   32  C8  UNL     1      13.654   5.725   1.844  1.00  0.00     0.087 A
BRANCH  26  33
HETATM   33  O1  UNL     1      13.670   3.104   4.441  1.00  0.00    -0.355 OA
HETATM   34  C1  UNL     1      12.543   2.766   5.217  1.00  0.00     0.210 C
ENDBRANCH  26  33
BRANCH  32  35
HETATM   35  O2  UNL     1      13.521   5.883   0.485  1.00  0.00    -0.359 OA
ATOM     36  H2  UNL     1      14.304   6.061  -0.023  1.00  0.00     0.217 HD
ENDBRANCH  32  35
ENDBRANCH   1  25
TORSDOF 8
ENDMDL