MODEL 5
REMARK VINA RESULT: -5.681707660      5.031      7.619
REMARK  9 active torsions:
REMARK  status: ('A' for Active; 'I' for Inactive)
REMARK    1  A    between atoms: C2_2  and  C3_3
REMARK    2  A    between atoms: C3_3  and  O1_4
REMARK    3  A    between atoms: O1_4  and  C4_5
REMARK    4  A    between atoms: C6_7  and  O2_8
REMARK    5  A    between atoms: C8_10  and  O3_11
REMARK    6  A    between atoms: O3_11  and  C9_12
REMARK    7  A    between atoms: C16_19  and  C17_20
REMARK    8  A    between atoms: C20_26  and  N2_27
REMARK    9  A    between atoms: C21_32  and  N4_33
ROOT
HETATM    1  C4  UNL     1       9.489   3.260   2.110  1.00  0.00     0.082 A
HETATM    2  C5  UNL     1      10.398   3.111   3.130  1.00  0.00     0.077 A
HETATM    3  C6  UNL     1      11.699   3.631   3.026  1.00  0.00     0.104 A
HETATM    4  C8  UNL     1      12.102   4.301   1.910  1.00  0.00     0.103 A
HETATM    5  C15 UNL     1      11.156   4.445   0.874  1.00  0.00     0.055 A
HETATM    6  C16 UNL     1       9.886   3.951   0.945  1.00  0.00     0.015 A
ENDROOT
BRANCH   6   7
HETATM    7  C17 UNL     1       8.902   4.107  -0.130  1.00  0.00     0.036 C
HETATM    8  C18 UNL     1       9.027   3.292  -1.236  1.00  0.00     0.107 C
HETATM    9  N1  UNL     1       8.412   3.398  -2.431  1.00  0.00    -0.330 N
HETATM   10  C19 UNL     1       7.288   4.108  -2.741  1.00  0.00     0.289 C
ATOM     11  H1  UNL     1       8.840   2.883  -3.200  1.00  0.00     0.168 HD
HETATM   12  O4  UNL     1       6.860   3.993  -3.925  1.00  0.00    -0.264 OA
HETATM   13  C20 UNL     1       6.526   4.948  -1.955  1.00  0.00     0.170 C
HETATM   14  N3  UNL     1       6.755   5.244  -0.657  1.00  0.00    -0.324 N
HETATM   15  C21 UNL     1       7.900   5.072   0.047  1.00  0.00     0.113 C
ATOM     16  H3  UNL     1       5.970   5.646  -0.144  1.00  0.00     0.169 HD
BRANCH  13  17
HETATM   17  N2  UNL     1       5.499   5.512  -2.492  1.00  0.00    -0.381 N
ATOM     18  H22 UNL     1       5.538   5.646  -3.503  1.00  0.00     0.157 HD
ATOM     19  H21 UNL     1       4.728   5.782  -1.881  1.00  0.00     0.157 HD
ENDBRANCH  13  17
BRANCH  15  20
HETATM   20  N4  UNL     1       8.103   5.904   1.007  1.00  0.00    -0.385 N
ATOM     21  H42 UNL     1       9.023   5.865   1.446  1.00  0.00     0.157 HD
ATOM     22  H41 UNL     1       7.316   6.515   1.226  1.00  0.00     0.157 HD
ENDBRANCH  15  20
ENDBRANCH   6   7
BRANCH   1  23
HETATM   23  O1  UNL     1       8.219   2.778   2.164  1.00  0.00    -0.350 OA
BRANCH  23  24
HETATM   24  C3  UNL     1       7.384   2.743   3.246  1.00  0.00     0.175 C
BRANCH  24  25
HETATM   25  C2  UNL     1       6.341   3.805   3.362  1.00  0.00     0.022 C
HETATM   26  C1  UNL     1       6.910   4.865   4.319  1.00  0.00     0.007 C
ENDBRANCH  24  25
ENDBRANCH  23  24
ENDBRANCH   1  23
BRANCH   4  27
HETATM   27  O3  UNL     1      13.316   4.814   1.753  1.00  0.00    -0.343 OA
BRANCH  27  28
HETATM   28  C9  UNL     1      13.930   5.938   1.330  1.00  0.00     0.129 C
HETATM   29  C10 UNL     1      13.015   7.126   1.610  1.00  0.00     0.032 C
HETATM   30  C11 UNL     1      13.748   8.343   2.087  1.00  0.00     0.002 C
HETATM   31  C12 UNL     1      14.506   8.108   3.376  1.00  0.00     0.000 C
HETATM   32  C13 UNL     1      14.909   6.656   3.523  1.00  0.00     0.002 C
HETATM   33  C14 UNL     1      15.218   6.083   2.167  1.00  0.00     0.032 C
ENDBRANCH  27  28
ENDBRANCH   4  27
BRANCH   3  34
HETATM   34  O2  UNL     1      12.597   3.470   4.059  1.00  0.00    -0.353 OA
HETATM   35  C7  UNL     1      12.474   4.271   5.221  1.00  0.00     0.210 C
ENDBRANCH   3  34
TORSDOF 9
ENDMDL