MODEL 2
REMARK VINA RESULT: -6.175692177      2.353      5.637
REMARK  7 active torsions:
REMARK  status: ('A' for Active; 'I' for Inactive)
REMARK    1  A    between atoms: C5_14  and  C6_15
REMARK    2  A    between atoms: C6_15  and  N5_16
REMARK    3  A    between atoms: C6_15  and  C10_23
REMARK    4  A    between atoms: N5_16  and  C7_18
REMARK    5  A    between atoms: C7_18  and  C8_19
REMARK    6  A    between atoms: C8_19  and  C9_20
REMARK    7  A    between atoms: N7_29  and  C16_30
ROOT
HETATM    1  N1  UNL     1      16.958   2.110   2.019  1.00  0.00    -0.383 N
ATOM      2  H11 UNL     1      17.129   2.841   2.710  1.00  0.00     0.157 HD
ATOM      3  H12 UNL     1      17.767   1.570   1.711  1.00  0.00     0.157 HD
HETATM    4  C1  UNL     1      15.813   1.821   1.517  1.00  0.00     0.131 A
HETATM    5  N2  UNL     1      15.589   0.858   0.607  1.00  0.00    -0.337 N
ATOM      6  H2  UNL     1      16.379   0.300   0.281  1.00  0.00     0.168 HD
HETATM    7  C2  UNL     1      14.357   0.597   0.104  1.00  0.00     0.183 A
HETATM    8  N3  UNL     1      13.331   1.341   0.546  1.00  0.00    -0.336 N
ATOM      9  H3  UNL     1      12.403   1.147   0.170  1.00  0.00     0.168 HD
HETATM   10  C3  UNL     1      13.449   2.328   1.456  1.00  0.00     0.145 A
HETATM   11  C4  UNL     1      14.710   2.558   1.937  1.00  0.00     0.123 A
HETATM   12  N4  UNL     1      14.555   3.555   2.799  1.00  0.00    -0.334 N
ATOM     13  H4  UNL     1      15.312   3.973   3.338  1.00  0.00     0.168 HD
HETATM   14  C5  UNL     1      13.241   3.953   2.869  1.00  0.00     0.137 A
HETATM   15  N7  UNL     1      12.533   3.190   2.030  1.00  0.00    -0.287 N
ENDROOT
BRANCH  14  16
HETATM   16  C6  UNL     1      12.783   5.063   3.746  1.00  0.00     0.054 C
BRANCH  16  17
HETATM   17  N5  UNL     1      12.625   6.294   3.090  1.00  0.00    -0.389 N
ATOM     18  H5  UNL     1      11.791   6.850   3.276  1.00  0.00     0.159 HD
BRANCH  17  19
HETATM   19  C7  UNL     1      13.590   6.785   2.181  1.00  0.00     0.128 C
BRANCH  19  20
HETATM   20  C8  UNL     1      14.272   8.063   2.743  1.00  0.00     0.119 C
BRANCH  20  21
HETATM   21  C9  UNL     1      15.472   7.612   3.482  1.00  0.00     0.232 C
HETATM   22  N6  UNL     1      16.029   6.325   3.249  1.00  0.00    -0.062 NA
HETATM   23  O1  UNL     1      15.994   8.377   4.322  1.00  0.00    -0.277 OA
ENDBRANCH  20  21
ENDBRANCH  19  20
ENDBRANCH  17  19
ENDBRANCH  16  17
BRANCH  16  24
HETATM   24  C10 UNL     1      13.213   4.949   5.153  1.00  0.00     0.039 C
HETATM   25  C11 UNL     1      12.171   4.041   5.849  1.00  0.00     0.011 C
HETATM   26  C12 UNL     1      12.620   3.675   7.243  1.00  0.00     0.001 C
HETATM   27  C13 UNL     1      12.462   4.964   8.054  1.00  0.00     0.000 C
HETATM   28  C14 UNL     1      13.415   5.932   7.450  1.00  0.00     0.001 C
HETATM   29  C15 UNL     1      13.189   6.216   5.973  1.00  0.00     0.011 C
ENDBRANCH  16  24
ENDBRANCH  14  16
BRANCH  15  30
HETATM   30  C16 UNL     1      11.169   3.164   1.685  1.00  0.00    -0.002 C
HETATM   31  C17 UNL     1      10.634   4.302   0.851  1.00  0.00     0.053 C
HETATM   32  C18 UNL     1       9.453   3.825   0.035  1.00  0.00     0.006 C
HETATM   33  C19 UNL     1       8.919   2.510   0.446  1.00  0.00     0.001 C
HETATM   34  C20 UNL     1       8.898   2.229   1.901  1.00  0.00     0.006 C
HETATM   35  C21 UNL     1      10.117   2.805   2.660  1.00  0.00     0.053 C
ENDBRANCH  15  30
TORSDOF 7
ENDMDL