MODEL 2
REMARK VINA RESULT: -5.093208920      1.147      1.370
REMARK  11 active torsions:
REMARK  status: ('A' for Active; 'I' for Inactive)
REMARK    1  A    between atoms: C2_2  and  O1_4
REMARK    2  A    between atoms: C2_2  and  C4_6
REMARK    3  A    between atoms: C4_6  and  C5_7
REMARK    4  A    between atoms: C5_7  and  C6_8
REMARK    5  A    between atoms: C6_8  and  O2_9
REMARK    6  A    between atoms: C6_8  and  C7_11
REMARK    7  A    between atoms: C7_11  and  C8_12
REMARK    8  A    between atoms: C10_14  and  C12_16
REMARK    9  A    between atoms: C12_16  and  O3_17
REMARK   10  A    between atoms: C15_21  and  O4_22
REMARK   11  A    between atoms: C16_24  and  C18_26
ROOT
HETATM    1  C8  UNL     1      13.295   4.717   2.163  1.00  0.00    -0.022 C
HETATM    2  C9  UNL     1      13.116   5.417   0.841  1.00  0.00     0.017 C
HETATM    3  C10 UNL     1      14.176   5.672   2.918  1.00  0.00    -0.015 C
HETATM    4  C11 UNL     1      13.685   7.116   2.863  1.00  0.00     0.018 C
HETATM    5  C13 UNL     1      14.152   5.358   4.432  1.00  0.00     0.014 C
HETATM    6  C14 UNL     1      12.852   5.770   4.935  1.00  0.00     0.033 C
HETATM    7  C15 UNL     1      11.807   4.975   4.241  1.00  0.00     0.127 C
HETATM    8  C16 UNL     1      11.883   4.711   2.793  1.00  0.00    -0.005 C
HETATM    9  C17 UNL     1      10.922   5.622   2.066  1.00  0.00     0.019 C
ENDROOT
BRANCH   1  10
HETATM   10  C7  UNL     1      13.812   3.359   1.965  1.00  0.00     0.042 C
BRANCH  10  11
HETATM   11  C6  UNL     1      14.878   2.875   1.114  1.00  0.00     0.119 C
BRANCH  11  12
HETATM   12  C5  UNL     1      14.576   1.325   0.919  1.00  0.00     0.034 C
BRANCH  12  13
HETATM   13  C4  UNL     1      15.271   0.848  -0.297  1.00  0.00     0.039 C
BRANCH  13  14
HETATM   14  C2  UNL     1      14.721  -0.454  -0.832  1.00  0.00     0.051 C
HETATM   15  C1  UNL     1      13.257  -0.631  -0.501  1.00  0.00     0.045 C
HETATM   16  C3  UNL     1      15.512  -1.569  -0.159  1.00  0.00     0.045 C
BRANCH  14  17
HETATM   17  O1  UNL     1      14.956  -0.549  -2.198  1.00  0.00    -0.391 OA
ATOM     18  H1  UNL     1      15.745  -1.042  -2.387  1.00  0.00     0.210 HD
ENDBRANCH  14  17
ENDBRANCH  13  14
ENDBRANCH  12  13
ENDBRANCH  11  12
BRANCH  11  19
HETATM   19  O2  UNL     1      16.181   2.816   1.386  1.00  0.00    -0.396 OA
ATOM     20  H2  UNL     1      16.377   3.745   1.424  1.00  0.00     0.210 HD
ENDBRANCH  11  19
ENDBRANCH  10  11
ENDBRANCH   1  10
BRANCH   3  21
HETATM   21  C12 UNL     1      15.589   5.887   2.653  1.00  0.00     0.173 C
BRANCH  21  22
HETATM   22  O3  UNL     1      16.358   6.634   3.529  1.00  0.00    -0.400 OA
ATOM     23  H3  UNL     1      16.412   6.391   4.446  1.00  0.00     0.209 HD
ENDBRANCH  21  22
ENDBRANCH   3  21
BRANCH   8  24
HETATM   24  C18 UNL     1      11.108   3.383   2.629  1.00  0.00     0.014 C
HETATM   25  C19 UNL     1       9.627   3.584   2.829  1.00  0.00     0.088 C
HETATM   26  S1  UNL     1       8.734   2.880   1.409  1.00  0.00    -0.092 SA
HETATM   27  C20 UNL     1      10.167   2.834   0.389  1.00  0.00     0.186 C
HETATM   28  O5  UNL     1      10.165   2.939  -0.805  1.00  0.00    -0.285 OA
HETATM   29  C21 UNL     1      11.244   2.643   1.386  1.00  0.00     0.097 C
ENDBRANCH   8  24
BRANCH   7  30
HETATM   30  O4  UNL     1      11.797   3.762   4.999  1.00  0.00    -0.395 OA
ATOM     31  H4  UNL     1      11.955   3.106   4.330  1.00  0.00     0.210 HD
ENDBRANCH   7  30
TORSDOF 11
ENDMDL