MODEL 3
REMARK VINA RESULT: -6.225786961      4.553      6.214
REMARK  8 active torsions:
REMARK  status: ('A' for Active; 'I' for Inactive)
REMARK    1  A    between atoms: C2_2  and  N1_5
REMARK    2  A    between atoms: N1_5  and  C5_8
REMARK    3  A    between atoms: C5_8  and  C6_9
REMARK    4  A    between atoms: C7_10  and  N2_11
REMARK       I    between atoms: N2_11  and  C8_13
REMARK    5  A    between atoms: C8_13  and  C9_15
REMARK    6  A    between atoms: C9_15  and  C10_16
REMARK    7  A    between atoms: C10_16  and  N3_17
REMARK    8  A    between atoms: N3_17  and  C11_19
ROOT
HETATM    1  C6  UNL     1       7.590   4.509  -0.187  1.00  0.00     0.011 A
HETATM    2  C7  UNL     1       8.799   3.829   0.150  1.00  0.00     0.059 A
HETATM    3  C18 UNL     1       9.495   3.266  -0.864  1.00  0.00     0.119 A
HETATM    4  N4  UNL     1       9.063   3.342  -2.160  1.00  0.00    -0.348 N
ATOM      5  H4  UNL     1       9.614   2.905  -2.898  1.00  0.00     0.167 HD
HETATM    6  C19 UNL     1       7.931   3.981  -2.476  1.00  0.00     0.132 A
HETATM    7  N5  UNL     1       7.320   4.198  -3.652  1.00  0.00    -0.285 N
ATOM      8  H5  UNL     1       7.656   3.870  -4.557  1.00  0.00     0.188 HD
HETATM    9  N6  UNL     1       6.242   4.885  -3.466  1.00  0.00    -0.309 N
ATOM     10  H6  UNL     1       5.596   5.184  -4.197  1.00  0.00     0.186 HD
HETATM   11  C20 UNL     1       6.109   5.146  -2.130  1.00  0.00     0.123 A
HETATM   12  C21 UNL     1       7.176   4.576  -1.492  1.00  0.00     0.036 A
ENDROOT
BRANCH   2  13
HETATM   13  N2  UNL     1       9.203   3.806   1.477  1.00  0.00    -0.325 N
HETATM   14  C8  UNL     1       9.880   4.823   2.147  1.00  0.00     0.226 C
HETATM   15  O1  UNL     1      10.214   5.884   1.634  1.00  0.00    -0.273 OA
ATOM     16  H2  UNL     1       8.983   2.966   2.013  1.00  0.00     0.169 HD
BRANCH  14  17
HETATM   17  C9  UNL     1      10.246   4.641   3.608  1.00  0.00     0.147 C
BRANCH  17  18
HETATM   18  C10 UNL     1      11.727   4.587   3.738  1.00  0.00     0.066 C
BRANCH  18  19
HETATM   19  N3  UNL     1      12.396   5.742   3.375  1.00  0.00    -0.386 N
ATOM     20  H3  UNL     1      11.858   6.609   3.375  1.00  0.00     0.159 HD
BRANCH  19  21
HETATM   21  C11 UNL     1      13.730   5.830   3.010  1.00  0.00     0.086 C
HETATM   22  C12 UNL     1      14.246   4.749   2.122  1.00  0.00     0.047 C
HETATM   23  C13 UNL     1      14.109   7.189   2.417  1.00  0.00     0.038 C
HETATM   24  C14 UNL     1      15.318   7.776   3.107  1.00  0.00     0.003 C
HETATM   25  C15 UNL     1      15.014   8.117   4.556  1.00  0.00     0.007 C
HETATM   26  C16 UNL     1      14.347   6.914   5.227  1.00  0.00     0.081 C
HETATM   27  C17 UNL     1      14.545   5.764   4.298  1.00  0.00     0.154 C
HETATM   28  O2  UNL     1      15.288   4.833   4.524  1.00  0.00    -0.295 OA
ENDBRANCH  19  21
ENDBRANCH  18  19
ENDBRANCH  17  18
ENDBRANCH  14  17
ENDBRANCH   2  13
BRANCH   1  29
HETATM   29  C5  UNL     1       6.862   5.100   0.940  1.00  0.00     0.275 C
BRANCH  29  30
HETATM   30  N1  UNL     1       7.031   6.484   1.170  1.00  0.00    -0.063 N
ATOM     31  H12 UNL     1       6.691   7.043   0.387  1.00  0.00     0.278 HD
ATOM     32  H11 UNL     1       8.013   6.758   1.136  1.00  0.00     0.278 HD
BRANCH  30  33
HETATM   33  C2  UNL     1       6.391   6.878   2.450  1.00  0.00     0.115 C
HETATM   34  C1  UNL     1       6.618   5.778   3.455  1.00  0.00     0.045 C
HETATM   35  C3  UNL     1       7.041   8.141   2.911  1.00  0.00     0.045 C
HETATM   36  C4  UNL     1       4.928   7.041   2.184  1.00  0.00     0.045 C
ENDBRANCH  30  33
ENDBRANCH  29  30
ENDBRANCH   1  29
TORSDOF 8
ENDMDL