MODEL 2
REMARK VINA RESULT: -6.162260618      3.824      6.377
REMARK  11 active torsions:
REMARK  status: ('A' for Active; 'I' for Inactive)
REMARK    1  A    between atoms: C2_3  and  O1_4
REMARK    2  A    between atoms: C5_8  and  C6_9
REMARK    3  A    between atoms: C6_9  and  O2_10
REMARK    4  A    between atoms: C6_9  and  N2_12
REMARK    5  A    between atoms: C9_15  and  O3_16
REMARK    6  A    between atoms: C12_21  and  C13_22
REMARK    7  A    between atoms: C13_22  and  C14_23
REMARK    8  A    between atoms: C14_23  and  C15_24
REMARK    9  A    between atoms: C15_24  and  C16_25
REMARK   10  A    between atoms: C16_25  and  C17_26
REMARK   11  A    between atoms: C17_26  and  C18_27
ROOT
HETATM    1  C1  UNL     1      16.780   1.938   1.486  1.00  0.00     0.161 C
HETATM    2  N1  UNL     1      15.398   2.377   1.472  1.00  0.00    -0.298 N
HETATM    3  C2  UNL     1      14.424   1.482   1.260  1.00  0.00     0.153 A
HETATM    4  C3  UNL     1      13.130   1.891   1.247  1.00  0.00     0.028 A
HETATM    5  C4  UNL     1      12.778   3.236   1.452  1.00  0.00     0.001 A
HETATM    6  C5  UNL     1      13.787   4.164   1.670  1.00  0.00     0.067 A
HETATM    7  C11 UNL     1      15.089   3.693   1.673  1.00  0.00     0.260 A
HETATM    8  O4  UNL     1      16.027   4.499   1.864  1.00  0.00    -0.267 OA
HETATM    9  C12 UNL     1      11.323   3.347   1.389  1.00  0.00     0.220 C
HETATM   10  N3  UNL     1      10.804   1.999   1.319  1.00  0.00    -0.063 N
ATOM     11  H31 UNL     1      10.021   1.910   0.672  1.00  0.00     0.278 HD
ATOM     12  H32 UNL     1      10.310   1.721   2.167  1.00  0.00     0.278 HD
HETATM   13  C22 UNL     1      11.881   1.134   1.002  1.00  0.00     0.276 C
ENDROOT
BRANCH   6  14
HETATM   14  C6  UNL     1      13.550   5.607   1.842  1.00  0.00     0.256 C
BRANCH  14  15
HETATM   15  O2  UNL     1      13.981   6.237   0.628  1.00  0.00    -0.372 OA
ATOM     16  H2  UNL     1      14.426   7.037   0.883  1.00  0.00     0.212 HD
ENDBRANCH  14  15
BRANCH  14  17
HETATM   17  N2  UNL     1      14.075   6.261   2.936  1.00  0.00    -0.381 N
HETATM   18  C7  UNL     1      14.527   7.590   2.913  1.00  0.00     0.122 C
HETATM   19  C8  UNL     1      14.815   7.953   4.375  1.00  0.00     0.053 C
HETATM   20  C9  UNL     1      13.780   7.135   5.112  1.00  0.00     0.137 C
HETATM   21  C10 UNL     1      13.326   6.059   4.143  1.00  0.00     0.151 C
BRANCH  20  22
HETATM   22  O3  UNL     1      14.337   6.588   6.257  1.00  0.00    -0.394 OA
ATOM     23  H3  UNL     1      13.666   6.468   6.918  1.00  0.00     0.210 HD
ENDBRANCH  20  22
ENDBRANCH  14  17
ENDBRANCH   6  14
BRANCH   9  24
HETATM   24  C13 UNL     1      10.624   4.101   2.444  1.00  0.00     0.038 C
BRANCH  24  25
HETATM   25  C14 UNL     1       9.753   5.236   2.082  1.00  0.00     0.002 C
BRANCH  25  26
HETATM   26  C15 UNL     1       8.721   5.031   1.032  1.00  0.00     0.000 C
BRANCH  26  27
HETATM   27  C16 UNL     1       7.428   5.788   1.277  1.00  0.00     0.001 C
BRANCH  27  28
HETATM   28  C17 UNL     1       7.401   6.180   2.739  1.00  0.00     0.008 C
BRANCH  28  29
HETATM   29  C18 UNL     1       6.741   7.529   2.931  1.00  0.00    -0.051 C
HETATM   30  C19 UNL     1       6.786   7.928   4.395  1.00  0.00     0.014 C
HETATM   31  C20 UNL     1       7.505   8.551   2.122  1.00  0.00     0.014 C
HETATM   32  C21 UNL     1       5.320   7.534   2.448  1.00  0.00     0.014 C
ENDBRANCH  28  29
ENDBRANCH  27  28
ENDBRANCH  26  27
ENDBRANCH  25  26
ENDBRANCH  24  25
ENDBRANCH   9  24
BRANCH   3  33
HETATM   33  O1  UNL     1      14.708   0.140   1.052  1.00  0.00    -0.345 OA
ATOM     34  H1  UNL     1      15.249  -0.145   0.326  1.00  0.00     0.219 HD
ENDBRANCH   3  33
TORSDOF 11
ENDMDL