MODEL 3
REMARK VINA RESULT: -5.976463882      2.881      4.478
REMARK  8 active torsions:
REMARK  status: ('A' for Active; 'I' for Inactive)
REMARK    1  A    between atoms: C2_2  and  C3_3
REMARK    2  A    between atoms: C3_3  and  C4_4
REMARK    3  A    between atoms: C4_4  and  C5_5
REMARK    4  A    between atoms: N2_12  and  C9_13
REMARK    5  A    between atoms: C11_15  and  C12_16
REMARK    6  A    between atoms: C13_21  and  N5_22
REMARK    7  A    between atoms: C15_28  and  C16_29
REMARK    8  A    between atoms: C20_33  and  O1_34
ROOT
HETATM    1  C9  UNL     1      10.772   4.214   1.396  1.00  0.00     0.072 A
HETATM    2  C10 UNL     1      10.326   3.693   0.215  1.00  0.00     0.048 A
HETATM    3  C11 UNL     1       9.076   4.011  -0.269  1.00  0.00     0.013 A
HETATM    4  C14 UNL     1       8.298   4.887   0.505  1.00  0.00     0.025 A
HETATM    5  C15 UNL     1       8.752   5.405   1.685  1.00  0.00    -0.017 A
HETATM    6  C20 UNL     1      10.006   5.065   2.139  1.00  0.00     0.101 A
ENDROOT
BRANCH   1   7
HETATM    7  N2  UNL     1      12.086   3.811   1.831  1.00  0.00    -0.312 N
HETATM    8  C8  UNL     1      12.108   2.657   2.707  1.00  0.00     0.160 C
HETATM    9  C7  UNL     1      13.474   2.372   3.249  1.00  0.00     0.254 C
HETATM   10  N1  UNL     1      14.421   3.413   3.110  1.00  0.00    -0.056 N
HETATM   11  C4  UNL     1      14.571   3.887   1.713  1.00  0.00     0.205 C
ATOM     12  H12 UNL     1      15.323   3.137   3.499  1.00  0.00     0.278 HD
ATOM     13  H11 UNL     1      14.199   4.190   3.734  1.00  0.00     0.278 HD
HETATM   14  C22 UNL     1      13.248   4.512   1.421  1.00  0.00     0.261 C
HETATM   15  O2  UNL     1      13.089   5.609   0.842  1.00  0.00    -0.270 OA
BRANCH  11  16
HETATM   16  C3  UNL     1      14.835   2.681   0.907  1.00  0.00     0.049 C
BRANCH  16  17
HETATM   17  C2  UNL     1      16.191   2.100   0.887  1.00  0.00    -0.002 C
HETATM   18  C1  UNL     1      16.267   0.948  -0.141  1.00  0.00     0.005 C
ENDBRANCH  16  17
ENDBRANCH  11  16
BRANCH  11  19
HETATM   19  C5  UNL     1      15.666   4.887   1.830  1.00  0.00     0.044 C
HETATM   20  C6  UNL     1      15.687   5.795   2.983  1.00  0.00     0.008 C
ENDBRANCH  11  19
ENDBRANCH   1   7
BRANCH   6  21
HETATM   21  O1  UNL     1      10.520   5.560   3.326  1.00  0.00    -0.353 OA
HETATM   22  C21 UNL     1      10.229   5.002   4.593  1.00  0.00     0.210 C
ENDBRANCH   6  21
BRANCH   3  23
HETATM   23  C12 UNL     1       8.566   3.496  -1.526  1.00  0.00     0.146 A
HETATM   24  N3  UNL     1       7.688   4.158  -2.336  1.00  0.00    -0.270 N
HETATM   25  N4  UNL     1       7.432   3.383  -3.394  1.00  0.00    -0.131 N
ATOM     26  H3  UNL     1       7.295   5.083  -2.163  1.00  0.00     0.189 HD
HETATM   27  C13 UNL     1       8.160   2.244  -3.229  1.00  0.00     0.692 A
ATOM     28  H4  UNL     1       6.813   3.603  -4.175  1.00  0.00     0.205 HD
HETATM   29  N6  UNL     1       8.841   2.335  -2.086  1.00  0.00    -0.174 N
ATOM     30  H6  UNL     1       9.469   1.625  -1.708  1.00  0.00     0.186 HD
BRANCH  27  31
HETATM   31  N5  UNL     1       8.134   1.280  -4.087  1.00  0.00    -0.233 N
ATOM     32  H52 UNL     1       8.471   1.267  -5.050  1.00  0.00     0.174 HD
ATOM     33  H51 UNL     1       7.745   0.363  -3.866  1.00  0.00     0.174 HD
ENDBRANCH  27  31
ENDBRANCH   3  23
BRANCH   5  34
HETATM   34  C16 UNL     1       7.950   6.311   2.507  1.00  0.00     0.021 C
HETATM   35  C17 UNL     1       6.468   6.146   2.379  1.00  0.00     0.009 C
HETATM   36  C18 UNL     1       6.306   7.660   2.307  1.00  0.00     0.001 C
HETATM   37  C19 UNL     1       7.784   7.730   1.988  1.00  0.00     0.009 C
ENDBRANCH   5  34
TORSDOF 8
ENDMDL