MODEL 2
REMARK VINA RESULT: -6.287054913      1.274      1.804
REMARK  8 active torsions:
REMARK  status: ('A' for Active; 'I' for Inactive)
REMARK    1  A    between atoms: C2_2  and  N1_4
REMARK    2  A    between atoms: C2_2  and  C4_8
REMARK    3  A    between atoms: C6_11  and  C7_12
REMARK    4  A    between atoms: C7_12  and  C8_13
REMARK    5  A    between atoms: C7_12  and  N2_19
REMARK    6  A    between atoms: C8_13  and  C9_14
REMARK       I    between atoms: N2_19  and  C14_21
REMARK    7  A    between atoms: C14_21  and  C15_23
REMARK    8  A    between atoms: C18_26  and  C19_27
ROOT
HETATM    1  C7  UNL     1      12.322   4.631   3.095  1.00  0.00     0.160 C
ENDROOT
BRANCH   1   2
HETATM    2  C6  UNL     1      10.882   4.620   2.805  1.00  0.00     0.146 A
HETATM    3  O1  UNL     1      10.024   3.621   2.978  1.00  0.00    -0.305 OA
HETATM    4  C5  UNL     1       8.826   3.936   2.625  1.00  0.00     0.171 A
HETATM    5  C4  UNL     1       8.839   5.241   2.172  1.00  0.00     0.069 A
HETATM    6  N3  UNL     1      10.121   5.640   2.294  1.00  0.00    -0.338 N
ATOM      7  H3  UNL     1      10.473   6.565   2.044  1.00  0.00     0.167 HD
BRANCH   5   8
HETATM    8  C2  UNL     1       7.677   6.032   1.657  1.00  0.00     0.160 C
HETATM    9  C1  UNL     1       7.866   7.498   1.969  1.00  0.00     0.052 C
HETATM   10  C3  UNL     1       6.426   5.504   2.326  1.00  0.00     0.052 C
BRANCH   8  11
HETATM   11  N1  UNL     1       7.627   5.820   0.224  1.00  0.00    -0.065 N
ATOM     12  H13 UNL     1       8.234   6.470  -0.277  1.00  0.00     0.275 HD
ATOM     13  H12 UNL     1       8.082   4.948  -0.046  1.00  0.00     0.275 HD
ATOM     14  H11 UNL     1       6.665   5.866  -0.111  1.00  0.00     0.275 HD
ENDBRANCH   8  11
ENDBRANCH   5   8
ENDBRANCH   1   2
BRANCH   1  15
HETATM   15  C8  UNL     1      13.075   5.891   3.020  1.00  0.00     0.038 C
BRANCH  15  16
HETATM   16  C9  UNL     1      14.200   6.128   3.951  1.00  0.00    -0.012 C
HETATM   17  C10 UNL     1      15.527   6.209   3.170  1.00  0.00     0.005 C
HETATM   18  C11 UNL     1      16.384   7.209   3.920  1.00  0.00     0.000 C
HETATM   19  C12 UNL     1      15.390   8.222   4.387  1.00  0.00     0.000 C
HETATM   20  C13 UNL     1      14.092   7.451   4.646  1.00  0.00     0.005 C
ENDBRANCH  15  16
ENDBRANCH   1  15
BRANCH   1  21
HETATM   21  N2  UNL     1      12.931   3.614   2.231  1.00  0.00    -0.349 N
HETATM   22  C14 UNL     1      13.839   2.633   2.671  1.00  0.00     0.222 C
HETATM   23  O2  UNL     1      14.162   2.606   3.882  1.00  0.00    -0.273 OA
ATOM     24  H2  UNL     1      12.678   3.618   1.242  1.00  0.00     0.163 HD
BRANCH  22  25
HETATM   25  C15 UNL     1      14.372   1.672   1.676  1.00  0.00     0.078 C
HETATM   26  C16 UNL     1      15.305   2.375   0.708  1.00  0.00     0.015 C
HETATM   27  C17 UNL     1      15.973   1.265  -0.067  1.00  0.00     0.016 C
HETATM   28  C18 UNL     1      14.963   0.564  -0.895  1.00  0.00     0.087 C
HETATM   29  C20 UNL     1      13.543   0.625  -0.460  1.00  0.00     0.016 C
HETATM   30  C21 UNL     1      13.273   0.958   0.942  1.00  0.00     0.015 C
BRANCH  28  31
HETATM   31  C19 UNL     1      15.418  -0.872  -1.025  1.00  0.00     0.177 C
HETATM   32  O3  UNL     1      16.619  -1.199  -1.008  1.00  0.00    -0.648 OA
HETATM   33  O4  UNL     1      14.445  -1.851  -1.168  1.00  0.00    -0.648 OA
ENDBRANCH  28  31
ENDBRANCH  22  25
ENDBRANCH   1  21
TORSDOF 8
ENDMDL