MODEL 3
REMARK VINA RESULT: -6.104914521      5.506      7.265
REMARK  8 active torsions:
REMARK  status: ('A' for Active; 'I' for Inactive)
REMARK    1  A    between atoms: C2_2  and  C4_4
REMARK    2  A    between atoms: C4_4  and  N1_5
REMARK    3  A    between atoms: N1_5  and  C5_7
REMARK    4  A    between atoms: C8_10  and  C9_11
REMARK    5  A    between atoms: C9_11  and  C10_12
REMARK    6  A    between atoms: C10_12  and  N3_15
REMARK    7  A    between atoms: N3_15  and  C12_17
REMARK    8  A    between atoms: C14_21  and  C15_22
ROOT
HETATM    1  C10 UNL     1      13.841   3.597   2.678  1.00  0.00     0.191 C
HETATM    2  C11 UNL     1      14.858   2.639   3.143  1.00  0.00     0.084 C
HETATM    3  N2  UNL     1      15.646   1.869   3.495  1.00  0.00    -0.195 NA
ENDROOT
BRANCH   1   4
HETATM    4  C9  UNL     1      14.296   3.980   1.250  1.00  0.00     0.044 C
BRANCH   4   5
HETATM    5  C8  UNL     1      14.851   5.390   1.241  1.00  0.00    -0.012 C
HETATM    6  C7  UNL     1      13.730   6.347   1.347  1.00  0.00     0.007 C
HETATM    7  C6  UNL     1      14.238   7.682   1.826  1.00  0.00     0.025 C
HETATM    8  C5  UNL     1      14.856   7.528   3.190  1.00  0.00     0.076 C
HETATM    9  C21 UNL     1      15.920   6.498   3.251  1.00  0.00     0.025 C
HETATM   10  C20 UNL     1      16.045   5.591   2.080  1.00  0.00     0.007 C
BRANCH   8  11
HETATM   11  N1  UNL     1      13.805   7.286   4.148  1.00  0.00    -0.417 N
ATOM     12  H1  UNL     1      12.821   7.430   3.923  1.00  0.00     0.153 HD
BRANCH  11  13
HETATM   13  C4  UNL     1      14.233   6.834   5.430  1.00  0.00     0.118 C
BRANCH  13  14
HETATM   14  C2  UNL     1      13.360   5.679   5.913  1.00  0.00    -0.005 C
HETATM   15  C1  UNL     1      12.112   5.614   5.066  1.00  0.00     0.011 C
HETATM   16  C3  UNL     1      13.040   5.810   7.388  1.00  0.00     0.011 C
ENDBRANCH  13  14
ENDBRANCH  11  13
ENDBRANCH   8  11
ENDBRANCH   4   5
ENDBRANCH   1   4
BRANCH   1  17
HETATM   17  N3  UNL     1      12.613   2.900   2.562  1.00  0.00    -0.353 N
ATOM     18  H3  UNL     1      12.411   2.204   3.279  1.00  0.00     0.163 HD
BRANCH  17  19
HETATM   19  C12 UNL     1      11.748   3.056   1.659  1.00  0.00     0.145 A
HETATM   20  N4  UNL     1      11.648   2.309   0.571  1.00  0.00    -0.346 N
HETATM   21  C13 UNL     1      10.768   2.415  -0.419  1.00  0.00     0.104 A
ATOM     22  H4  UNL     1      12.333   1.558   0.481  1.00  0.00     0.167 HD
HETATM   23  C14 UNL     1       9.752   3.325  -0.551  1.00  0.00     0.014 A
HETATM   24  C19 UNL     1       9.500   4.321   0.409  1.00  0.00     0.068 A
HETATM   25  S1  UNL     1      10.553   4.306   1.742  1.00  0.00    -0.065 SA
BRANCH  23  26
HETATM   26  C15 UNL     1       8.827   3.329  -1.689  1.00  0.00     0.059 A
HETATM   27  C16 UNL     1       8.100   4.427  -2.072  1.00  0.00     0.120 A
HETATM   28  N5  UNL     1       7.268   4.376  -3.163  1.00  0.00    -0.349 N
HETATM   29  C17 UNL     1       7.127   3.280  -3.891  1.00  0.00     0.114 A
ATOM     30  H5  UNL     1       6.741   5.211  -3.422  1.00  0.00     0.167 HD
HETATM   31  N6  UNL     1       6.348   3.224  -4.908  1.00  0.00    -0.384 N
HETATM   32  C18 UNL     1       7.847   2.174  -3.518  1.00  0.00     0.136 A
ATOM     33  H62 UNL     1       5.812   4.046  -5.186  1.00  0.00     0.157 HD
ATOM     34  H61 UNL     1       6.239   2.378  -5.470  1.00  0.00     0.157 HD
HETATM   35  N7  UNL     1       8.662   2.215  -2.452  1.00  0.00    -0.361 N
ATOM     36  H7  UNL     1       9.181   1.373  -2.204  1.00  0.00     0.165 HD
ENDBRANCH  23  26
ENDBRANCH  17  19
ENDBRANCH   1  17
TORSDOF 8
ENDMDL