MODEL 5
REMARK VINA RESULT: -5.798742331      2.567      4.146
REMARK  9 active torsions:
REMARK  status: ('A' for Active; 'I' for Inactive)
REMARK    1  A    between atoms: O1_1  and  C1_3
REMARK    2  A    between atoms: C2_6  and  O2_7
REMARK    3  A    between atoms: C4_10  and  N2_11
REMARK    4  A    between atoms: C8_15  and  C9_16
REMARK    5  A    between atoms: C9_16  and  N3_17
REMARK    6  A    between atoms: N3_17  and  C10_19
REMARK    7  A    between atoms: C10_19  and  C11_20
REMARK    8  A    between atoms: C11_20  and  C12_21
REMARK    9  A    between atoms: C12_21  and  N4_22
ROOT
HETATM    1  N2  UNL     1      12.716  -0.066   2.310  1.00  0.00    -0.379 N
HETATM    2  C5  UNL     1      12.494  -0.873   1.134  1.00  0.00     0.123 C
HETATM    3  C6  UNL     1      11.022  -1.343   1.305  1.00  0.00     0.021 C
HETATM    4  C7  UNL     1      10.224  -0.081   0.989  1.00  0.00     0.013 C
HETATM    5  C8  UNL     1      10.546   1.056   1.864  1.00  0.00     0.042 C
HETATM    6  C19 UNL     1      11.769   0.920   2.733  1.00  0.00     0.133 C
ENDROOT
BRANCH   1   7
HETATM    7  C4  UNL     1      13.885  -0.256   3.078  1.00  0.00     0.048 A
HETATM    8  C3  UNL     1      15.094   0.347   2.839  1.00  0.00     0.072 A
HETATM    9  C2  UNL     1      15.518   1.260   1.907  1.00  0.00     0.157 A
HETATM   10  C22 UNL     1      16.218   0.095   3.613  1.00  0.00     0.100 A
HETATM   11  N1  UNL     1      16.827   1.536   2.116  1.00  0.00    -0.315 N
HETATM   12  C1  UNL     1      17.286   0.835   3.158  1.00  0.00     0.170 A
ATOM     13  H1  UNL     1      17.384   2.184   1.559  1.00  0.00     0.170 HD
HETATM   14  N5  UNL     1      16.128  -0.775   4.645  1.00  0.00    -0.362 N
HETATM   15  C21 UNL     1      14.955  -1.374   4.897  1.00  0.00     0.090 A
ATOM     16  H5  UNL     1      16.943  -0.973   5.225  1.00  0.00     0.165 HD
HETATM   17  C20 UNL     1      13.828  -1.150   4.156  1.00  0.00     0.047 A
BRANCH   9  18
HETATM   18  O2  UNL     1      14.705   1.802   0.914  1.00  0.00    -0.345 OA
ATOM     19  H2  UNL     1      13.842   2.181   1.033  1.00  0.00     0.219 HD
ENDBRANCH   9  18
BRANCH  12  20
HETATM   20  O1  UNL     1      18.584   0.886   3.634  1.00  0.00    -0.344 OA
ATOM     21  H1  UNL     1      18.826   0.863   4.552  1.00  0.00     0.219 HD
ENDBRANCH  12  20
ENDBRANCH   1   7
BRANCH   5  22
HETATM   22  C9  UNL     1      10.541   2.384   1.154  1.00  0.00     0.061 C
BRANCH  22  23
HETATM   23  N3  UNL     1      11.724   3.053   0.927  1.00  0.00    -0.402 N
ATOM     24  H3  UNL     1      12.471   2.538   0.463  1.00  0.00     0.158 HD
BRANCH  23  25
HETATM   25  C10 UNL     1      11.984   4.383   1.280  1.00  0.00     0.120 C
BRANCH  25  26
HETATM   26  C11 UNL     1      12.091   4.610   2.807  1.00  0.00     0.050 C
BRANCH  26  27
HETATM   27  C12 UNL     1      13.421   4.102   3.269  1.00  0.00     0.274 C
BRANCH  27  28
HETATM   28  N4  UNL     1      14.124   5.108   4.015  1.00  0.00     0.088 N
HETATM   29  C13 UNL     1      15.282   5.596   3.240  1.00  0.00     0.272 C
HETATM   30  C14 UNL     1      14.946   6.669   2.272  1.00  0.00     0.030 C
HETATM   31  C15 UNL     1      14.715   8.028   2.816  1.00  0.00     0.002 C
HETATM   32  C16 UNL     1      14.986   8.088   4.278  1.00  0.00     0.002 C
HETATM   33  C17 UNL     1      14.059   7.251   5.111  1.00  0.00     0.030 C
HETATM   34  C18 UNL     1      13.266   6.270   4.279  1.00  0.00     0.272 C
ENDBRANCH  27  28
ENDBRANCH  26  27
ENDBRANCH  25  26
ENDBRANCH  23  25
ENDBRANCH  22  23
ENDBRANCH   5  22
TORSDOF 9
ENDMDL