MODEL 5
REMARK VINA RESULT: -5.984739929      1.534      2.005
REMARK  9 active torsions:
REMARK  status: ('A' for Active; 'I' for Inactive)
REMARK    1  A    between atoms: C5_5  and  N1_6
REMARK    2  A    between atoms: N1_6  and  C6_8
REMARK    3  A    between atoms: C6_8  and  C7_9
REMARK    4  A    between atoms: C7_9  and  O1_10
REMARK    5  A    between atoms: C7_9  and  C8_12
REMARK    6  A    between atoms: C11_16  and  C12_17
REMARK    7  A    between atoms: C12_17  and  O3_18
REMARK    8  A    between atoms: C15_22  and  N2_23
REMARK    9  A    between atoms: N2_23  and  C16_25
ROOT
HETATM    1  C1  UNL     1      12.378  -0.737   2.642  1.00  0.00     0.017 C
HETATM    2  C2  UNL     1      12.665   0.206   1.778  1.00  0.00    -0.057 C
HETATM    3  C3  UNL     1      14.023   0.702   1.300  1.00  0.00     0.025 C
HETATM    4  C4  UNL     1      13.335   0.990   0.012  1.00  0.00     0.044 C
HETATM    5  C5  UNL     1      12.080   1.213   0.869  1.00  0.00     0.050 C
HETATM    6  C13 UNL     1      12.077   2.588   1.526  1.00  0.00     0.046 C
HETATM    7  C14 UNL     1      13.487   3.082   1.610  1.00  0.00     0.040 C
HETATM    8  C15 UNL     1      13.678   4.352   2.323  1.00  0.00    -0.013 C
HETATM    9  C19 UNL     1      15.128   4.802   2.380  1.00  0.00     0.052 C
HETATM   10  C20 UNL     1      15.932   4.394   1.182  1.00  0.00     0.007 C
HETATM   11  C21 UNL     1      16.407   2.974   1.245  1.00  0.00     0.020 C
HETATM   12  C22 UNL     1      15.752   2.173   2.329  1.00  0.00     0.098 C
HETATM   13  C23 UNL     1      16.492   0.884   2.399  1.00  0.00     0.064 C
HETATM   14  N3  UNL     1      17.075  -0.121   2.453  1.00  0.00    -0.197 NA
HETATM   15  C24 UNL     1      14.302   1.925   2.160  1.00  0.00     0.021 C
ENDROOT
BRANCH   8  16
HETATM   16  N2  UNL     1      13.087   4.629   3.559  1.00  0.00    -0.391 N
ATOM     17  H2  UNL     1      12.122   4.359   3.748  1.00  0.00     0.159 HD
BRANCH  16  18
HETATM   18  C16 UNL     1      13.867   5.296   4.548  1.00  0.00     0.081 A
HETATM   19  C17 UNL     1      13.433   6.489   5.267  1.00  0.00     0.027 A
HETATM   20  C18 UNL     1      13.422   5.192   5.980  1.00  0.00     0.027 A
ENDBRANCH  16  18
ENDBRANCH   8  16
BRANCH   5  21
HETATM   21  N1  UNL     1      10.908   0.906   0.136  1.00  0.00    -0.406 N
ATOM     22  H1  UNL     1      10.920   0.158  -0.557  1.00  0.00     0.154 HD
BRANCH  21  23
HETATM   23  C6  UNL     1       9.730   1.633   0.364  1.00  0.00     0.151 C
BRANCH  23  24
HETATM   24  C7  UNL     1       9.236   2.203  -0.976  1.00  0.00     0.171 C
BRANCH  24  25
HETATM   25  O1  UNL     1      10.364   2.499  -1.786  1.00  0.00    -0.389 OA
ATOM     26  H1  UNL     1      10.488   3.441  -1.802  1.00  0.00     0.210 HD
ENDBRANCH  24  25
BRANCH  24  27
HETATM   27  C8  UNL     1       8.530   3.490  -0.744  1.00  0.00     0.006 A
HETATM   28  C9  UNL     1       8.557   4.253   0.385  1.00  0.00     0.037 A
HETATM   29  C10 UNL     1       7.758   5.371   0.139  1.00  0.00     0.143 A
HETATM   30  O2  UNL     1       7.315   5.225  -1.069  1.00  0.00    -0.324 OA
HETATM   31  C11 UNL     1       7.722   4.150  -1.652  1.00  0.00     0.084 A
BRANCH  31  32
HETATM   32  C12 UNL     1       7.358   3.744  -3.051  1.00  0.00     0.229 C
BRANCH  32  33
HETATM   33  O3  UNL     1       6.754   4.823  -3.696  1.00  0.00    -0.394 OA
ATOM     34  H3  UNL     1       7.135   4.921  -4.561  1.00  0.00     0.209 HD
ENDBRANCH  32  33
ENDBRANCH  31  32
ENDBRANCH  24  27
ENDBRANCH  23  24
ENDBRANCH  21  23
ENDBRANCH   5  21
TORSDOF 9
ENDMDL