MODEL 3
REMARK VINA RESULT: -6.282186978      1.827      2.409
REMARK  9 active torsions:
REMARK  status: ('A' for Active; 'I' for Inactive)
REMARK    1  A    between atoms: C2_2  and  C3_3
REMARK    2  A    between atoms: C4_4  and  O1_5
REMARK    3  A    between atoms: C5_9  and  S1_10
REMARK    4  A    between atoms: S1_10  and  C6_11
REMARK    5  A    between atoms: C6_11  and  C7_12
REMARK    6  A    between atoms: C7_12  and  N2_14
REMARK    7  A    between atoms: N2_14  and  O2_15
REMARK    8  A    between atoms: N2_14  and  C9_17
REMARK    9  A    between atoms: C15_25  and  C16_26
ROOT
HETATM    1  C7  UNL     1      15.349   3.118   1.329  1.00  0.00     0.120 C
HETATM    2  C8  UNL     1      14.255   4.048   0.891  1.00  0.00     0.036 C
ENDROOT
BRANCH   1   3
HETATM    3  C6  UNL     1      15.390   1.835   0.544  1.00  0.00     0.109 C
BRANCH   3   4
HETATM    4  S1  UNL     1      13.839   1.016   0.286  1.00  0.00    -0.092 SA
BRANCH   4   5
HETATM    5  C5  UNL     1      13.859  -0.494  -0.595  1.00  0.00     0.149 A
HETATM    6  N1  UNL     1      14.766  -0.698  -1.569  1.00  0.00    -0.317 N
HETATM    7  C4  UNL     1      14.867  -1.807  -2.293  1.00  0.00     0.153 A
ATOM      8  H1  UNL     1      15.425   0.055  -1.764  1.00  0.00     0.170 HD
HETATM    9  C3  UNL     1      13.980  -2.859  -2.052  1.00  0.00     0.060 A
HETATM   10  C20 UNL     1      13.059  -2.664  -1.072  1.00  0.00     0.257 A
HETATM   11  N4  UNL     1      13.007  -1.518  -0.372  1.00  0.00    -0.303 N
HETATM   12  O3  UNL     1      12.250  -3.572  -0.822  1.00  0.00    -0.267 OA
ATOM     13  H4  UNL     1      12.298  -1.418   0.354  1.00  0.00     0.171 HD
BRANCH   7  14
HETATM   14  O1  UNL     1      15.851  -1.907  -3.281  1.00  0.00    -0.345 OA
ATOM     15  H1  UNL     1      16.712  -1.527  -3.153  1.00  0.00     0.219 HD
ENDBRANCH   7  14
BRANCH   9  16
HETATM   16  C2  UNL     1      14.137  -4.049  -2.876  1.00  0.00     0.044 C
HETATM   17  C1  UNL     1      15.010  -5.118  -2.336  1.00  0.00     0.010 C
ENDBRANCH   9  16
ENDBRANCH   4   5
ENDBRANCH   3   4
ENDBRANCH   1   3
BRANCH   1  18
HETATM   18  N2  UNL     1      15.278   2.833   2.751  1.00  0.00    -0.253 N
BRANCH  18  19
HETATM   19  O2  UNL     1      16.262   2.097   3.322  1.00  0.00    -0.287 OA
ATOM     20  H2  UNL     1      16.259   1.978   4.265  1.00  0.00     0.244 HD
ENDBRANCH  18  19
BRANCH  18  21
HETATM   21  C9  UNL     1      14.223   3.272   3.602  1.00  0.00     0.087 A
HETATM   22  C10 UNL     1      13.234   2.473   4.126  1.00  0.00     0.035 A
HETATM   23  C11 UNL     1      13.013   0.990   3.937  1.00  0.00     0.070 C
HETATM   24  N3  UNL     1      12.453   3.290   4.873  1.00  0.00    -0.361 N
HETATM   25  C12 UNL     1      12.895   4.555   4.848  1.00  0.00     0.018 A
ATOM     26  H3  UNL     1      11.630   2.982   5.389  1.00  0.00     0.165 HD
HETATM   27  C13 UNL     1      14.012   4.582   4.056  1.00  0.00    -0.004 A
HETATM   28  C19 UNL     1      12.341   5.779   5.526  1.00  0.00     0.058 C
HETATM   29  C14 UNL     1      14.785   5.826   3.788  1.00  0.00     0.047 C
HETATM   30  C15 UNL     1      14.117   7.003   4.417  1.00  0.00    -0.010 C
HETATM   31  C18 UNL     1      13.523   6.688   5.775  1.00  0.00     0.011 C
BRANCH  30  32
HETATM   32  C16 UNL     1      15.055   8.172   4.595  1.00  0.00     0.000 C
HETATM   33  C17 UNL     1      16.449   7.872   4.146  1.00  0.00     0.005 C
ENDBRANCH  30  32
ENDBRANCH  18  21
ENDBRANCH   1  18
TORSDOF 9
ENDMDL