MODEL 1
REMARK VINA RESULT: -5.921931175      0.000      0.000
REMARK  9 active torsions:
REMARK  status: ('A' for Active; 'I' for Inactive)
REMARK    1  A    between atoms: C2_2  and  C3_3
REMARK    2  A    between atoms: C3_3  and  C4_4
REMARK    3  A    between atoms: C4_4  and  C5_5
REMARK    4  A    between atoms: C5_5  and  C6_6
REMARK    5  A    between atoms: C6_6  and  C7_7
REMARK    6  A    between atoms: C10_12  and  C11_13
REMARK    7  A    between atoms: N2_21  and  C19_22
REMARK    8  A    between atoms: C20_23  and  O1_24
REMARK    9  A    between atoms: C21_28  and  N4_29
ROOT
HETATM    1  C11 UNL     1      11.837   3.197   2.918  1.00  0.00     0.157 C
HETATM    2  C12 UNL     1      11.629   4.369   1.983  1.00  0.00     0.021 C
HETATM    3  C13 UNL     1      10.352   5.098   2.237  1.00  0.00     0.007 C
HETATM    4  C14 UNL     1       9.150   4.208   2.317  1.00  0.00     0.000 C
HETATM    5  C15 UNL     1       9.063   3.347   1.090  1.00  0.00     0.000 C
HETATM    6  C16 UNL     1      10.131   3.679   0.093  1.00  0.00     0.007 C
HETATM    7  C17 UNL     1      11.517   3.639   0.638  1.00  0.00     0.010 C
HETATM    8  C18 UNL     1      12.021   2.224   0.885  1.00  0.00     0.129 C
HETATM    9  N2  UNL     1      12.783   2.431   2.131  1.00  0.00    -0.360 N
ENDROOT
BRANCH   1  10
HETATM   10  C10 UNL     1      12.236   3.523   4.264  1.00  0.00     0.105 A
HETATM   11  N1  UNL     1      12.000   2.666   5.274  1.00  0.00    -0.354 N
HETATM   12  C9  UNL     1      12.330   2.883   6.536  1.00  0.00     0.091 A
ATOM     13  H1  UNL     1      11.534   1.787   5.050  1.00  0.00     0.166 HD
HETATM   14  C8  UNL     1      12.962   4.060   6.874  1.00  0.00     0.042 A
HETATM   15  C7  UNL     1      13.213   4.953   5.855  1.00  0.00     0.011 A
HETATM   16  N6  UNL     1      12.848   4.669   4.580  1.00  0.00    -0.348 N
ATOM     17  H6  UNL     1      13.046   5.346   3.844  1.00  0.00     0.167 HD
BRANCH  15  18
HETATM   18  C6  UNL     1      13.890   6.243   6.138  1.00  0.00     0.057 C
BRANCH  18  19
HETATM   19  C5  UNL     1      13.684   7.197   4.993  1.00  0.00     0.006 C
BRANCH  19  20
HETATM   20  C4  UNL     1      15.021   7.841   4.694  1.00  0.00     0.000 C
BRANCH  20  21
HETATM   21  C3  UNL     1      15.338   7.856   3.223  1.00  0.00    -0.000 C
BRANCH  21  22
HETATM   22  C2  UNL     1      14.455   6.924   2.429  1.00  0.00    -0.005 C
HETATM   23  C1  UNL     1      13.909   7.735   1.254  1.00  0.00     0.005 C
ENDBRANCH  21  22
ENDBRANCH  20  21
ENDBRANCH  19  20
ENDBRANCH  18  19
ENDBRANCH  15  18
ENDBRANCH   1  10
BRANCH   9  24
HETATM   24  C19 UNL     1      14.095   1.982   2.411  1.00  0.00     0.152 A
HETATM   25  C20 UNL     1      14.354   0.858   3.185  1.00  0.00     0.188 A
HETATM   26  N3  UNL     1      15.606   0.432   3.438  1.00  0.00    -0.168 N
HETATM   27  C21 UNL     1      16.644   1.108   2.932  1.00  0.00     0.680 A
ATOM     28  H3  UNL     1      15.761  -0.397   4.011  1.00  0.00     0.186 HD
HETATM   29  N5  UNL     1      16.420   2.195   2.181  1.00  0.00    -0.154 N
HETATM   30  C22 UNL     1      15.186   2.661   1.900  1.00  0.00     0.290 A
ATOM     31  H5  UNL     1      17.224   2.696   1.803  1.00  0.00     0.187 HD
HETATM   32  O2  UNL     1      15.053   3.699   1.181  1.00  0.00    -0.265 OA
BRANCH  25  33
HETATM   33  O1  UNL     1      13.314   0.123   3.736  1.00  0.00    -0.344 OA
ATOM     34  H1  UNL     1      13.217  -0.801   3.540  1.00  0.00     0.219 HD
ENDBRANCH  25  33
BRANCH  27  35
HETATM   35  N4  UNL     1      17.851   0.683   3.186  1.00  0.00    -0.234 N
ATOM     36  H42 UNL     1      18.067  -0.311   3.264  1.00  0.00     0.174 HD
ATOM     37  H41 UNL     1      18.595   1.370   3.311  1.00  0.00     0.174 HD
ENDBRANCH  27  35
ENDBRANCH   9  24
TORSDOF 9
ENDMDL