MODEL 3
REMARK VINA RESULT: -4.480492113      2.118      3.147
REMARK  1 active torsions:
REMARK  status: ('A' for Active; 'I' for Inactive)
REMARK    1  A    between atoms: C1_2  and  C2_3
ROOT
HETATM    1  C2  UNL     1      14.851  10.286   0.640  1.00  0.00     0.000 C
HETATM    2  C3  UNL     1      14.162   9.007   0.273  1.00  0.00     0.010 C
HETATM    3  C4  UNL     1      13.843   8.337   1.581  1.00  0.00    -0.014 C
HETATM    4  C5  UNL     1      12.685   8.949   2.305  1.00  0.00     0.005 C
HETATM    5  C6  UNL     1      12.788  10.438   2.447  1.00  0.00     0.001 C
HETATM    6  C7  UNL     1      14.149  10.888   2.890  1.00  0.00     0.005 C
HETATM    7  C8  UNL     1      15.218  10.165   2.097  1.00  0.00    -0.009 C
HETATM    8  C9  UNL     1      15.100   8.668   2.397  1.00  0.00     0.009 C
ENDROOT
BRANCH   1   9
HETATM    9  C1  UNL     1      16.052  10.580  -0.236  1.00  0.00     0.091 C
HETATM   10  S1  UNL     1      17.342  11.309   0.788  1.00  0.00    -0.097 SA
ENDBRANCH   1   9
TORSDOF 1
ENDMDL