MODEL 4
REMARK VINA RESULT: -4.795450872      1.810      2.004
REMARK  2 active torsions:
REMARK  status: ('A' for Active; 'I' for Inactive)
REMARK    1  A    between atoms: N1_1  and  C1_5
REMARK    2  A    between atoms: C1_5  and  C2_6
ROOT
HETATM    1  C2  UNL     1      14.240   9.734  -2.958  1.00  0.00    -0.016 C
HETATM    2  C3  UNL     1      12.975  10.217  -2.397  1.00  0.00     0.011 C
HETATM    3  C4  UNL     1      13.030  10.985  -1.133  1.00  0.00     0.001 C
HETATM    4  C5  UNL     1      13.871  10.471  -0.048  1.00  0.00     0.000 C
HETATM    5  C6  UNL     1      14.358   9.063  -0.184  1.00  0.00     0.005 C
HETATM    6  C7  UNL     1      15.219   8.804  -1.359  1.00  0.00    -0.013 C
HETATM    7  C8  UNL     1      15.474  10.037  -2.190  1.00  0.00     0.015 C
HETATM    8  C9  UNL     1      14.404   8.263  -2.542  1.00  0.00     0.015 C
ENDROOT
BRANCH   1   9
HETATM    9  C1  UNL     1      14.445   9.956  -4.437  1.00  0.00     0.239 C
BRANCH   9  10
HETATM   10  N1  UNL     1      15.815   9.792  -4.846  1.00  0.00    -0.079 N
ATOM     11  H13 UNL     1      16.009  10.329  -5.691  1.00  0.00     0.274 HD
ATOM     12  H12 UNL     1      16.447  10.263  -4.199  1.00  0.00     0.274 HD
ATOM     13  H11 UNL     1      16.081   8.814  -4.967  1.00  0.00     0.274 HD
ENDBRANCH   9  10
ENDBRANCH   1   9
TORSDOF 2
ENDMDL