MODEL 3
REMARK VINA RESULT: -4.770445922      1.532      2.130
REMARK  2 active torsions:
REMARK  status: ('A' for Active; 'I' for Inactive)
REMARK    1  A    between atoms: C2_2  and  C3_3
REMARK    2  A    between atoms: C5_5  and  N1_6
ROOT
HETATM    1  C3  UNL     1      13.707   9.646  -1.260  1.00  0.00     0.014 C
HETATM    2  C4  UNL     1      13.225  10.418  -0.085  1.00  0.00     0.047 C
HETATM    3  C5  UNL     1      13.710   9.586   1.095  1.00  0.00     0.124 C
HETATM    4  C6  UNL     1      14.713  10.422   1.848  1.00  0.00     0.038 C
HETATM    5  C7  UNL     1      16.040  10.287   1.191  1.00  0.00     0.003 C
HETATM    6  C8  UNL     1      15.989  10.126  -0.297  1.00  0.00     0.005 C
HETATM    7  C9  UNL     1      15.019   9.099  -0.774  1.00  0.00    -0.004 C
HETATM    8  C10 UNL     1      14.476   8.414   0.495  1.00  0.00     0.043 C
ENDROOT
BRANCH   3   9
HETATM    9  N1  UNL     1      12.621   9.125   1.916  1.00  0.00    -0.070 N
ATOM     10  H13 UNL     1      12.795   8.183   2.264  1.00  0.00     0.275 HD
ATOM     11  H12 UNL     1      12.592   9.624   2.806  1.00  0.00     0.275 HD
ATOM     12  H11 UNL     1      11.726   9.181   1.431  1.00  0.00     0.275 HD
ENDBRANCH   3   9
BRANCH   1  13
HETATM   13  C2  UNL     1      13.748  10.362  -2.526  1.00  0.00    -0.032 C
HETATM   14  C1  UNL     1      14.329   9.948  -3.630  1.00  0.00     0.007 C
ENDBRANCH   1  13
TORSDOF 2
ENDMDL