MODEL 1
REMARK VINA RESULT: -5.065553037      0.000      0.000
REMARK  1 active torsions:
REMARK  status: ('A' for Active; 'I' for Inactive)
REMARK    1  A    between atoms: C1_2  and  C2_4
ROOT
HETATM    1  C2  UNL     1      13.788   9.337  -2.936  1.00  0.00     0.044 C
HETATM    2  C3  UNL     1      15.246   9.693  -2.954  1.00  0.00     0.011 C
HETATM    3  C4  UNL     1      15.723  10.392  -1.729  1.00  0.00     0.001 C
HETATM    4  C5  UNL     1      14.906  10.079  -0.498  1.00  0.00     0.000 C
HETATM    5  C6  UNL     1      13.505  10.523  -0.737  1.00  0.00     0.001 C
HETATM    6  C7  UNL     1      12.954  10.224  -2.072  1.00  0.00     0.011 C
ENDROOT
BRANCH   1   7
HETATM    7  C1  UNL     1      13.290   9.527  -4.347  1.00  0.00     0.094 C
HETATM    8  N1  UNL     1      14.283   9.838  -5.325  1.00  0.00    -0.094 NA
HETATM    9  S1  UNL     1      11.714   9.385  -4.728  1.00  0.00    -0.068 SA
ENDBRANCH   1   7
TORSDOF 1
ENDMDL