MODEL 2
REMARK VINA RESULT: -4.968689828      2.357      4.358
REMARK  1 active torsions:
REMARK  status: ('A' for Active; 'I' for Inactive)
REMARK    1  A    between atoms: N1_1  and  C1_5
ROOT
HETATM    1  C1  UNL     1      14.635   8.905   0.245  1.00  0.00     0.127 C
HETATM    2  C2  UNL     1      14.320   7.788   1.187  1.00  0.00     0.039 C
HETATM    3  C3  UNL     1      13.109   7.962   2.019  1.00  0.00     0.002 C
HETATM    4  C4  UNL     1      12.671   9.331   2.335  1.00  0.00     0.001 C
HETATM    5  C5  UNL     1      13.327  10.424   1.515  1.00  0.00     0.007 C
HETATM    6  C6  UNL     1      13.422   9.847   0.152  1.00  0.00     0.021 C
HETATM    7  C7  UNL     1      13.807  10.735  -0.945  1.00  0.00     0.007 C
HETATM    8  C8  UNL     1      14.575   9.837  -1.898  1.00  0.00     0.003 C
HETATM    9  C9  UNL     1      14.744   8.505  -1.190  1.00  0.00     0.039 C
ENDROOT
BRANCH   1  10
HETATM   10  N1  UNL     1      15.829   9.632   0.627  1.00  0.00    -0.070 N
ATOM     11  H13 UNL     1      15.598  10.570   0.955  1.00  0.00     0.275 HD
ATOM     12  H12 UNL     1      16.231   9.254   1.484  1.00  0.00     0.275 HD
ATOM     13  H11 UNL     1      16.522   9.665  -0.122  1.00  0.00     0.275 HD
ENDBRANCH   1  10
TORSDOF 1
ENDMDL