MODEL 5
REMARK VINA RESULT: -4.537825605      1.855      3.464
REMARK  2 active torsions:
REMARK  status: ('A' for Active; 'I' for Inactive)
REMARK    1  A    between atoms: N1_1  and  C1_5
REMARK    2  A    between atoms: C1_5  and  C2_6
ROOT
HETATM    1  C2  UNL     1      14.362  10.569  -0.857  1.00  0.00     0.011 C
HETATM    2  C3  UNL     1      13.391   9.720  -0.098  1.00  0.00     0.006 C
HETATM    3  C4  UNL     1      13.894   9.322   1.272  1.00  0.00     0.000 C
HETATM    4  C5  UNL     1      14.596  10.434   1.984  1.00  0.00     0.000 C
HETATM    5  C6  UNL     1      15.986  10.049   2.332  1.00  0.00     0.000 C
HETATM    6  C7  UNL     1      17.043  10.512   1.420  1.00  0.00     0.000 C
HETATM    7  C8  UNL     1      16.590  11.030   0.091  1.00  0.00     0.000 C
HETATM    8  C9  UNL     1      15.782  10.065  -0.707  1.00  0.00     0.006 C
ENDROOT
BRANCH   1   9
HETATM    9  C1  UNL     1      13.920  10.556  -2.322  1.00  0.00     0.234 C
BRANCH   9  10
HETATM   10  N1  UNL     1      12.511  10.224  -2.315  1.00  0.00    -0.079 N
ATOM     11  H13 UNL     1      11.927  10.925  -2.771  1.00  0.00     0.274 HD
ATOM     12  H12 UNL     1      12.274   9.445  -2.930  1.00  0.00     0.274 HD
ATOM     13  H11 UNL     1      12.262  10.061  -1.340  1.00  0.00     0.274 HD
ENDBRANCH   9  10
ENDBRANCH   1   9
TORSDOF 2
ENDMDL