MODEL 5
REMARK VINA RESULT: -5.153912141      2.510      4.089
REMARK  1 active torsions:
REMARK  status: ('A' for Active; 'I' for Inactive)
REMARK    1  A    between atoms: C1_2  and  C2_4
ROOT
HETATM    1  C2  UNL     1      13.699  10.519  -2.230  1.00  0.00     0.087 C
HETATM    2  C3  UNL     1      12.418   9.794  -2.484  1.00  0.00     0.015 C
HETATM    3  C4  UNL     1      11.985   9.754  -3.900  1.00  0.00     0.001 C
HETATM    4  C5  UNL     1      12.419   8.483  -4.619  1.00  0.00     0.000 C
HETATM    5  C6  UNL     1      13.901   8.272  -4.421  1.00  0.00     0.000 C
HETATM    6  C7  UNL     1      14.640   9.589  -4.376  1.00  0.00     0.001 C
HETATM    7  C8  UNL     1      14.874  10.080  -2.988  1.00  0.00     0.015 C
ENDROOT
BRANCH   1   8
HETATM    8  C1  UNL     1      14.004  10.372  -0.768  1.00  0.00     0.177 C
HETATM    9  O1  UNL     1      14.900  11.050  -0.200  1.00  0.00    -0.648 OA
HETATM   10  O2  UNL     1      13.309   9.475   0.036  1.00  0.00    -0.648 OA
ENDBRANCH   1   8
TORSDOF 1
ENDMDL