MODEL 4
REMARK VINA RESULT: -4.790197142      1.284      3.653
REMARK  2 active torsions:
REMARK  status: ('A' for Active; 'I' for Inactive)
REMARK    1  A    between atoms: O1_1  and  C1_3
REMARK    2  A    between atoms: C1_3  and  C2_4
ROOT
HETATM    1  C1  UNL     1      14.679   9.604  -2.513  1.00  0.00     0.061 C
HETATM    2  C5  UNL     1      13.773  10.721  -2.177  1.00  0.00     0.038 C
HETATM    3  C6  UNL     1      13.551  10.988  -0.734  1.00  0.00     0.003 C
HETATM    4  C7  UNL     1      13.375   9.685  -0.002  1.00  0.00     0.000 C
HETATM    5  C8  UNL     1      14.720   8.991  -0.073  1.00  0.00     0.003 C
HETATM    6  C9  UNL     1      14.951   8.594  -1.488  1.00  0.00     0.038 C
ENDROOT
BRANCH   1   7
HETATM    7  O1  UNL     1      15.909  10.131  -2.972  1.00  0.00    -0.389 OA
ATOM      8  H1  UNL     1      16.551   9.765  -2.375  1.00  0.00     0.210 HD
ENDBRANCH   1   7
BRANCH   1   9
HETATM    9  C2  UNL     1      14.098   8.896  -3.742  1.00  0.00     0.020 A
HETATM   10  C3  UNL     1      12.724   9.429  -4.139  1.00  0.00     0.008 A
HETATM   11  C4  UNL     1      13.951   9.590  -5.017  1.00  0.00     0.008 A
ENDBRANCH   1   9
TORSDOF 2
ENDMDL