MODEL 5
REMARK VINA RESULT: -4.690328586      2.026      3.817
REMARK  2 active torsions:
REMARK  status: ('A' for Active; 'I' for Inactive)
REMARK    1  A    between atoms: N1_1  and  C1_5
REMARK    2  A    between atoms: C1_5  and  C2_6
ROOT
HETATM    1  C2  UNL     1      14.124  10.357  -0.059  1.00  0.00     0.015 C
HETATM    2  C3  UNL     1      15.607  10.204   0.184  1.00  0.00     0.007 C
HETATM    3  C4  UNL     1      16.008  10.762   1.517  1.00  0.00     0.005 C
HETATM    4  C5  UNL     1      15.380  10.076   2.678  1.00  0.00    -0.014 C
HETATM    5  C6  UNL     1      15.110   8.612   2.445  1.00  0.00     0.005 C
HETATM    6  C7  UNL     1      14.021   8.379   1.439  1.00  0.00     0.005 C
HETATM    7  C8  UNL     1      13.331   9.633   1.004  1.00  0.00    -0.009 C
HETATM    8  C9  UNL     1      13.018  10.584   2.105  1.00  0.00     0.005 C
HETATM    9  C10 UNL     1      14.094  10.720   3.135  1.00  0.00     0.005 C
ENDROOT
BRANCH   1  10
HETATM   10  C1  UNL     1      13.760   9.745  -1.388  1.00  0.00     0.234 C
BRANCH  10  11
HETATM   11  N1  UNL     1      12.656  10.408  -2.032  1.00  0.00    -0.079 N
ATOM     12  H13 UNL     1      12.284  11.152  -1.441  1.00  0.00     0.274 HD
ATOM     13  H12 UNL     1      12.979  10.968  -2.821  1.00  0.00     0.274 HD
ATOM     14  H11 UNL     1      11.916   9.768  -2.319  1.00  0.00     0.274 HD
ENDBRANCH  10  11
ENDBRANCH   1  10
TORSDOF 2
ENDMDL