MODEL 1
REMARK VINA RESULT: -5.028028175      0.000      0.000
REMARK  2 active torsions:
REMARK  status: ('A' for Active; 'I' for Inactive)
REMARK    1  A    between atoms: O1_1  and  C1_3
REMARK    2  A    between atoms: C1_3  and  C2_5
ROOT
HETATM    1  C2  UNL     1      13.980  10.096  -3.102  1.00  0.00     0.054 C
HETATM    2  C3  UNL     1      12.811  10.186  -2.111  1.00  0.00     0.012 C
HETATM    3  C4  UNL     1      13.335  11.057  -0.977  1.00  0.00     0.001 C
HETATM    4  C5  UNL     1      14.780  10.775  -0.716  1.00  0.00     0.000 C
HETATM    5  C6  UNL     1      15.201   9.379  -1.097  1.00  0.00     0.001 C
HETATM    6  C7  UNL     1      14.910   9.038  -2.527  1.00  0.00     0.012 C
ENDROOT
BRANCH   1   7
HETATM    7  C1  UNL     1      13.459   9.686  -4.425  1.00  0.00     0.114 C
HETATM    8  S1  UNL     1      11.916   9.243  -4.617  1.00  0.00    -0.058 SA
BRANCH   7   9
HETATM    9  O1  UNL     1      14.326   9.691  -5.497  1.00  0.00    -0.354 OA
ATOM     10  H1  UNL     1      15.151  10.159  -5.449  1.00  0.00     0.218 HD
ENDBRANCH   7   9
ENDBRANCH   1   7
TORSDOF 2
ENDMDL