MODEL 4
REMARK VINA RESULT: -4.354517584      6.370      8.173
REMARK  2 active torsions:
REMARK  status: ('A' for Active; 'I' for Inactive)
REMARK    1  A    between atoms: C2_2  and  C3_3
REMARK    2  A    between atoms: C3_3  and  O1_4
ROOT
HETATM    1  C3  UNL     1      14.636  10.099   1.361  1.00  0.00     0.067 C
HETATM    2  C4  UNL     1      15.923  10.779   1.078  1.00  0.00     0.112 C
HETATM    3  S1  UNL     1      16.253  10.197  -0.633  1.00  0.00    -0.157 SA
HETATM    4  C5  UNL     1      14.497  10.182  -1.095  1.00  0.00     0.004 C
HETATM    5  C6  UNL     1      14.220   9.125  -2.140  1.00  0.00     0.026 C
HETATM    6  C7  UNL     1      14.170  11.558  -1.633  1.00  0.00     0.026 C
HETATM    7  C8  UNL     1      13.803   9.961   0.179  1.00  0.00     0.058 C
ENDROOT
BRANCH   1   8
HETATM    8  C2  UNL     1      14.813   8.731   2.007  1.00  0.00     0.034 C
HETATM    9  C1  UNL     1      13.770   7.749   1.601  1.00  0.00     0.008 C
ENDBRANCH   1   8
BRANCH   1  10
HETATM   10  O1  UNL     1      13.964  10.880   2.332  1.00  0.00    -0.389 OA
ATOM     11  H1  UNL     1      13.066  10.934   2.027  1.00  0.00     0.210 HD
ENDBRANCH   1  10
TORSDOF 2
ENDMDL