MODEL 1
REMARK VINA RESULT: -5.575887475      0.000      0.000
REMARK  2 active torsions:
REMARK  status: ('A' for Active; 'I' for Inactive)
REMARK    1  A    between atoms: O1_2  and  N1_3
REMARK    2  A    between atoms: N1_3  and  C2_4
ROOT
HETATM    1  C2  UNL     1      15.330  10.758  -1.221  1.00  0.00     0.061 C
HETATM    2  C3  UNL     1      15.741  10.140  -2.552  1.00  0.00     0.034 C
HETATM    3  C4  UNL     1      14.681   9.058  -2.669  1.00  0.00    -0.012 C
HETATM    4  C5  UNL     1      13.294   9.611  -2.675  1.00  0.00     0.009 C
HETATM    5  C6  UNL     1      13.038  10.530  -1.534  1.00  0.00    -0.012 C
HETATM    6  C7  UNL     1      13.346   9.807  -0.216  1.00  0.00     0.011 C
HETATM    7  C8  UNL     1      14.856   9.601  -0.405  1.00  0.00     0.013 C
HETATM    8  C9  UNL     1      14.929   8.367  -1.320  1.00  0.00     0.011 C
HETATM    9  C10 UNL     1      14.094  11.636  -1.461  1.00  0.00     0.034 C
ENDROOT
BRANCH   1  10
HETATM   10  N1  UNL     1      16.333  11.560  -0.629  1.00  0.00    -0.091 NA
BRANCH  10  11
HETATM   11  O1  UNL     1      17.490  11.375  -1.310  1.00  0.00    -0.291 OA
HETATM   12  C1  UNL     1      18.605  11.689  -0.535  1.00  0.00     0.231 C
ENDBRANCH  10  11
ENDBRANCH   1  10
TORSDOF 2
ENDMDL