MODEL 3
REMARK VINA RESULT: -4.451805263      6.680      8.556
REMARK  1 active torsions:
REMARK  status: ('A' for Active; 'I' for Inactive)
REMARK    1  A    between atoms: C2_2  and  C3_3
ROOT
HETATM    1  C3  UNL     1      14.307   8.807  -0.324  1.00  0.00     0.247 C
HETATM    2  N1  UNL     1      14.856   8.150   0.804  1.00  0.00    -0.057 N
ATOM      3  H11 UNL     1      15.787   7.790   0.595  1.00  0.00     0.279 HD
ATOM      4  H12 UNL     1      14.371   7.270   0.982  1.00  0.00     0.279 HD
HETATM    5  C4  UNL     1      14.878   8.945   1.951  1.00  0.00     0.201 C
HETATM    6  C5  UNL     1      16.121   9.818   2.055  1.00  0.00     0.041 C
HETATM    7  C6  UNL     1      13.649   9.774   2.052  1.00  0.00     0.031 C
HETATM    8  C7  UNL     1      13.711  10.895   3.006  1.00  0.00     0.029 C
HETATM    9  C8  UNL     1      12.425   8.918   2.237  1.00  0.00     0.029 C
HETATM   10  S1  UNL     1      13.587  10.357   0.305  1.00  0.00    -0.125 SA
ENDROOT
BRANCH   1  11
HETATM   11  C2  UNL     1      15.286   9.063  -1.438  1.00  0.00     0.039 C
HETATM   12  C1  UNL     1      15.407  10.588  -1.553  1.00  0.00     0.008 C
ENDBRANCH   1  11
TORSDOF 1
ENDMDL