MODEL 2
REMARK VINA RESULT: -4.724741293      1.414      4.179
REMARK  1 active torsions:
REMARK  status: ('A' for Active; 'I' for Inactive)
REMARK    1  A    between atoms: C2_2  and  C4_4
ROOT
HETATM    1  C4  UNL     1      14.548   9.532   0.468  1.00  0.00     0.251 C
HETATM    2  N1  UNL     1      13.635  10.552   0.060  1.00  0.00    -0.060 N
ATOM      3  H11 UNL     1      13.644  11.335   0.713  1.00  0.00     0.278 HD
ATOM      4  H12 UNL     1      12.669  10.248   0.180  1.00  0.00     0.278 HD
HETATM    5  C5  UNL     1      13.866  10.986  -1.246  1.00  0.00     0.253 C
HETATM    6  C6  UNL     1      14.390   9.958  -2.145  1.00  0.00     0.027 C
HETATM    7  C7  UNL     1      15.801  10.357  -2.599  1.00  0.00     0.028 C
HETATM    8  C8  UNL     1      13.526   9.631  -3.328  1.00  0.00     0.028 C
HETATM    9  S1  UNL     1      14.619   8.527  -1.047  1.00  0.00    -0.125 SA
ENDROOT
BRANCH   1  10
HETATM   10  C2  UNL     1      14.024   8.745   1.637  1.00  0.00     0.018 C
HETATM   11  C1  UNL     1      12.629   9.114   2.021  1.00  0.00     0.012 C
HETATM   12  C3  UNL     1      14.046   7.277   1.258  1.00  0.00     0.012 C
ENDBRANCH   1  10
TORSDOF 1
ENDMDL