MODEL 3
REMARK VINA RESULT: -4.241532299      1.580      2.042
REMARK  1 active torsions:
REMARK  status: ('A' for Active; 'I' for Inactive)
REMARK    1  A    between atoms: C1_2  and  C2_3
ROOT
HETATM    1  C2  UNL     1      14.262  10.586   7.901  1.00  0.00     0.014 C
HETATM    2  C3  UNL     1      13.019  10.644   8.805  1.00  0.00     0.001 C
HETATM    3  C4  UNL     1      12.956   9.239   9.307  1.00  0.00     0.007 C
HETATM    4  C5  UNL     1      14.338   8.615   9.133  1.00  0.00     0.016 C
HETATM    5  C6  UNL     1      15.183   9.807   8.781  1.00  0.00     0.052 C
HETATM    6  S2  UNL     1      15.139  10.902  10.261  1.00  0.00    -0.163 SA
HETATM    7  C7  UNL     1      13.452  11.575   9.945  1.00  0.00     0.079 C
ENDROOT
BRANCH   1   8
HETATM    8  C1  UNL     1      13.927   9.892   6.615  1.00  0.00     0.092 C
HETATM    9  S1  UNL     1      14.983  10.573   5.301  1.00  0.00    -0.097 SA
ENDBRANCH   1   8
TORSDOF 1
ENDMDL