MODEL 1
REMARK VINA RESULT: -5.111478003      0.000      0.000
REMARK  2 active torsions:
REMARK  status: ('A' for Active; 'I' for Inactive)
REMARK    1  A    between atoms: C8_8  and  C9_9
REMARK    2  A    between atoms: N1_10  and  N2_12
ROOT
HETATM    1  C1  UNL     1      16.490   8.909   5.601  1.00  0.00     0.010 C
HETATM    2  C2  UNL     1      15.749   9.281   6.898  1.00  0.00    -0.010 C
HETATM    3  C3  UNL     1      15.590   8.009   7.672  1.00  0.00     0.005 C
HETATM    4  C4  UNL     1      14.549   8.002   8.701  1.00  0.00     0.000 C
HETATM    5  C5  UNL     1      14.389   9.212   9.539  1.00  0.00     0.000 C
HETATM    6  C6  UNL     1      14.313  10.514   8.868  1.00  0.00     0.001 C
HETATM    7  C7  UNL     1      13.663  10.535   7.523  1.00  0.00     0.010 C
HETATM    8  C8  UNL     1      14.428   9.857   6.445  1.00  0.00     0.029 C
ENDROOT
BRANCH   8   9
HETATM    9  C9  UNL     1      14.704  10.730   5.280  1.00  0.00     0.084 C
HETATM   10  N1  UNL     1      14.090  10.545   4.187  1.00  0.00    -0.322 N
ATOM     11  H1  UNL     1      14.305  11.166   3.406  1.00  0.00     0.185 HD
BRANCH  10  12
HETATM   12  N2  UNL     1      13.138   9.543   3.988  1.00  0.00    -0.346 N
ATOM     13  H22 UNL     1      13.432   8.725   3.455  1.00  0.00     0.176 HD
ATOM     14  H21 UNL     1      12.183   9.588   4.343  1.00  0.00     0.176 HD
ENDBRANCH  10  12
ENDBRANCH   8   9
TORSDOF 2
ENDMDL