MODEL 5
REMARK VINA RESULT: -5.443470984      4.861      7.774
REMARK  1 active torsions:
REMARK  status: ('A' for Active; 'I' for Inactive)
REMARK    1  A    between atoms: C4_4  and  N1_5
ROOT
HETATM    1  C1  UNL     1      14.444   8.473   9.115  1.00  0.00     0.000 C
HETATM    2  C2  UNL     1      14.485   9.968   9.128  1.00  0.00     0.002 C
HETATM    3  C3  UNL     1      14.104  10.530   7.799  1.00  0.00     0.021 C
HETATM    4  C4  UNL     1      15.062  10.080   6.736  1.00  0.00     0.076 C
HETATM    5  C9  UNL     1      15.447   8.655   6.799  1.00  0.00     0.021 C
HETATM    6  C10 UNL     1      14.918   7.824   7.881  1.00  0.00     0.002 C
ENDROOT
BRANCH   4   7
HETATM    7  N1  UNL     1      14.447  10.454   5.448  1.00  0.00    -0.230 NA
HETATM    8  C5  UNL     1      14.211   9.292   4.646  1.00  0.00     0.110 C
HETATM    9  C6  UNL     1      14.133   9.623   3.165  1.00  0.00     0.017 C
HETATM   10  C7  UNL     1      15.272  10.462   2.686  1.00  0.00     0.019 C
HETATM   11  C8  UNL     1      16.138  10.790   3.897  1.00  0.00     0.129 C
HETATM   12  N2  UNL     1      15.248  11.413   4.866  1.00  0.00    -0.165 NA
ENDBRANCH   4   7
TORSDOF 1
ENDMDL