MODEL 4
REMARK VINA RESULT: -4.822680794      7.973      9.206
REMARK  3 active torsions:
REMARK  status: ('A' for Active; 'I' for Inactive)
REMARK    1  A    between atoms: N1_1  and  C1_4
REMARK    2  A    between atoms: C1_4  and  C2_5
REMARK    3  A    between atoms: C2_5  and  C3_6
ROOT
HETATM    1  C3  UNL     1      15.869  10.896   0.045  1.00  0.00     0.003 C
HETATM    2  C4  UNL     1      16.690  10.473  -1.134  1.00  0.00     0.036 C
HETATM    3  C5  UNL     1      15.954  10.344  -2.406  1.00  0.00     0.272 C
HETATM    4  N2  UNL     1      14.597   9.934  -2.315  1.00  0.00     0.088 N
HETATM    5  C6  UNL     1      13.694  10.909  -1.803  1.00  0.00     0.272 C
HETATM    6  C7  UNL     1      13.447  10.752  -0.314  1.00  0.00     0.035 C
HETATM    7  C8  UNL     1      14.651  10.036   0.256  1.00  0.00    -0.006 C
HETATM    8  C9  UNL     1      14.800   8.643  -0.281  1.00  0.00     0.035 C
HETATM    9  C10 UNL     1      14.479   8.632  -1.747  1.00  0.00     0.272 C
ENDROOT
BRANCH   1  10
HETATM   10  C2  UNL     1      16.656  10.872   1.277  1.00  0.00     0.109 C
BRANCH  10  11
HETATM   11  C1  UNL     1      17.549  11.839   1.437  1.00  0.00    -0.077 C
BRANCH  11  12
HETATM   12  N1  UNL     1      18.383  12.795   1.358  1.00  0.00    -0.370 N
ATOM     13  H12 UNL     1      18.390  12.854   2.377  1.00  0.00     0.165 HD
ATOM     14  H11 UNL     1      19.037  13.537   1.109  1.00  0.00     0.165 HD
ENDBRANCH  11  12
ENDBRANCH  10  11
ENDBRANCH   1  10
TORSDOF 3
ENDMDL