MODEL 1
REMARK VINA RESULT: -4.746209153      0.000      0.000
REMARK  2 active torsions:
REMARK  status: ('A' for Active; 'I' for Inactive)
REMARK    1  A    between atoms: O1_2  and  C2_3
REMARK    2  A    between atoms: C9_10  and  N1_11
ROOT
HETATM    1  C2  UNL     1      16.546  10.535  -0.567  1.00  0.00     0.151 C
HETATM    2  C3  UNL     1      16.115   9.800   0.674  1.00  0.00     0.034 C
HETATM    3  C4  UNL     1      15.005  10.563   1.353  1.00  0.00     0.002 C
HETATM    4  C5  UNL     1      13.686   9.881   1.262  1.00  0.00     0.000 C
HETATM    5  C6  UNL     1      13.167   9.779  -0.163  1.00  0.00     0.000 C
HETATM    6  C7  UNL     1      13.291  11.036  -0.936  1.00  0.00     0.002 C
HETATM    7  C8  UNL     1      14.504  11.271  -1.714  1.00  0.00     0.035 C
HETATM    8  C9  UNL     1      15.570  10.244  -1.705  1.00  0.00     0.212 C
ENDROOT
BRANCH   8   9
HETATM    9  N1  UNL     1      16.379  10.379  -2.932  1.00  0.00    -0.073 N
ATOM     10  H13 UNL     1      17.205  10.967  -2.822  1.00  0.00     0.274 HD
ATOM     11  H12 UNL     1      16.877   9.530  -3.196  1.00  0.00     0.274 HD
ATOM     12  H11 UNL     1      15.722  10.713  -3.637  1.00  0.00     0.274 HD
ENDBRANCH   8   9
BRANCH   1  13
HETATM   13  O1  UNL     1      16.677  11.877  -0.313  1.00  0.00    -0.389 OA
HETATM   14  C1  UNL     1      17.973  12.218   0.058  1.00  0.00     0.202 C
ENDBRANCH   1  13
TORSDOF 2
ENDMDL