MODEL 4
REMARK VINA RESULT: -5.172820052      7.797     10.217
REMARK  1 active torsions:
REMARK  status: ('A' for Active; 'I' for Inactive)
REMARK    1  A    between atoms: C3_5  and  C4_6
ROOT
HETATM    1  C1  UNL     1      18.187  12.416   1.046  1.00  0.00     0.039 C
HETATM    2  C2  UNL     1      17.352  11.319   1.657  1.00  0.00     0.122 C
HETATM    3  N1  UNL     1      16.449  10.747   0.706  1.00  0.00    -0.380 N
ATOM      4  H1  UNL     1      15.600  10.317   1.072  1.00  0.00     0.160 HD
HETATM    5  C3  UNL     1      16.611  10.726  -0.564  1.00  0.00     0.077 C
HETATM    6  N2  UNL     1      17.772  11.311  -1.104  1.00  0.00    -0.380 N
ATOM      7  H2  UNL     1      17.907  11.313  -2.115  1.00  0.00     0.160 HD
HETATM    8  C9  UNL     1      18.778  11.911  -0.250  1.00  0.00     0.122 C
ENDROOT
BRANCH   5   9
HETATM    9  C4  UNL     1      15.558  10.085  -1.379  1.00  0.00     0.053 C
HETATM   10  C5  UNL     1      15.776  10.206  -2.851  1.00  0.00     0.012 C
HETATM   11  C6  UNL     1      14.420   9.733  -3.386  1.00  0.00     0.001 C
HETATM   12  C7  UNL     1      13.420  10.123  -2.320  1.00  0.00     0.001 C
HETATM   13  C8  UNL     1      14.213  10.800  -1.216  1.00  0.00     0.012 C
ENDBRANCH   5   9
TORSDOF 1
ENDMDL