MODEL 2
REMARK VINA RESULT: -7.824467473      3.666      4.299
REMARK  3 active torsions:
REMARK  status: ('A' for Active; 'I' for Inactive)
REMARK    1  A    between atoms: N1_2  and  C2_4
REMARK    2  A    between atoms: C3_7  and  C4_8
REMARK    3  A    between atoms: C8_20  and  N8_21
ROOT
HETATM    1  C2  UNL     1      19.271   9.569   2.168  1.00  0.00     0.139 A
HETATM    2  N2  UNL     1      17.980   9.285   2.355  1.00  0.00    -0.325 N
ATOM      3  H2  UNL     1      17.747   8.430   2.860  1.00  0.00     0.169 HD
HETATM    4  C3  UNL     1      16.950  10.071   1.910  1.00  0.00     0.138 A
HETATM    5  N6  UNL     1      17.269  11.174   1.260  1.00  0.00    -0.327 N
ATOM      6  H6  UNL     1      16.526  11.781   0.917  1.00  0.00     0.168 HD
HETATM    7  C7  UNL     1      18.583  11.524   1.035  1.00  0.00     0.155 A
HETATM    8  N7  UNL     1      18.869  12.709   0.331  1.00  0.00    -0.080 NA
HETATM    9  C8  UNL     1      19.596  10.726   1.486  1.00  0.00     0.187 A
ENDROOT
BRANCH   4  10
HETATM   10  C4  UNL     1      15.548   9.690   2.169  1.00  0.00     0.110 A
HETATM   11  N3  UNL     1      15.138   8.494   1.800  1.00  0.00    -0.334 N
HETATM   12  C5  UNL     1      13.921   8.103   2.001  1.00  0.00     0.160 A
ATOM     13  H3  UNL     1      15.795   7.861   1.346  1.00  0.00     0.168 HD
HETATM   14  N4  UNL     1      13.363   6.836   1.653  1.00  0.00    -0.074 NA
HETATM   15  S1  UNL     1      13.220   9.447   2.761  1.00  0.00    -0.040 SA
HETATM   16  C6  UNL     1      14.623  10.484   2.770  1.00  0.00     0.120 A
HETATM   17  N5  UNL     1      14.674  11.813   3.309  1.00  0.00    -0.092 NA
ENDBRANCH   4  10
BRANCH   1  18
HETATM   18  N1  UNL     1      20.240   8.855   2.566  1.00  0.00    -0.379 N
HETATM   19  C1  UNL     1      20.252   7.933   3.648  1.00  0.00     0.147 C
ATOM     20  H1  UNL     1      21.113   8.953   2.049  1.00  0.00     0.160 HD
ENDBRANCH   1  18
BRANCH   9  21
HETATM   21  N8  UNL     1      20.981  11.075   1.267  1.00  0.00    -0.108 N
HETATM   22  O1  UNL     1      21.619  10.663   0.301  1.00  0.00    -0.532 OA
HETATM   23  O2  UNL     1      21.592  11.898   2.178  1.00  0.00    -0.532 OA
ENDBRANCH   9  21
TORSDOF 3
ENDMDL