MODEL 1
REMARK VINA RESULT: -7.558606614      0.000      0.000
REMARK  4 active torsions:
REMARK  status: ('A' for Active; 'I' for Inactive)
REMARK    1  A    between atoms: S1_2  and  C2_3
REMARK    2  A    between atoms: C3_8  and  N3_9
REMARK    3  A    between atoms: C7_19  and  N7_20
REMARK    4  A    between atoms: C8_25  and  N9_26
ROOT
HETATM    1  N3  UNL     1      15.355  10.103   1.153  1.00  0.00    -0.063 N
HETATM    2  N4  UNL     1      14.198   9.743   1.731  1.00  0.00    -0.219 N
ATOM      3  H4  UNL     1      14.092   9.550   2.727  1.00  0.00     0.209 HD
HETATM    4  N5  UNL     1      13.228   9.672   0.866  1.00  0.00    -0.268 N
ATOM      5  H5  UNL     1      12.263   9.418   1.079  1.00  0.00     0.190 HD
HETATM    6  C4  UNL     1      13.695   9.984  -0.344  1.00  0.00     0.155 A
HETATM    7  N6  UNL     1      12.977  10.017  -1.484  1.00  0.00    -0.340 N
ATOM      8  H6  UNL     1      11.974  10.169  -1.383  1.00  0.00     0.167 HD
HETATM    9  C5  UNL     1      13.443   9.871  -2.755  1.00  0.00     0.051 C
HETATM   10  C6  UNL     1      12.497   9.378  -3.782  1.00  0.00     0.072 C
HETATM   11  C7  UNL     1      14.731  10.144  -3.174  1.00  0.00     0.123 C
HETATM   12  N8  UNL     1      15.831  10.429  -2.455  1.00  0.00    -0.326 N
ATOM     13  H8  UNL     1      16.698  10.507  -2.987  1.00  0.00     0.169 HD
HETATM   14  C8  UNL     1      15.944  10.626  -1.121  1.00  0.00     0.134 C
HETATM   15  C9  UNL     1      15.034  10.255  -0.158  1.00  0.00     0.165 A
ENDROOT
BRANCH   1  16
HETATM   16  C3  UNL     1      16.615  10.282   1.771  1.00  0.00     0.722 A
HETATM   17  N2  UNL     1      16.998  11.377   2.441  1.00  0.00    -0.128 N
HETATM   18  N1  UNL     1      18.239  11.208   2.886  1.00  0.00    -0.265 N
ATOM     19  H2  UNL     1      16.427  12.210   2.588  1.00  0.00     0.205 HD
HETATM   20  C2  UNL     1      18.673  10.010   2.516  1.00  0.00     0.174 A
ATOM     21  H1  UNL     1      18.772  11.889   3.426  1.00  0.00     0.189 HD
HETATM   22  N10 UNL     1      17.654   9.436   1.819  1.00  0.00    -0.166 N
ATOM     23  H10 UNL     1      17.678   8.506   1.399  1.00  0.00     0.186 HD
BRANCH  20  24
HETATM   24  S1  UNL     1      20.278   9.286   2.858  1.00  0.00    -0.097 SA
HETATM   25  C1  UNL     1      21.443   9.826   1.608  1.00  0.00     0.099 C
ENDBRANCH  20  24
ENDBRANCH   1  16
BRANCH  14  26
HETATM   26  N9  UNL     1      16.994  11.216  -0.676  1.00  0.00    -0.383 N
ATOM     27  H92 UNL     1      16.813  12.000  -0.050  1.00  0.00     0.157 HD
ATOM     28  H91 UNL     1      17.908  10.871  -0.969  1.00  0.00     0.157 HD
ENDBRANCH  14  26
BRANCH  11  29
HETATM   29  N7  UNL     1      14.853  10.111  -4.468  1.00  0.00    -0.384 N
ATOM     30  H72 UNL     1      14.823  11.001  -4.966  1.00  0.00     0.157 HD
ATOM     31  H71 UNL     1      14.965   9.163  -4.828  1.00  0.00     0.157 HD
ENDBRANCH  11  29
TORSDOF 4
ENDMDL