MODEL 3
REMARK VINA RESULT: -7.699485756      2.785      4.663
REMARK  4 active torsions:
REMARK  status: ('A' for Active; 'I' for Inactive)
REMARK    1  A    between atoms: N1_1  and  C1_4
REMARK    2  A    between atoms: C2_7  and  C3_8
REMARK    3  A    between atoms: C4_9  and  N3_10
REMARK    4  A    between atoms: C6_19  and  N6_20
ROOT
HETATM    1  C1  UNL     1      17.705   8.477   3.985  1.00  0.00     0.145 A
HETATM    2  N2  UNL     1      17.062   8.600   2.834  1.00  0.00    -0.332 N
ATOM      3  H2  UNL     1      16.924   7.791   2.228  1.00  0.00     0.168 HD
HETATM    4  C2  UNL     1      16.598   9.797   2.479  1.00  0.00     0.113 A
HETATM    5  C6  UNL     1      16.824  10.828   3.345  1.00  0.00     0.176 A
HETATM    6  S1  UNL     1      17.687  10.042   4.624  1.00  0.00    -0.028 SA
ENDROOT
BRANCH   4   7
HETATM    7  C3  UNL     1      15.880  10.069   1.194  1.00  0.00     0.164 C
HETATM    8  C4  UNL     1      14.715   9.550   0.939  1.00  0.00     0.209 C
HETATM    9  C5  UNL     1      14.131   9.911  -0.374  1.00  0.00     0.294 C
HETATM   10  O3  UNL     1      13.003   9.418  -0.639  1.00  0.00    -0.264 OA
HETATM   11  N4  UNL     1      14.785  10.761  -1.292  1.00  0.00    -0.242 N
HETATM   12  N5  UNL     1      15.969  11.374  -0.880  1.00  0.00     0.030 NA
ATOM     13  H4  UNL     1      14.406  10.922  -2.225  1.00  0.00     0.188 HD
HETATM   14  O4  UNL     1      16.475  10.893   0.275  1.00  0.00    -0.219 OA
BRANCH   8  15
HETATM   15  N3  UNL     1      14.062   8.708   1.840  1.00  0.00    -0.107 N
HETATM   16  O1  UNL     1      14.300   7.462   1.752  1.00  0.00    -0.531 OA
HETATM   17  O2  UNL     1      13.178   9.124   2.802  1.00  0.00    -0.531 OA
ENDBRANCH   8  15
ENDBRANCH   4   7
BRANCH   5  18
HETATM   18  N6  UNL     1      16.519  12.225   3.301  1.00  0.00    -0.106 N
HETATM   19  O5  UNL     1      15.494  12.748   3.740  1.00  0.00    -0.531 OA
HETATM   20  O6  UNL     1      17.444  13.081   2.697  1.00  0.00    -0.531 OA
ENDBRANCH   5  18
BRANCH   1  21
HETATM   21  N1  UNL     1      18.232   7.384   4.505  1.00  0.00    -0.380 N
ATOM     22  H12 UNL     1      18.375   6.476   4.063  1.00  0.00     0.158 HD
ATOM     23  H11 UNL     1      18.595   7.252   5.449  1.00  0.00     0.158 HD
ENDBRANCH   1  21
TORSDOF 4
ENDMDL