MODEL 3
REMARK VINA RESULT: -7.700364960      2.401      5.434
REMARK  2 active torsions:
REMARK  status: ('A' for Active; 'I' for Inactive)
REMARK    1  A    between atoms: C6_13  and  N5_14
REMARK    2  A    between atoms: C8_19  and  N7_20
ROOT
HETATM    1  N1  UNL     1      19.021  11.801  -0.734  1.00  0.00    -0.190 NA
HETATM    2  C1  UNL     1      17.960  11.458  -0.434  1.00  0.00     0.120 C
HETATM    3  C2  UNL     1      16.647  11.004  -0.175  1.00  0.00     0.143 C
HETATM    4  N2  UNL     1      15.851  10.913  -1.203  1.00  0.00    -0.289 N
ATOM      5  H2  UNL     1      16.316  11.196  -2.064  1.00  0.00     0.188 HD
HETATM    6  N3  UNL     1      14.552  10.538  -1.429  1.00  0.00    -0.295 N
ATOM      7  H3  UNL     1      14.150  10.867  -2.307  1.00  0.00     0.187 HD
HETATM    8  C3  UNL     1      13.671   9.745  -0.605  1.00  0.00     0.197 C
HETATM    9  N4  UNL     1      14.290   9.150   0.541  1.00  0.00    -0.350 N
ATOM     10  H4  UNL     1      14.015   8.185   0.722  1.00  0.00     0.166 HD
HETATM   11  C4  UNL     1      15.227   9.688   1.469  1.00  0.00     0.051 A
HETATM   12  C5  UNL     1      14.974   9.314   2.743  1.00  0.00     0.068 A
HETATM   13  C6  UNL     1      15.734   9.848   3.751  1.00  0.00     0.131 A
HETATM   14  C7  UNL     1      16.720  10.734   3.457  1.00  0.00     0.113 A
HETATM   15  N6  UNL     1      17.540  11.322   4.469  1.00  0.00    -0.097 NA
HETATM   16  C8  UNL     1      17.023  11.154   2.128  1.00  0.00     0.145 A
HETATM   17  C9  UNL     1      16.264  10.611   1.162  1.00  0.00     0.065 A
ENDROOT
BRANCH  16  18
HETATM   18  N7  UNL     1      18.062  12.059   2.068  1.00  0.00    -0.113 N
HETATM   19  O3  UNL     1      17.865  13.266   1.999  1.00  0.00    -0.532 OA
HETATM   20  O4  UNL     1      19.351  11.644   2.168  1.00  0.00    -0.532 OA
ENDBRANCH  16  18
BRANCH  13  21
HETATM   21  N5  UNL     1      15.510   9.468   5.108  1.00  0.00    -0.114 N
HETATM   22  O1  UNL     1      16.015   8.459   5.623  1.00  0.00    -0.532 OA
HETATM   23  O2  UNL     1      14.691  10.257   5.876  1.00  0.00    -0.532 OA
ENDBRANCH  13  21
TORSDOF 2
ENDMDL