MODEL 3
REMARK VINA RESULT: -7.579448560      3.674      6.128
REMARK  4 active torsions:
REMARK  status: ('A' for Active; 'I' for Inactive)
REMARK    1  A    between atoms: C2_5  and  O2_6
REMARK    2  A    between atoms: C3_8  and  C4_9
REMARK    3  A    between atoms: C5_10  and  N2_11
REMARK    4  A    between atoms: N3_16  and  O6_17
ROOT
HETATM    1  C4  UNL     1      18.514  10.402   2.131  1.00  0.00     0.094 A
HETATM    2  C5  UNL     1      19.180  11.322   1.369  1.00  0.00     0.191 A
HETATM    3  C6  UNL     1      20.534  11.120   1.049  1.00  0.00     0.321 A
HETATM    4  O5  UNL     1      21.151  11.969   0.348  1.00  0.00    -0.261 OA
HETATM    5  N3  UNL     1      21.121  10.011   1.510  1.00  0.00    -0.117 N
HETATM    6  N4  UNL     1      20.495   9.125   2.236  1.00  0.00    -0.236 N
ATOM      7  H4  UNL     1      20.990   8.295   2.563  1.00  0.00     0.193 HD
HETATM    8  C7  UNL     1      19.180   9.304   2.558  1.00  0.00     0.276 A
HETATM    9  O7  UNL     1      18.687   8.376   3.260  1.00  0.00    -0.266 OA
ENDROOT
BRANCH   1  10
HETATM   10  C3  UNL     1      17.097  10.668   2.489  1.00  0.00     0.079 A
HETATM   11  C2  UNL     1      16.483  11.522   3.334  1.00  0.00     0.162 A
HETATM   12  N1  UNL     1      15.155  11.524   3.386  1.00  0.00    -0.297 N
HETATM   13  C1  UNL     1      14.491  10.682   2.603  1.00  0.00     0.290 A
ATOM     14  H1  UNL     1      14.658  12.157   4.013  1.00  0.00     0.171 HD
HETATM   15  O1  UNL     1      13.219  10.537   2.511  1.00  0.00    -0.260 OA
HETATM   16  S1  UNL     1      15.719   9.875   1.778  1.00  0.00    -0.024 SA
BRANCH  11  17
HETATM   17  O2  UNL     1      17.150  12.453   4.200  1.00  0.00    -0.345 OA
ATOM     18  H2  UNL     1      18.099  12.444   4.171  1.00  0.00     0.219 HD
ENDBRANCH  11  17
ENDBRANCH   1  10
BRANCH   2  19
HETATM   19  N2  UNL     1      18.612  12.505   0.852  1.00  0.00    -0.109 N
HETATM   20  O3  UNL     1      18.258  12.534  -0.336  1.00  0.00    -0.532 OA
HETATM   21  O4  UNL     1      18.515  13.621   1.623  1.00  0.00    -0.532 OA
ENDBRANCH   2  19
BRANCH   5  22
HETATM   22  O6  UNL     1      22.445   9.820   1.187  1.00  0.00    -0.265 OA
ATOM     23  H6  UNL     1      23.093  10.232   1.746  1.00  0.00     0.247 HD
ENDBRANCH   5  22
TORSDOF 4
ENDMDL