MODEL 1
REMARK VINA RESULT: -7.630974799      0.000      0.000
REMARK  4 active torsions:
REMARK  status: ('A' for Active; 'I' for Inactive)
REMARK    1  A    between atoms: C2_2  and  O1_3
REMARK    2  A    between atoms: C2_2  and  C3_5
REMARK    3  A    between atoms: C4_6  and  N1_7
REMARK    4  A    between atoms: C5_12  and  C6_13
ROOT
HETATM    1  C3  UNL     1      15.211  10.193   1.067  1.00  0.00     0.050 C
HETATM    2  C4  UNL     1      16.058  10.479   0.067  1.00  0.00     0.181 C
HETATM    3  N2  UNL     1      15.565  10.293  -1.298  1.00  0.00    -0.356 N
ATOM      4  H2  UNL     1      16.096   9.766  -1.991  1.00  0.00     0.162 HD
HETATM    5  C5  UNL     1      14.289  10.891  -1.617  1.00  0.00     0.187 C
HETATM    6  C7  UNL     1      13.330  10.769  -0.438  1.00  0.00     0.074 C
HETATM    7  C8  UNL     1      13.910   9.699   0.523  1.00  0.00     0.084 C
HETATM    8  C9  UNL     1      12.915   9.161   1.431  1.00  0.00     0.059 C
HETATM    9  C10 UNL     1      13.215   7.695   1.776  1.00  0.00     0.143 C
HETATM   10  N3  UNL     1      14.426   7.223   1.154  1.00  0.00    -0.322 N
ATOM     11  H3  UNL     1      15.032   6.593   1.678  1.00  0.00     0.181 HD
HETATM   12  N4  UNL     1      14.753   7.549   0.024  1.00  0.00    -0.251 N
ATOM     13  H4  UNL     1      15.412   6.995  -0.524  1.00  0.00     0.207 HD
HETATM   14  N5  UNL     1      14.241   8.595  -0.428  1.00  0.00    -0.307 N
ATOM     15  H5  UNL     1      14.053   8.694  -1.425  1.00  0.00     0.183 HD
ENDROOT
BRANCH   1  16
HETATM   16  C2  UNL     1      15.550  10.335   2.446  1.00  0.00     0.052 C
HETATM   17  C1  UNL     1      15.350  11.410   3.403  1.00  0.00     0.076 C
BRANCH  16  18
HETATM   18  O1  UNL     1      16.159   9.307   2.973  1.00  0.00    -0.365 OA
ATOM     19  H1  UNL     1      17.092   9.453   3.074  1.00  0.00     0.217 HD
ENDBRANCH  16  18
ENDBRANCH   1  16
BRANCH   2  20
HETATM   20  N1  UNL     1      17.350  10.940   0.278  1.00  0.00    -0.098 N
HETATM   21  O2  UNL     1      17.682  12.198  -0.099  1.00  0.00    -0.531 OA
HETATM   22  O3  UNL     1      18.276  10.194   0.896  1.00  0.00    -0.531 OA
ENDBRANCH   2  20
BRANCH   5  23
HETATM   23  C6  UNL     1      13.706  10.226  -2.834  1.00  0.00     0.196 C
HETATM   24  O4  UNL     1      14.331  10.154  -3.922  1.00  0.00    -0.646 OA
HETATM   25  O5  UNL     1      12.441   9.660  -2.794  1.00  0.00    -0.646 OA
ENDBRANCH   5  23
TORSDOF 4
ENDMDL