MODEL 5
REMARK VINA RESULT: -6.587371384      3.883      5.303
REMARK  8 active torsions:
REMARK  status: ('A' for Active; 'I' for Inactive)
REMARK    1  A    between atoms: N1_1  and  N2_4
REMARK    2  A    between atoms: N2_4  and  N3_5
REMARK    3  A    between atoms: N3_5  and  N4_7
REMARK    4  A    between atoms: N4_7  and  C1_9
REMARK    5  A    between atoms: C2_11  and  C3_12
REMARK    6  A    between atoms: C3_12  and  O1_13
REMARK    7  A    between atoms: C3_12  and  O2_15
REMARK    8  A    between atoms: C6_19  and  O3_20
ROOT
HETATM    1  C1  UNL     1      17.539  11.622   1.655  1.00  0.00     0.126 A
HETATM    2  S1  UNL     1      16.873  10.800   0.335  1.00  0.00    -0.067 SA
HETATM    3  C2  UNL     1      15.446   9.902   0.718  1.00  0.00     0.054 A
HETATM    4  C4  UNL     1      15.082   9.995   2.021  1.00  0.00     0.052 A
HETATM    5  C5  UNL     1      15.721  10.708   3.004  1.00  0.00     0.091 A
HETATM    6  C6  UNL     1      16.864  11.470   2.847  1.00  0.00     0.118 A
HETATM    7  C7  UNL     1      14.991  10.515   4.271  1.00  0.00     0.303 A
HETATM    8  O4  UNL     1      15.245  10.994   5.408  1.00  0.00    -0.259 OA
HETATM    9  O5  UNL     1      13.920   9.688   4.044  1.00  0.00    -0.257 OA
HETATM   10  C8  UNL     1      13.941   9.351   2.694  1.00  0.00     0.158 A
HETATM   11  N5  UNL     1      13.047   8.577   2.200  1.00  0.00    -0.379 N
ATOM     12  H51 UNL     1      12.257   8.131   2.666  1.00  0.00     0.158 HD
ATOM     13  H52 UNL     1      13.062   8.330   1.210  1.00  0.00     0.158 HD
ENDROOT
BRANCH   1  14
HETATM   14  N4  UNL     1      18.612  12.350   1.563  1.00  0.00    -0.265 N
ATOM     15  H4  UNL     1      18.926  12.943   2.331  1.00  0.00     0.190 HD
BRANCH  14  16
HETATM   16  N3  UNL     1      19.311  12.278   0.355  1.00  0.00    -0.155 N
ATOM     17  H3  UNL     1      18.828  12.528  -0.508  1.00  0.00     0.225 HD
BRANCH  16  18
HETATM   18  N2  UNL     1      20.496  11.921   0.292  1.00  0.00    -0.228 NA
BRANCH  18  19
HETATM   19  N1  UNL     1      21.650  11.550   0.495  1.00  0.00    -0.259 N
ATOM     20  H12 UNL     1      21.520  10.750  -0.124  1.00  0.00     0.193 HD
ATOM     21  H11 UNL     1      22.616  11.421   0.793  1.00  0.00     0.193 HD
ENDBRANCH  18  19
ENDBRANCH  16  18
ENDBRANCH  14  16
ENDBRANCH   1  14
BRANCH   6  22
HETATM   22  O3  UNL     1      17.425  12.158   3.943  1.00  0.00    -0.357 OA
ATOM     23  H3  UNL     1      16.795  12.547   4.539  1.00  0.00     0.218 HD
ENDBRANCH   6  22
BRANCH   3  24
HETATM   24  C3  UNL     1      14.769   9.183  -0.372  1.00  0.00     0.296 C
BRANCH  24  25
HETATM   25  O1  UNL     1      13.495   9.614  -0.680  1.00  0.00    -0.367 OA
ATOM     26  H1  UNL     1      13.154  10.320  -0.146  1.00  0.00     0.213 HD
ENDBRANCH  24  25
BRANCH  24  27
HETATM   27  O2  UNL     1      14.813   7.795  -0.158  1.00  0.00    -0.367 OA
ATOM     28  H2  UNL     1      15.691   7.460  -0.293  1.00  0.00     0.213 HD
ENDBRANCH  24  27
ENDBRANCH   3  24
TORSDOF 8
ENDMDL