MODEL 2
REMARK VINA RESULT: -7.391515199      2.965      5.944
REMARK  4 active torsions:
REMARK  status: ('A' for Active; 'I' for Inactive)
REMARK    1  A    between atoms: N1_1  and  C1_4
REMARK    2  A    between atoms: C2_7  and  N3_8
REMARK    3  A    between atoms: C3_14  and  N6_15
REMARK    4  A    between atoms: C7_22  and  N8_23
ROOT
HETATM    1  C1  UNL     1      18.354  10.489   3.242  1.00  0.00     0.159 A
HETATM    2  N2  UNL     1      18.840  11.254   2.259  1.00  0.00    -0.169 N
ATOM      3  H2  UNL     1      19.729  11.716   2.454  1.00  0.00     0.186 HD
HETATM    4  C2  UNL     1      18.318  11.491   1.067  1.00  0.00     0.700 A
HETATM    5  N4  UNL     1      17.165  11.006   0.572  1.00  0.00    -0.075 N
HETATM    6  N5  UNL     1      16.579  11.209  -0.635  1.00  0.00    -0.261 N
ATOM      7  H5  UNL     1      16.961  11.796  -1.377  1.00  0.00     0.190 HD
HETATM    8  C3  UNL     1      15.427  10.530  -0.713  1.00  0.00     0.157 A
HETATM    9  C7  UNL     1      15.242   9.859   0.467  1.00  0.00     0.184 A
HETATM   10  C8  UNL     1      16.357  10.185   1.249  1.00  0.00     0.155 A
HETATM   11  S1  UNL     1      16.864   9.758   2.826  1.00  0.00    -0.031 SA
ENDROOT
BRANCH   8  12
HETATM   12  N6  UNL     1      14.532  10.487  -1.803  1.00  0.00    -0.339 N
HETATM   13  C4  UNL     1      14.732  10.096  -3.172  1.00  0.00     0.154 C
HETATM   14  C5  UNL     1      13.375   9.617  -3.601  1.00  0.00     0.254 C
HETATM   15  N7  UNL     1      12.478   9.856  -2.487  1.00  0.00    -0.058 N
HETATM   16  C6  UNL     1      13.143  10.875  -1.682  1.00  0.00     0.358 C
ATOM     17  H72 UNL     1      11.528  10.104  -2.765  1.00  0.00     0.279 HD
ATOM     18  H71 UNL     1      12.231   9.014  -1.966  1.00  0.00     0.279 HD
ENDBRANCH   8  12
BRANCH   9  19
HETATM   19  N8  UNL     1      14.222   9.011   0.921  1.00  0.00    -0.109 N
HETATM   20  O1  UNL     1      13.363   9.508   1.697  1.00  0.00    -0.532 OA
HETATM   21  O2  UNL     1      14.068   7.696   0.603  1.00  0.00    -0.532 OA
ENDBRANCH   9  19
BRANCH   4  22
HETATM   22  N3  UNL     1      18.975  12.286   0.246  1.00  0.00    -0.233 N
ATOM     23  H32 UNL     1      19.990  12.240   0.333  1.00  0.00     0.174 HD
ATOM     24  H31 UNL     1      18.435  12.869  -0.395  1.00  0.00     0.174 HD
ENDBRANCH   4  22
BRANCH   1  25
HETATM   25  N1  UNL     1      18.991  10.369   4.339  1.00  0.00    -0.379 N
ATOM     26  H12 UNL     1      19.875   9.882   4.489  1.00  0.00     0.158 HD
ATOM     27  H11 UNL     1      18.626  10.786   5.195  1.00  0.00     0.158 HD
ENDBRANCH   1  25
TORSDOF 4
ENDMDL