MODEL 3
REMARK VINA RESULT: -7.545639722      2.977      5.179
REMARK  5 active torsions:
REMARK  status: ('A' for Active; 'I' for Inactive)
REMARK    1  A    between atoms: O1_2  and  C2_3
REMARK    2  A    between atoms: C2_3  and  C3_5
REMARK    3  A    between atoms: C4_8  and  O3_9
REMARK    4  A    between atoms: N2_14  and  O5_15
REMARK    5  A    between atoms: C10_24  and  O6_25
ROOT
HETATM    1  C3  UNL     1      15.249   9.855   2.030  1.00  0.00     0.146 A
HETATM    2  N1  UNL     1      16.404   9.221   2.290  1.00  0.00    -0.329 N
ATOM      3  H1  UNL     1      17.006   8.944   1.514  1.00  0.00     0.168 HD
HETATM    4  C4  UNL     1      16.789   8.940   3.561  1.00  0.00     0.161 A
HETATM    5  C6  UNL     1      16.024   9.288   4.647  1.00  0.00     0.116 A
HETATM    6  C7  UNL     1      16.448   8.985   5.924  1.00  0.00     0.305 A
HETATM    7  O4  UNL     1      17.553   8.381   6.134  1.00  0.00    -0.264 OA
HETATM    8  N2  UNL     1      15.651   9.352   6.952  1.00  0.00    -0.013 N
HETATM    9  C8  UNL     1      14.479   9.995   6.709  1.00  0.00     0.706 A
HETATM   10  N3  UNL     1      13.729  10.339   7.714  1.00  0.00    -0.232 N
ATOM     11  H31 UNL     1      12.849  10.822   7.531  1.00  0.00     0.174 HD
ATOM     12  H32 UNL     1      14.035  10.120   8.662  1.00  0.00     0.174 HD
HETATM   13  N4  UNL     1      14.076  10.284   5.459  1.00  0.00    -0.186 N
ATOM     14  H4  UNL     1      13.191  10.768   5.313  1.00  0.00     0.184 HD
HETATM   15  C9  UNL     1      14.829   9.942   4.400  1.00  0.00     0.105 A
HETATM   16  C10 UNL     1      14.458  10.216   3.099  1.00  0.00     0.127 A
ENDROOT
BRANCH   1  17
HETATM   17  C2  UNL     1      14.837  10.156   0.646  1.00  0.00     0.312 C
HETATM   18  O2  UNL     1      15.539  10.877  -0.104  1.00  0.00    -0.258 OA
BRANCH  17  19
HETATM   19  O1  UNL     1      13.662   9.655   0.133  1.00  0.00    -0.321 OA
HETATM   20  C1  UNL     1      13.166   9.982  -1.134  1.00  0.00     0.213 C
ENDBRANCH  17  19
ENDBRANCH   1  17
BRANCH  16  21
HETATM   21  O6  UNL     1      13.275  10.867   2.810  1.00  0.00    -0.356 OA
ATOM     22  H6  UNL     1      13.342  11.754   2.477  1.00  0.00     0.218 HD
ENDBRANCH  16  21
BRANCH   4  23
HETATM   23  O3  UNL     1      17.986   8.283   3.837  1.00  0.00    -0.340 OA
HETATM   24  C5  UNL     1      19.139   8.677   3.108  1.00  0.00     0.211 C
ENDBRANCH   4  23
BRANCH   8  25
HETATM   25  O5  UNL     1      16.060   9.059   8.227  1.00  0.00    -0.266 OA
ATOM     26  H5  UNL     1      16.987   9.112   8.425  1.00  0.00     0.246 HD
ENDBRANCH   8  25
TORSDOF 5
ENDMDL