MODEL 2
REMARK VINA RESULT: -6.759740760      2.527      3.398
REMARK  2 active torsions:
REMARK  status: ('A' for Active; 'I' for Inactive)
REMARK    1  A    between atoms: S1_2  and  C2_3
REMARK    2  A    between atoms: C3_4  and  S2_5
ROOT
HETATM    1  C2  UNL     1      19.975   9.317   2.714  1.00  0.00     0.082 C
HETATM    2  C3  UNL     1      20.099  10.355   1.948  1.00  0.00     0.191 C
HETATM    3  N1  UNL     1      19.007  11.209   1.816  1.00  0.00    -0.222 N
HETATM    4  N2  UNL     1      19.079  12.594   1.459  1.00  0.00    -0.003 NA
HETATM    5  N3  UNL     1      18.110  12.865   0.494  1.00  0.00    -0.012 NA
HETATM    6  N4  UNL     1      17.932  11.792  -0.352  1.00  0.00    -0.296 N
ATOM      7  H4  UNL     1      18.547  11.618  -1.146  1.00  0.00     0.179 HD
HETATM    8  C4  UNL     1      16.830  10.940  -0.042  1.00  0.00     0.372 C
HETATM    9  N5  UNL     1      17.313   9.902   0.874  1.00  0.00    -0.027 N
ATOM     10  H51 UNL     1      18.046   9.315   0.474  1.00  0.00     0.282 HD
ATOM     11  H52 UNL     1      16.636   9.157   1.039  1.00  0.00     0.282 HD
HETATM   12  C5  UNL     1      17.716  10.587   2.073  1.00  0.00     0.375 C
HETATM   13  S3  UNL     1      18.290   9.383   3.343  1.00  0.00    -0.065 SA
ENDROOT
BRANCH   2  14
HETATM   14  S2  UNL     1      21.635  10.662   1.112  1.00  0.00     0.157 S
HETATM   15  O1  UNL     1      21.961   9.550   0.156  1.00  0.00    -0.590 OA
HETATM   16  O2  UNL     1      21.623  11.931   0.350  1.00  0.00    -0.590 OA
HETATM   17  O3  UNL     1      22.805  10.720   2.345  1.00  0.00    -0.590 OA
ENDBRANCH   2  14
BRANCH   1  18
HETATM   18  S1  UNL     1      21.142   8.029   3.127  1.00  0.00    -0.124 SA
HETATM   19  C1  UNL     1      20.438   7.008   4.419  1.00  0.00     0.096 C
ENDBRANCH   1  18
TORSDOF 2
ENDMDL