MODEL 3
REMARK VINA RESULT: -8.623906369      3.326      6.812
REMARK  7 active torsions:
REMARK  status: ('A' for Active; 'I' for Inactive)
REMARK    1  A    between atoms: O1_2  and  C2_3
REMARK    2  A    between atoms: C6_10  and  N2_11
REMARK    3  A    between atoms: C9_18  and  O3_19
REMARK    4  A    between atoms: O3_19  and  C10_20
REMARK    5  A    between atoms: C11_21  and  N4_22
REMARK    6  A    between atoms: C13_26  and  N5_27
REMARK    7  A    between atoms: C15_31  and  N6_32
ROOT
HETATM    1  C2  UNL     1      17.137  11.036   0.147  1.00  0.00     0.103 A
HETATM    2  C3  UNL     1      18.460  10.748  -0.191  1.00  0.00     0.059 A
HETATM    3  C4  UNL     1      19.292  10.021   0.634  1.00  0.00     0.062 A
HETATM    4  C5  UNL     1      20.593   9.733   0.310  1.00  0.00     0.272 A
HETATM    5  O2  UNL     1      21.081  10.124  -0.765  1.00  0.00    -0.267 OA
HETATM    6  N1  UNL     1      21.333   9.014   1.181  1.00  0.00    -0.156 N
ATOM      7  H1  UNL     1      22.301   8.796   0.946  1.00  0.00     0.187 HD
HETATM    8  C6  UNL     1      20.831   8.579   2.346  1.00  0.00     0.679 A
HETATM    9  N3  UNL     1      19.568   8.859   2.662  1.00  0.00    -0.191 N
ATOM     10  H3  UNL     1      19.191   8.527   3.549  1.00  0.00     0.184 HD
HETATM   11  C7  UNL     1      18.770   9.577   1.832  1.00  0.00     0.067 A
HETATM   12  C8  UNL     1      17.465   9.858   2.173  1.00  0.00     0.071 A
HETATM   13  C9  UNL     1      16.632  10.578   1.361  1.00  0.00     0.111 A
ENDROOT
BRANCH  13  14
HETATM   14  O3  UNL     1      15.314  10.871   1.688  1.00  0.00    -0.303 OA
BRANCH  14  15
HETATM   15  C10 UNL     1      14.874  10.592   2.985  1.00  0.00     0.142 A
HETATM   16  C11 UNL     1      14.125   9.442   3.222  1.00  0.00     0.141 A
HETATM   17  C12 UNL     1      13.675   9.141   4.508  1.00  0.00     0.075 A
HETATM   18  C13 UNL     1      13.955   9.967   5.573  1.00  0.00     0.107 A
HETATM   19  C14 UNL     1      14.698  11.102   5.315  1.00  0.00     0.075 A
HETATM   20  C15 UNL     1      15.161  11.431   4.050  1.00  0.00     0.141 A
BRANCH  16  21
HETATM   21  N4  UNL     1      13.803   8.550   2.163  1.00  0.00    -0.113 N
HETATM   22  O4  UNL     1      14.607   7.711   1.715  1.00  0.00    -0.532 OA
HETATM   23  O5  UNL     1      12.545   8.624   1.618  1.00  0.00    -0.532 OA
ENDBRANCH  16  21
BRANCH  18  24
HETATM   24  N5  UNL     1      13.496   9.661   6.878  1.00  0.00    -0.116 N
HETATM   25  O6  UNL     1      13.273  10.585   7.669  1.00  0.00    -0.532 OA
HETATM   26  O7  UNL     1      13.287   8.377   7.305  1.00  0.00    -0.532 OA
ENDBRANCH  18  24
BRANCH  20  27
HETATM   27  N6  UNL     1      15.921  12.595   3.810  1.00  0.00    -0.113 N
HETATM   28  O8  UNL     1      15.363  13.662   3.536  1.00  0.00    -0.532 OA
HETATM   29  O9  UNL     1      17.281  12.544   3.879  1.00  0.00    -0.532 OA
ENDBRANCH  20  27
ENDBRANCH  14  15
ENDBRANCH  13  14
BRANCH   1  30
HETATM   30  O1  UNL     1      16.309  11.762  -0.680  1.00  0.00    -0.353 OA
HETATM   31  C1  UNL     1      15.466  11.265  -1.674  1.00  0.00     0.210 C
ENDBRANCH   1  30
BRANCH   8  32
HETATM   32  N2  UNL     1      21.525   7.900   3.173  1.00  0.00    -0.234 N
ATOM     33  H22 UNL     1      22.404   7.496   2.851  1.00  0.00     0.174 HD
ATOM     34  H21 UNL     1      21.228   7.750   4.137  1.00  0.00     0.174 HD
ENDBRANCH   8  32
TORSDOF 7
ENDMDL