MODEL 3
REMARK VINA RESULT: -7.499718994      2.840      5.314
REMARK  9 active torsions:
REMARK  status: ('A' for Active; 'I' for Inactive)
REMARK    1  A    between atoms: O1_2  and  C2_3
REMARK    2  A    between atoms: C2_3  and  C3_5
REMARK    3  A    between atoms: C4_7  and  N1_8
REMARK    4  A    between atoms: N1_8  and  C5_10
REMARK    5  A    between atoms: C5_10  and  C7_13
REMARK    6  A    between atoms: C8_16  and  N4_17
REMARK    7  A    between atoms: C9_22  and  O3_23
REMARK    8  A    between atoms: C13_27  and  C14_28
REMARK    9  A    between atoms: C14_28  and  O5_30
ROOT
HETATM    1  C5  UNL     1      17.689  10.971   0.306  1.00  0.00     0.241 C
HETATM    2  C6  UNL     1      17.497  11.006  -1.173  1.00  0.00     0.091 C
HETATM    3  N2  UNL     1      17.351  11.053  -2.304  1.00  0.00    -0.195 NA
ENDROOT
BRANCH   1   4
HETATM    4  N1  UNL     1      16.948   9.982   0.953  1.00  0.00    -0.362 N
ATOM      5  H1  UNL     1      17.359   9.067   0.770  1.00  0.00     0.162 HD
BRANCH   4   6
HETATM    6  C4  UNL     1      15.825   9.844   1.773  1.00  0.00     0.089 A
HETATM    7  S1  UNL     1      16.092   9.812   3.509  1.00  0.00    -0.065 SA
HETATM    8  C3  UNL     1      14.493   9.613   4.046  1.00  0.00     0.089 A
HETATM    9  C16 UNL     1      13.796   9.579   2.889  1.00  0.00    -0.020 A
HETATM   10  C13 UNL     1      14.489   9.703   1.708  1.00  0.00     0.080 A
HETATM   11  C17 UNL     1      12.275   9.365   2.927  1.00  0.00     0.051 C
BRANCH   8  12
HETATM   12  C2  UNL     1      14.089   9.526   5.468  1.00  0.00     0.300 C
HETATM   13  O2  UNL     1      13.790   8.501   6.071  1.00  0.00    -0.259 OA
BRANCH  12  14
HETATM   14  O1  UNL     1      14.034  10.719   6.219  1.00  0.00    -0.322 OA
HETATM   15  C1  UNL     1      13.653  10.700   7.578  1.00  0.00     0.213 C
ENDBRANCH  12  14
ENDBRANCH   8  12
BRANCH  10  16
HETATM   16  C14 UNL     1      13.751   9.851   0.425  1.00  0.00     0.296 C
HETATM   17  O4  UNL     1      13.384   8.827  -0.206  1.00  0.00    -0.259 OA
BRANCH  16  18
HETATM   18  O5  UNL     1      13.409  11.025  -0.156  1.00  0.00    -0.322 OA
HETATM   19  C15 UNL     1      13.753  11.454  -1.436  1.00  0.00     0.213 C
ENDBRANCH  16  18
ENDBRANCH  10  16
ENDBRANCH   4   6
ENDBRANCH   1   4
BRANCH   1  20
HETATM   20  C7  UNL     1      19.177  10.785   0.522  1.00  0.00     0.073 A
HETATM   21  N3  UNL     1      19.764   9.582   0.214  1.00  0.00    -0.192 N
HETATM   22  C8  UNL     1      21.089   9.396   0.355  1.00  0.00     0.678 A
ATOM     23  H3  UNL     1      19.184   8.816  -0.128  1.00  0.00     0.184 HD
HETATM   24  N5  UNL     1      21.848  10.401   0.801  1.00  0.00    -0.170 N
HETATM   25  C9  UNL     1      21.292  11.587   1.108  1.00  0.00     0.165 A
ATOM     26  H5  UNL     1      22.854  10.269   0.910  1.00  0.00     0.186 HD
HETATM   27  C11 UNL     1      19.913  11.824   0.976  1.00  0.00     0.016 A
HETATM   28  C12 UNL     1      19.443  13.123   1.383  1.00  0.00     0.055 C
BRANCH  22  29
HETATM   29  N4  UNL     1      21.637   8.284   0.071  1.00  0.00    -0.234 N
ATOM     30  H42 UNL     1      21.239   7.423   0.446  1.00  0.00     0.174 HD
ATOM     31  H41 UNL     1      22.465   8.235  -0.522  1.00  0.00     0.174 HD
ENDBRANCH  22  29
BRANCH  25  32
HETATM   32  O3  UNL     1      22.107  12.622   1.572  1.00  0.00    -0.340 OA
HETATM   33  C10 UNL     1      22.740  12.552   2.817  1.00  0.00     0.211 C
ENDBRANCH  25  32
ENDBRANCH   1  20
TORSDOF 9
ENDMDL