MODEL 4
REMARK VINA RESULT: -7.144691406      1.926      6.229
REMARK  10 active torsions:
REMARK  status: ('A' for Active; 'I' for Inactive)
REMARK    1  A    between atoms: C2_2  and  O1_3
REMARK    2  A    between atoms: O1_3  and  C3_4
REMARK    3  A    between atoms: C4_5  and  O2_6
REMARK    4  A    between atoms: C6_8  and  O3_9
REMARK    5  A    between atoms: C7_11  and  O4_12
REMARK    6  A    between atoms: C10_17  and  O5_18
REMARK    7  A    between atoms: C10_17  and  C11_20
REMARK    8  A    between atoms: C11_20  and  O6_21
REMARK    9  A    between atoms: O6_21  and  C12_22
REMARK   10  A    between atoms: C12_22  and  C13_24
ROOT
HETATM    1  C3  UNL     1      19.506  11.323   2.277  1.00  0.00     0.122 A
HETATM    2  C4  UNL     1      20.064  12.555   2.064  1.00  0.00     0.139 A
HETATM    3  C6  UNL     1      19.309  13.673   2.279  1.00  0.00     0.136 A
HETATM    4  C7  UNL     1      17.966  13.606   2.717  1.00  0.00     0.117 A
HETATM    5  C8  UNL     1      17.384  12.353   2.939  1.00  0.00     0.074 A
HETATM    6  C9  UNL     1      18.191  11.252   2.706  1.00  0.00     0.057 A
HETATM    7  S1  UNL     1      17.557   9.571   2.959  1.00  0.00    -0.077 SA
HETATM    8  C10 UNL     1      15.691   9.786   2.818  1.00  0.00     0.202 C
HETATM    9  C16 UNL     1      15.385  10.957   3.623  1.00  0.00     0.247 C
HETATM   10  O8  UNL     1      14.538  10.828   4.574  1.00  0.00    -0.284 OA
HETATM   11  C17 UNL     1      16.004  12.256   3.389  1.00  0.00     0.236 C
HETATM   12  O9  UNL     1      15.298  13.306   3.591  1.00  0.00    -0.283 OA
ENDROOT
BRANCH   8  13
HETATM   13  O5  UNL     1      15.234   8.583   3.383  1.00  0.00    -0.370 OA
ATOM     14  H5  UNL     1      15.329   7.987   2.649  1.00  0.00     0.212 HD
ENDBRANCH   8  13
BRANCH   8  15
HETATM   15  C11 UNL     1      15.452   9.843   1.348  1.00  0.00     0.237 C
BRANCH  15  16
HETATM   16  O6  UNL     1      15.284  11.060   0.745  1.00  0.00    -0.317 OA
BRANCH  16  17
HETATM   17  C12 UNL     1      15.691  11.542  -0.438  1.00  0.00     0.262 C
HETATM   18  O7  UNL     1      16.833  12.022  -0.563  1.00  0.00    -0.265 OA
BRANCH  17  19
HETATM   19  C13 UNL     1      14.834  11.544  -1.676  1.00  0.00     0.077 C
HETATM   20  C14 UNL     1      15.426  10.513  -2.612  1.00  0.00     0.020 C
HETATM   21  C15 UNL     1      13.405  11.251  -1.309  1.00  0.00     0.020 C
ENDBRANCH  17  19
ENDBRANCH  16  17
ENDBRANCH  15  16
ENDBRANCH   8  15
BRANCH   1  22
HETATM   22  O1  UNL     1      20.250  10.155   2.067  1.00  0.00    -0.347 OA
BRANCH  22  23
HETATM   23  C2  UNL     1      20.604   9.664   0.816  1.00  0.00     0.171 C
HETATM   24  C1  UNL     1      22.009   9.185   0.686  1.00  0.00     0.034 C
ENDBRANCH  22  23
ENDBRANCH   1  22
BRANCH   2  25
HETATM   25  O2  UNL     1      21.377  12.661   1.634  1.00  0.00    -0.351 OA
HETATM   26  C5  UNL     1      22.462  12.645   2.533  1.00  0.00     0.210 C
ENDBRANCH   2  25
BRANCH   4  27
HETATM   27  O4  UNL     1      17.354  14.791   2.884  1.00  0.00    -0.357 OA
ATOM     28  H4  UNL     1      17.224  15.297   2.091  1.00  0.00     0.217 HD
ENDBRANCH   4  27
BRANCH   3  29
HETATM   29  O3  UNL     1      19.907  14.908   2.052  1.00  0.00    -0.356 OA
ATOM     30  H3  UNL     1      19.350  15.619   1.759  1.00  0.00     0.218 HD
ENDBRANCH   3  29
TORSDOF 10
ENDMDL