MODEL 4
REMARK VINA RESULT: -6.391548942      1.796      3.170
REMARK  12 active torsions:
REMARK  status: ('A' for Active; 'I' for Inactive)
REMARK    1  A    between atoms: O1_2  and  C2_3
REMARK    2  A    between atoms: C2_3  and  C3_5
REMARK    3  A    between atoms: C6_8  and  C7_9
REMARK    4  A    between atoms: C7_9  and  O3_10
REMARK    5  A    between atoms: C7_9  and  C10_14
REMARK    6  A    between atoms: O3_10  and  C8_11
REMARK    7  A    between atoms: C10_14  and  O5_16
REMARK    8  A    between atoms: C10_14  and  C12_18
REMARK    9  A    between atoms: C13_22  and  C14_23
REMARK   10  A    between atoms: C16_26  and  O7_27
REMARK   11  A    between atoms: C17_29  and  C18_30
REMARK   12  A    between atoms: C18_30  and  O9_32
ROOT
HETATM    1  C3  UNL     1      16.009   9.734   1.585  1.00  0.00     0.065 A
HETATM    2  C4  UNL     1      17.335   9.809   1.907  1.00  0.00    -0.031 A
HETATM    3  C5  UNL     1      17.808   8.997   3.027  1.00  0.00     0.050 C
HETATM    4  C6  UNL     1      18.241  10.673   1.231  1.00  0.00     0.021 A
HETATM    5  C13 UNL     1      17.672  11.428   0.212  1.00  0.00     0.057 A
HETATM    6  C16 UNL     1      16.290  11.337  -0.099  1.00  0.00     0.097 A
HETATM    7  C17 UNL     1      15.478  10.500   0.581  1.00  0.00     0.090 A
ENDROOT
BRANCH   4   8
HETATM    8  C7  UNL     1      19.641  10.643   1.615  1.00  0.00     0.107 C
BRANCH   8   9
HETATM    9  O3  UNL     1      20.362   9.456   1.546  1.00  0.00    -0.279 OA
BRANCH   9  10
HETATM   10  C8  UNL     1      21.255   9.108   0.591  1.00  0.00     0.259 C
HETATM   11  C9  UNL     1      22.279   8.031   0.755  1.00  0.00     0.126 C
HETATM   12  O4  UNL     1      21.240   9.703  -0.497  1.00  0.00    -0.265 OA
ENDBRANCH   9  10
ENDBRANCH   8   9
BRANCH   8  13
HETATM   13  C10 UNL     1      20.079  11.583   2.720  1.00  0.00     0.135 C
HETATM   14  C11 UNL     1      18.976  12.410   3.328  1.00  0.00     0.059 C
BRANCH  13  15
HETATM   15  O5  UNL     1      20.537  10.714   3.824  1.00  0.00    -0.378 OA
ATOM     16  H5  UNL     1      19.870  10.782   4.498  1.00  0.00     0.211 HD
ENDBRANCH  13  15
BRANCH  13  17
HETATM   17  C12 UNL     1      21.253  12.394   2.480  1.00  0.00     0.097 C
HETATM   18  N1  UNL     1      21.823  12.326   1.321  1.00  0.00    -0.408 N
ATOM     19  H12 UNL     1      21.442  11.710   0.604  1.00  0.00     0.155 HD
ATOM     20  H11 UNL     1      22.650  12.898   1.152  1.00  0.00     0.155 HD
ENDBRANCH  13  17
ENDBRANCH   8  13
ENDBRANCH   4   8
BRANCH   5  21
HETATM   21  C14 UNL     1      18.450  12.210  -0.716  1.00  0.00     0.159 C
HETATM   22  C15 UNL     1      18.973  13.567  -0.412  1.00  0.00     0.097 C
HETATM   23  O6  UNL     1      18.764  11.844  -1.870  1.00  0.00    -0.293 OA
ENDBRANCH   5  21
BRANCH   1  24
HETATM   24  C2  UNL     1      15.203   8.802   2.345  1.00  0.00     0.294 C
HETATM   25  O2  UNL     1      14.793   7.746   1.848  1.00  0.00    -0.259 OA
BRANCH  24  26
HETATM   26  O1  UNL     1      14.905   9.123   3.647  1.00  0.00    -0.322 OA
HETATM   27  C1  UNL     1      13.624   9.131   4.196  1.00  0.00     0.213 C
ENDBRANCH  24  26
ENDBRANCH   1  24
BRANCH   6  28
HETATM   28  O7  UNL     1      15.835  12.125  -1.104  1.00  0.00    -0.359 OA
ATOM     29  H7  UNL     1      14.902  12.305  -1.119  1.00  0.00     0.217 HD
ENDBRANCH   6  28
BRANCH   7  30
HETATM   30  C18 UNL     1      14.047  10.387   0.303  1.00  0.00     0.296 C
HETATM   31  O8  UNL     1      13.162  10.917   1.019  1.00  0.00    -0.259 OA
BRANCH  30  32
HETATM   32  O9  UNL     1      13.558   9.680  -0.780  1.00  0.00    -0.322 OA
HETATM   33  C19 UNL     1      13.215  10.180  -2.023  1.00  0.00     0.213 C
ENDBRANCH  30  32
ENDBRANCH   7  30
TORSDOF 12
ENDMDL