MODEL 1
REMARK VINA RESULT: -7.587438468      0.000      0.000
REMARK  8 active torsions:
REMARK  status: ('A' for Active; 'I' for Inactive)
REMARK    1  A    between atoms: O1_2  and  C2_3
REMARK    2  A    between atoms: C4_5  and  C5_6
REMARK    3  A    between atoms: C6_7  and  N1_8
REMARK    4  A    between atoms: N1_8  and  N2_10
REMARK    5  A    between atoms: N2_10  and  C7_11
REMARK    6  A    between atoms: C8_15  and  N4_16
REMARK    7  A    between atoms: C14_29  and  O3_30
REMARK    8  A    between atoms: C16_33  and  O4_34
ROOT
HETATM    1  O3  UNL     1      19.636  14.109   1.599  1.00  0.00    -0.238 OA
HETATM    2  C15 UNL     1      19.262  14.702   2.765  1.00  0.00     0.234 C
HETATM    3  N6  UNL     1      18.968  15.198   3.745  1.00  0.00    -0.164 NA
ENDROOT
BRANCH   1   4
HETATM    4  C14 UNL     1      19.173  12.897   1.138  1.00  0.00     0.126 A
HETATM    5  C13 UNL     1      17.832  12.528   1.291  1.00  0.00     0.053 A
HETATM    6  C4  UNL     1      17.378  11.315   0.827  1.00  0.00    -0.022 A
HETATM    7  C3  UNL     1      18.262  10.469   0.209  1.00  0.00     0.052 A
HETATM    8  C2  UNL     1      19.604  10.800   0.037  1.00  0.00     0.105 A
HETATM    9  C16 UNL     1      20.027  12.016   0.510  1.00  0.00     0.136 A
BRANCH   6  10
HETATM   10  C5  UNL     1      15.994  10.939   1.027  1.00  0.00    -0.013 C
HETATM   11  C6  UNL     1      15.123  11.002   0.005  1.00  0.00     0.046 C
HETATM   12  C10 UNL     1      13.710  10.625   0.244  1.00  0.00     0.070 C
HETATM   13  C11 UNL     1      13.544   9.188   0.678  1.00  0.00     0.080 C
HETATM   14  S1  UNL     1      14.573   8.958   2.172  1.00  0.00    -0.164 SA
HETATM   15  C12 UNL     1      15.552  10.483   2.358  1.00  0.00     0.115 C
BRANCH  11  16
HETATM   16  N1  UNL     1      15.603  11.433  -1.240  1.00  0.00    -0.242 N
ATOM     17  H1  UNL     1      16.354  12.116  -1.137  1.00  0.00     0.201 HD
BRANCH  16  18
HETATM   18  N2  UNL     1      15.377  11.221  -2.340  1.00  0.00    -0.326 NA
BRANCH  18  19
HETATM   19  C7  UNL     1      15.122  11.002  -3.631  1.00  0.00     0.480 C
HETATM   20  N3  UNL     1      16.199  10.302  -4.381  1.00  0.00     0.014 N
HETATM   21  C8  UNL     1      15.535  10.082  -5.649  1.00  0.00     0.489 C
ATOM     22  H32 UNL     1      17.094  10.791  -4.429  1.00  0.00     0.286 HD
ATOM     23  H31 UNL     1      16.582   9.470  -3.932  1.00  0.00     0.286 HD
HETATM   24  N5  UNL     1      14.258   9.526  -5.215  1.00  0.00    -0.307 N
HETATM   25  C9  UNL     1      14.005  10.010  -3.917  1.00  0.00     0.286 C
ATOM     26  H5  UNL     1      13.658   8.900  -5.753  1.00  0.00     0.166 HD
HETATM   27  O2  UNL     1      13.082   9.724  -3.128  1.00  0.00    -0.268 OA
BRANCH  21  28
HETATM   28  N4  UNL     1      15.316  11.356  -6.300  1.00  0.00    -0.032 N
ATOM     29  H43 UNL     1      15.457  12.143  -5.668  1.00  0.00     0.278 HD
ATOM     30  H42 UNL     1      16.050  11.579  -6.973  1.00  0.00     0.278 HD
ATOM     31  H41 UNL     1      14.388  11.362  -6.724  1.00  0.00     0.278 HD
ENDBRANCH  21  28
ENDBRANCH  18  19
ENDBRANCH  16  18
ENDBRANCH  11  16
ENDBRANCH   6  10
BRANCH   8  32
HETATM   32  O1  UNL     1      20.495   9.964  -0.575  1.00  0.00    -0.353 OA
HETATM   33  C1  UNL     1      21.277   9.001   0.073  1.00  0.00     0.210 C
ENDBRANCH   8  32
BRANCH   9  34
HETATM   34  O4  UNL     1      21.363  12.417   0.374  1.00  0.00    -0.351 OA
HETATM   35  C17 UNL     1      22.304  12.231   1.417  1.00  0.00     0.210 C
ENDBRANCH   9  34
ENDBRANCH   1   4
TORSDOF 8
ENDMDL