MODEL 2
REMARK VINA RESULT: -7.261107185      0.162      2.407
REMARK  8 active torsions:
REMARK  status: ('A' for Active; 'I' for Inactive)
REMARK    1  A    between atoms: O1_2  and  C2_3
REMARK    2  A    between atoms: C4_5  and  C5_6
REMARK    3  A    between atoms: N1_7  and  N2_9
REMARK    4  A    between atoms: N2_9  and  C6_11
REMARK    5  A    between atoms: C7_16  and  C8_17
REMARK    6  A    between atoms: C12_28  and  O2_29
REMARK    7  A    between atoms: C14_31  and  O3_32
REMARK    8  A    between atoms: O3_32  and  C15_33
ROOT
HETATM    1  C5  UNL     1      16.756   9.107   3.405  1.00  0.00     0.119 C
HETATM    2  N1  UNL     1      16.078   8.700   2.381  1.00  0.00    -0.297 N
ATOM      3  H1  UNL     1      16.513   8.140   1.648  1.00  0.00     0.186 HD
ENDROOT
BRANCH   2   4
HETATM    4  N2  UNL     1      14.731   9.055   2.318  1.00  0.00    -0.131 N
ATOM      5  H2  UNL     1      14.092   8.862   3.089  1.00  0.00     0.205 HD
BRANCH   4   6
HETATM    6  C6  UNL     1      14.327   9.643   1.230  1.00  0.00     0.713 A
HETATM    7  N3  UNL     1      13.394  10.617   1.131  1.00  0.00    -0.129 N
HETATM    8  N4  UNL     1      13.274  10.944  -0.144  1.00  0.00    -0.268 N
ATOM      9  H3  UNL     1      12.874  11.029   1.906  1.00  0.00     0.205 HD
HETATM   10  C7  UNL     1      14.108  10.207  -0.892  1.00  0.00     0.171 A
ATOM     11  H4  UNL     1      12.638  11.654  -0.507  1.00  0.00     0.189 HD
HETATM   12  N7  UNL     1      14.746   9.414  -0.027  1.00  0.00    -0.170 N
ATOM     13  H7  UNL     1      15.455   8.728  -0.285  1.00  0.00     0.186 HD
BRANCH  10  14
HETATM   14  C8  UNL     1      14.264  10.278  -2.339  1.00  0.00     0.137 A
HETATM   15  N5  UNL     1      13.327  10.129  -3.270  1.00  0.00    -0.290 N
HETATM   16  N6  UNL     1      13.628  10.221  -4.490  1.00  0.00    -0.297 N
ATOM     17  H5  UNL     1      12.363   9.941  -2.997  1.00  0.00     0.188 HD
HETATM   18  C9  UNL     1      14.883  10.466  -4.854  1.00  0.00     0.064 A
ATOM     19  H6  UNL     1      12.906  10.108  -5.201  1.00  0.00     0.187 HD
HETATM   20  C10 UNL     1      15.459  10.613  -6.228  1.00  0.00     0.078 C
HETATM   21  S1  UNL     1      15.643  10.563  -3.308  1.00  0.00    -0.053 SA
ENDBRANCH  10  14
ENDBRANCH   4   6
ENDBRANCH   2   4
BRANCH   1  22
HETATM   22  C4  UNL     1      18.183   8.733   3.476  1.00  0.00    -0.014 A
HETATM   23  C3  UNL     1      19.142   9.601   3.032  1.00  0.00     0.052 A
HETATM   24  C2  UNL     1      20.493   9.247   3.100  1.00  0.00     0.105 A
HETATM   25  C14 UNL     1      20.866   8.023   3.614  1.00  0.00     0.144 A
HETATM   26  C12 UNL     1      19.909   7.149   4.061  1.00  0.00     0.105 A
HETATM   27  C11 UNL     1      18.578   7.515   3.987  1.00  0.00     0.052 A
BRANCH  24  28
HETATM   28  O1  UNL     1      21.465  10.128   2.650  1.00  0.00    -0.353 OA
HETATM   29  C1  UNL     1      21.323  10.741   1.383  1.00  0.00     0.210 C
ENDBRANCH  24  28
BRANCH  25  30
HETATM   30  O3  UNL     1      22.211   7.640   3.696  1.00  0.00    -0.293 OA
BRANCH  30  31
HETATM   31  C15 UNL     1      22.786   6.834   2.727  1.00  0.00     0.114 C
HETATM   32  C16 UNL     1      23.066   7.362   1.347  1.00  0.00     0.097 C
HETATM   33  N8  UNL     1      23.067   5.618   3.059  1.00  0.00    -0.384 N
ATOM     34  H82 UNL     1      22.878   5.259   3.995  1.00  0.00     0.157 HD
ATOM     35  H81 UNL     1      23.490   5.024   2.346  1.00  0.00     0.157 HD
ENDBRANCH  30  31
ENDBRANCH  25  30
BRANCH  26  36
HETATM   36  O2  UNL     1      20.220   5.906   4.587  1.00  0.00    -0.353 OA
HETATM   37  C13 UNL     1      19.717   4.701   4.095  1.00  0.00     0.210 C
ENDBRANCH  26  36
ENDBRANCH   1  22
TORSDOF 8
ENDMDL