MODEL 4
REMARK VINA RESULT: -7.632901168      3.718      5.674
REMARK  9 active torsions:
REMARK  status: ('A' for Active; 'I' for Inactive)
REMARK    1  A    between atoms: N1_3  and  N2_5
REMARK       I    between atoms: N2_5  and  C3_7
REMARK    2  A    between atoms: C3_7  and  C4_9
REMARK    3  A    between atoms: C6_12  and  N3_13
REMARK    4  A    between atoms: C8_16  and  C9_17
REMARK    5  A    between atoms: C9_17  and  O3_19
REMARK    6  A    between atoms: C11_21  and  C12_22
REMARK    7  A    between atoms: C12_22  and  O4_23
REMARK    8  A    between atoms: C12_22  and  C13_25
REMARK    9  A    between atoms: S2_29  and  N4_30
ROOT
HETATM    1  N3  UNL     1      16.719  10.158   1.104  1.00  0.00    -0.330 N
ATOM      2  H3  UNL     1      16.066   9.771   1.786  1.00  0.00     0.168 HD
HETATM    3  C7  UNL     1      16.373  10.276  -0.149  1.00  0.00     0.097 A
HETATM    4  C8  UNL     1      15.098   9.919  -0.820  1.00  0.00     0.083 A
HETATM    5  C11 UNL     1      15.048  10.157  -2.099  1.00  0.00     0.001 A
HETATM    6  C16 UNL     1      16.284  10.748  -2.679  1.00  0.00     0.133 A
HETATM    7  S2  UNL     1      17.354  10.921  -1.488  1.00  0.00    -0.077 SA
ENDROOT
BRANCH   1   8
HETATM    8  C6  UNL     1      18.027  10.580   1.508  1.00  0.00     0.150 A
HETATM    9  S1  UNL     1      18.624  12.021   2.191  1.00  0.00    -0.063 SA
HETATM   10  C5  UNL     1      20.274  11.584   2.312  1.00  0.00     0.088 A
HETATM   11  C4  UNL     1      20.257  10.307   1.799  1.00  0.00     0.111 A
HETATM   12  N5  UNL     1      19.114   9.842   1.408  1.00  0.00    -0.332 N
ATOM     13  H5  UNL     1      19.055   8.900   1.022  1.00  0.00     0.168 HD
BRANCH  11  14
HETATM   14  C3  UNL     1      21.518   9.530   1.714  1.00  0.00     0.287 C
HETATM   15  N2  UNL     1      21.558   8.131   1.859  1.00  0.00    -0.265 N
ATOM     16  H2  UNL     1      20.702   7.603   2.029  1.00  0.00     0.190 HD
HETATM   17  O1  UNL     1      22.573  10.172   1.504  1.00  0.00    -0.264 OA
BRANCH  15  18
HETATM   18  N1  UNL     1      22.785   7.482   1.765  1.00  0.00    -0.313 N
HETATM   19  C2  UNL     1      23.067   6.377   2.311  1.00  0.00     0.076 C
HETATM   20  C1  UNL     1      22.044   5.680   3.125  1.00  0.00     0.056 C
ATOM     21  H1  UNL     1      23.513   7.934   1.214  1.00  0.00     0.185 HD
ENDBRANCH  15  18
ENDBRANCH  11  14
ENDBRANCH   1   8
BRANCH   4  22
HETATM   22  C9  UNL     1      14.078   9.302   0.072  1.00  0.00     0.296 C
HETATM   23  O2  UNL     1      13.680   8.153   0.137  1.00  0.00    -0.259 OA
BRANCH  22  24
HETATM   24  O3  UNL     1      13.415  10.125   1.032  1.00  0.00    -0.322 OA
HETATM   25  C10 UNL     1      12.954   9.575   2.251  1.00  0.00     0.213 C
ENDBRANCH  22  24
ENDBRANCH   4  22
BRANCH   7  26
HETATM   26  N4  UNL     1      18.913  11.768  -1.377  1.00  0.00    -0.378 N
ATOM     27  H42 UNL     1      19.308  12.406  -0.687  1.00  0.00     0.163 HD
ATOM     28  H41 UNL     1      19.755  11.592  -1.925  1.00  0.00     0.163 HD
ENDBRANCH   7  26
BRANCH   5  29
HETATM   29  C12 UNL     1      13.949   9.935  -3.057  1.00  0.00     0.055 C
BRANCH  29  30
HETATM   30  O4  UNL     1      12.817  10.545  -2.674  1.00  0.00    -0.364 OA
ATOM     31  H4  UNL     1      12.097   9.932  -2.582  1.00  0.00     0.217 HD
ENDBRANCH  29  30
BRANCH  29  32
HETATM   32  C13 UNL     1      13.758   9.230  -4.288  1.00  0.00     0.035 C
HETATM   33  C14 UNL     1      14.255  10.204  -5.432  1.00  0.00     0.016 C
HETATM   34  C15 UNL     1      12.254   9.138  -4.682  1.00  0.00     0.016 C
ENDBRANCH  29  32
ENDBRANCH   5  29
TORSDOF 9
ENDMDL