MODEL 3
REMARK VINA RESULT: -7.698619502      2.885      5.948
REMARK  9 active torsions:
REMARK  status: ('A' for Active; 'I' for Inactive)
REMARK    1  A    between atoms: C3_4  and  C4_5
REMARK    2  A    between atoms: C4_5  and  C5_7
REMARK    3  A    between atoms: C5_7  and  S2_8
REMARK    4  A    between atoms: C5_7  and  C8_20
REMARK    5  A    between atoms: S2_8  and  C6_9
REMARK    6  A    between atoms: C7_12  and  N2_13
REMARK    7  A    between atoms: C8_20  and  O3_22
REMARK    8  A    between atoms: O3_22  and  C9_23
REMARK    9  A    between atoms: C13_29  and  N6_30
ROOT
HETATM    1  C5  UNL     1      14.628   9.435   2.099  1.00  0.00     0.231 C
ENDROOT
BRANCH   1   2
HETATM    2  C4  UNL     1      15.416  10.655   2.085  1.00  0.00     0.206 C
HETATM    3  O1  UNL     1      14.962  11.718   2.550  1.00  0.00    -0.288 OA
BRANCH   2   4
HETATM    4  C3  UNL     1      16.780  10.701   1.523  1.00  0.00     0.124 A
HETATM    5  S1  UNL     1      18.195   9.879   2.043  1.00  0.00    -0.070 SA
HETATM    6  C2  UNL     1      19.280  10.482   0.877  1.00  0.00     0.031 A
HETATM    7  C1  UNL     1      20.750  10.220   0.668  1.00  0.00     0.061 C
HETATM    8  C13 UNL     1      18.466  11.305   0.131  1.00  0.00     0.187 A
HETATM    9  N5  UNL     1      17.225  11.389   0.484  1.00  0.00    -0.328 N
ATOM     10  H5  UNL     1      16.587  11.987  -0.041  1.00  0.00     0.168 HD
BRANCH   8  11
HETATM   11  N6  UNL     1      19.017  12.033  -1.004  1.00  0.00    -0.097 N
HETATM   12  O4  UNL     1      18.720  11.733  -2.167  1.00  0.00    -0.530 OA
HETATM   13  O5  UNL     1      19.873  13.060  -0.770  1.00  0.00    -0.530 OA
ENDBRANCH   8  11
ENDBRANCH   2   4
ENDBRANCH   1   2
BRANCH   1  14
HETATM   14  S2  UNL     1      13.376   9.415   3.353  1.00  0.00    -0.069 SA
BRANCH  14  15
HETATM   15  C6  UNL     1      13.905   9.307   5.013  1.00  0.00     0.175 A
HETATM   16  N1  UNL     1      15.013   8.697   5.463  1.00  0.00    -0.168 N
HETATM   17  C7  UNL     1      15.077   8.811   6.790  1.00  0.00     0.692 A
ATOM     18  H1  UNL     1      15.701   8.219   4.880  1.00  0.00     0.186 HD
HETATM   19  N3  UNL     1      13.990   9.505   7.170  1.00  0.00    -0.130 N
HETATM   20  N4  UNL     1      13.292   9.799   6.092  1.00  0.00    -0.265 N
ATOM     21  H3  UNL     1      13.748   9.761   8.127  1.00  0.00     0.205 HD
ATOM     22  H4  UNL     1      12.416  10.322   6.083  1.00  0.00     0.189 HD
BRANCH  17  23
HETATM   23  N2  UNL     1      15.987   8.359   7.618  1.00  0.00    -0.233 N
ATOM     24  H22 UNL     1      16.267   7.380   7.681  1.00  0.00     0.174 HD
ATOM     25  H21 UNL     1      16.546   8.867   8.303  1.00  0.00     0.174 HD
ENDBRANCH  17  23
ENDBRANCH  14  15
ENDBRANCH   1  14
BRANCH   1  26
HETATM   26  C8  UNL     1      13.992   9.119   0.796  1.00  0.00     0.281 C
HETATM   27  O2  UNL     1      13.726   7.963   0.404  1.00  0.00    -0.263 OA
BRANCH  26  28
HETATM   28  O3  UNL     1      13.677  10.181  -0.028  1.00  0.00    -0.310 OA
BRANCH  28  29
HETATM   29  C9  UNL     1      14.031  10.300  -1.375  1.00  0.00     0.060 C
HETATM   30  C10 UNL     1      14.343  11.766  -1.630  1.00  0.00     0.045 C
HETATM   31  C11 UNL     1      15.339   9.556  -1.676  1.00  0.00     0.045 C
HETATM   32  C12 UNL     1      12.959   9.901  -2.347  1.00  0.00     0.045 C
ENDBRANCH  28  29
ENDBRANCH  26  28
ENDBRANCH   1  26
TORSDOF 9
ENDMDL