MODEL 3
REMARK VINA RESULT: -6.624156712      2.351      3.957
REMARK  9 active torsions:
REMARK  status: ('A' for Active; 'I' for Inactive)
REMARK    1  A    between atoms: O1_2  and  C2_3
REMARK    2  A    between atoms: C2_3  and  O2_4
REMARK    3  A    between atoms: C2_3  and  C4_6
REMARK    4  A    between atoms: C5_7  and  O3_8
REMARK    5  A    between atoms: C6_11  and  C7_12
REMARK    6  A    between atoms: C10_15  and  C11_16
REMARK    7  A    between atoms: C12_18  and  O6_19
REMARK    8  A    between atoms: C13_21  and  C14_22
REMARK    9  A    between atoms: C16_25  and  O8_26
ROOT
HETATM    1  C4  UNL     1      19.703  13.908   3.028  1.00  0.00     0.106 A
HETATM    2  C5  UNL     1      18.700  14.416   2.215  1.00  0.00     0.199 A
HETATM    3  O4  UNL     1      17.848  13.667   1.590  1.00  0.00    -0.285 OA
HETATM    4  C6  UNL     1      17.876  12.354   1.684  1.00  0.00     0.116 A
HETATM    5  C17 UNL     1      18.844  11.779   2.470  1.00  0.00     0.130 A
HETATM    6  C18 UNL     1      19.026  10.328   2.562  1.00  0.00     0.106 C
HETATM    7  N1  UNL     1      19.194   9.186   2.618  1.00  0.00    -0.191 NA
HETATM    8  C19 UNL     1      19.774  12.541   3.157  1.00  0.00     0.211 A
HETATM    9  O9  UNL     1      20.660  12.012   3.880  1.00  0.00    -0.286 OA
ENDROOT
BRANCH   4  10
HETATM   10  C7  UNL     1      16.902  11.538   0.960  1.00  0.00     0.041 A
HETATM   11  C8  UNL     1      17.021  11.234  -0.375  1.00  0.00    -0.030 A
HETATM   12  C9  UNL     1      18.287  11.532  -1.122  1.00  0.00     0.050 C
HETATM   13  C10 UNL     1      16.038  10.560  -1.054  1.00  0.00     0.043 A
HETATM   14  C12 UNL     1      14.867  10.164  -0.347  1.00  0.00     0.096 A
HETATM   15  C13 UNL     1      14.725  10.451   0.989  1.00  0.00     0.077 A
HETATM   16  C16 UNL     1      15.767  11.148   1.626  1.00  0.00     0.096 A
BRANCH  13  17
HETATM   17  C11 UNL     1      16.104  10.223  -2.470  1.00  0.00     0.273 C
HETATM   18  O5  UNL     1      15.322  10.662  -3.326  1.00  0.00    -0.301 OA
ENDBRANCH  13  17
BRANCH  14  19
HETATM   19  O6  UNL     1      13.940   9.510  -1.042  1.00  0.00    -0.359 OA
ATOM     20  H6  UNL     1      13.211  10.024  -1.372  1.00  0.00     0.217 HD
ENDBRANCH  14  19
BRANCH  15  21
HETATM   21  C14 UNL     1      13.572  10.083   1.776  1.00  0.00     0.161 C
HETATM   22  C15 UNL     1      13.230   8.751   2.298  1.00  0.00     0.097 C
HETATM   23  O7  UNL     1      12.727  11.002   2.077  1.00  0.00    -0.293 OA
ENDBRANCH  15  21
BRANCH  16  24
HETATM   24  O8  UNL     1      15.582  11.421   2.974  1.00  0.00    -0.359 OA
ATOM     25  H8  UNL     1      15.381  12.296   3.284  1.00  0.00     0.217 HD
ENDBRANCH  16  24
ENDBRANCH   4  10
BRANCH   1  26
HETATM   26  C2  UNL     1      20.655  14.826   3.725  1.00  0.00     0.301 C
BRANCH  26  27
HETATM   27  O1  UNL     1      21.321  15.646   2.825  1.00  0.00    -0.361 OA
HETATM   28  C1  UNL     1      22.657  15.834   3.221  1.00  0.00     0.205 C
ENDBRANCH  26  27
BRANCH  26  29
HETATM   29  O2  UNL     1      20.012  15.559   4.720  1.00  0.00    -0.361 OA
HETATM   30  C3  UNL     1      20.384  15.203   5.993  1.00  0.00     0.205 C
ENDBRANCH  26  29
ENDBRANCH   1  26
BRANCH   2  31
HETATM   31  O3  UNL     1      18.644  15.818   2.094  1.00  0.00    -0.340 OA
ATOM     32  H3  UNL     1      19.407  16.297   2.394  1.00  0.00     0.220 HD
ENDBRANCH   2  31
TORSDOF 9
ENDMDL