MODEL 1
REMARK VINA RESULT: -8.667533832      0.000      0.000
REMARK  9 active torsions:
REMARK  status: ('A' for Active; 'I' for Inactive)
REMARK    1  A    between atoms: O1_2  and  C2_3
REMARK    2  A    between atoms: C2_3  and  C3_5
REMARK    3  A    between atoms: C5_7  and  N1_8
REMARK    4  A    between atoms: C6_11  and  N2_12
REMARK    5  A    between atoms: N2_12  and  N3_14
REMARK    6  A    between atoms: C7_16  and  C8_17
REMARK    7  A    between atoms: C10_19  and  O5_20
REMARK    8  A    between atoms: C12_22  and  O6_23
REMARK    9  A    between atoms: C13_25  and  N4_26
ROOT
HETATM    1  N2  UNL     1      14.810   9.810   2.165  1.00  0.00    -0.284 N
ATOM      2  H2  UNL     1      15.635   9.389   1.738  1.00  0.00     0.188 HD
ENDROOT
BRANCH   1   3
HETATM    3  C6  UNL     1      14.719   9.920   3.470  1.00  0.00     0.153 A
HETATM    4  C5  UNL     1      15.110  11.084   4.070  1.00  0.00     0.149 A
HETATM    5  C4  UNL     1      15.010  11.199   5.452  1.00  0.00     0.059 A
HETATM    6  C3  UNL     1      14.511  10.118   6.188  1.00  0.00     0.064 A
HETATM    7  C15 UNL     1      14.130   8.971   5.546  1.00  0.00     0.023 A
HETATM    8  N5  UNL     1      14.236   8.878   4.190  1.00  0.00    -0.342 N
HETATM    9  C16 UNL     1      13.600   7.824   6.327  1.00  0.00     0.069 C
ATOM     10  H5  UNL     1      13.952   8.021   3.715  1.00  0.00     0.167 HD
BRANCH   4  11
HETATM   11  N1  UNL     1      15.619  12.145   3.278  1.00  0.00    -0.112 N
HETATM   12  O3  UNL     1      15.301  13.341   3.565  1.00  0.00    -0.532 OA
HETATM   13  O4  UNL     1      16.443  12.011   2.204  1.00  0.00    -0.532 OA
ENDBRANCH   4  11
BRANCH   6  14
HETATM   14  C2  UNL     1      14.426  10.290   7.637  1.00  0.00     0.294 C
HETATM   15  O2  UNL     1      13.382  10.759   8.184  1.00  0.00    -0.259 OA
BRANCH  14  16
HETATM   16  O1  UNL     1      15.450   9.968   8.502  1.00  0.00    -0.322 OA
HETATM   17  C1  UNL     1      15.638   8.729   9.123  1.00  0.00     0.213 C
ENDBRANCH  14  16
ENDBRANCH   6  14
ENDBRANCH   1   3
BRANCH   1  18
HETATM   18  N3  UNL     1      13.817  10.253   1.411  1.00  0.00    -0.309 N
HETATM   19  C7  UNL     1      13.406  10.578   0.317  1.00  0.00     0.118 C
ATOM     20  H3  UNL     1      13.030  10.383   2.047  1.00  0.00     0.186 HD
BRANCH  19  21
HETATM   21  C8  UNL     1      14.176  10.561  -0.920  1.00  0.00    -0.014 A
HETATM   22  C9  UNL     1      15.520  10.919  -0.911  1.00  0.00     0.052 A
HETATM   23  C10 UNL     1      16.229  10.900  -2.065  1.00  0.00     0.104 A
HETATM   24  C12 UNL     1      15.624  10.529  -3.232  1.00  0.00     0.132 A
HETATM   25  C13 UNL     1      14.315  10.172  -3.289  1.00  0.00     0.139 A
HETATM   26  C14 UNL     1      13.571  10.187  -2.100  1.00  0.00     0.052 A
BRANCH  23  27
HETATM   27  O5  UNL     1      17.557  11.243  -2.116  1.00  0.00    -0.353 OA
HETATM   28  C11 UNL     1      18.323  11.610  -0.984  1.00  0.00     0.210 C
ENDBRANCH  23  27
BRANCH  24  29
HETATM   29  O6  UNL     1      16.344  10.505  -4.427  1.00  0.00    -0.356 OA
ATOM     30  H6  UNL     1      16.002  10.930  -5.205  1.00  0.00     0.218 HD
ENDBRANCH  24  29
BRANCH  25  31
HETATM   31  N4  UNL     1      13.648   9.780  -4.486  1.00  0.00    -0.113 N
HETATM   32  O7  UNL     1      12.796   8.884  -4.447  1.00  0.00    -0.532 OA
HETATM   33  O8  UNL     1      13.952  10.395  -5.677  1.00  0.00    -0.532 OA
ENDBRANCH  25  31
ENDBRANCH  19  21
ENDBRANCH   1  18
TORSDOF 9
ENDMDL