MODEL 3
REMARK VINA RESULT: -6.335906496      1.222      3.168
REMARK  11 active torsions:
REMARK  status: ('A' for Active; 'I' for Inactive)
REMARK    1  A    between atoms: N1_2  and  O1_3
REMARK    2  A    between atoms: O1_3  and  C2_4
REMARK    3  A    between atoms: C2_4  and  N3_9
REMARK    4  A    between atoms: N2_5  and  O2_7
REMARK    5  A    between atoms: N3_9  and  C3_11
REMARK    6  A    between atoms: C4_12  and  C5_13
REMARK    7  A    between atoms: C7_15  and  O3_16
REMARK    8  A    between atoms: C9_18  and  O4_19
REMARK    9  A    between atoms: C11_21  and  O5_22
REMARK   10  A    between atoms: C13_24  and  O6_25
REMARK   11  A    between atoms: C17_30  and  O7_31
ROOT
HETATM    1  C3  UNL     1      16.534  10.672   0.996  1.00  0.00     0.124 A
HETATM    2  C4  UNL     1      15.628   9.928   1.710  1.00  0.00     0.036 A
HETATM    3  C15 UNL     1      14.521   9.429   1.072  1.00  0.00     0.116 A
HETATM    4  C16 UNL     1      13.526   8.671   1.741  1.00  0.00     0.105 C
HETATM    5  N4  UNL     1      12.724   8.059   2.303  1.00  0.00    -0.191 NA
HETATM    6  C17 UNL     1      14.366   9.696  -0.270  1.00  0.00     0.210 A
HETATM    7  O8  UNL     1      15.258  10.410  -0.909  1.00  0.00    -0.248 OA
HETATM    8  C19 UNL     1      16.322  10.908  -0.359  1.00  0.00     0.318 A
HETATM    9  O9  UNL     1      17.170  11.598  -1.008  1.00  0.00    -0.257 OA
ENDROOT
BRANCH   2  10
HETATM   10  C5  UNL     1      15.838   9.682   3.122  1.00  0.00     0.017 A
HETATM   11  C6  UNL     1      14.930  10.169   4.055  1.00  0.00     0.055 A
HETATM   12  C7  UNL     1      15.050   9.944   5.404  1.00  0.00     0.105 A
HETATM   13  C9  UNL     1      16.136   9.198   5.805  1.00  0.00     0.138 A
HETATM   14  C11 UNL     1      17.066   8.690   4.947  1.00  0.00     0.138 A
HETATM   15  C13 UNL     1      16.912   8.940   3.577  1.00  0.00     0.115 A
BRANCH  12  16
HETATM   16  O3  UNL     1      14.127  10.438   6.340  1.00  0.00    -0.353 OA
HETATM   17  C8  UNL     1      13.120   9.540   6.769  1.00  0.00     0.210 C
ENDBRANCH  12  16
BRANCH  13  18
HETATM   18  O4  UNL     1      16.294   8.948   7.160  1.00  0.00    -0.351 OA
HETATM   19  C10 UNL     1      15.687   7.866   7.833  1.00  0.00     0.210 C
ENDBRANCH  13  18
BRANCH  14  20
HETATM   20  O5  UNL     1      18.164   7.934   5.380  1.00  0.00    -0.351 OA
HETATM   21  C12 UNL     1      19.359   8.627   5.677  1.00  0.00     0.210 C
ENDBRANCH  14  20
BRANCH  15  22
HETATM   22  O6  UNL     1      17.856   8.428   2.713  1.00  0.00    -0.352 OA
HETATM   23  C14 UNL     1      19.175   8.867   2.570  1.00  0.00     0.210 C
ENDBRANCH  15  22
ENDBRANCH   2  10
BRANCH   6  24
HETATM   24  O7  UNL     1      13.248   9.191  -0.911  1.00  0.00    -0.334 OA
HETATM   25  C18 UNL     1      12.660   9.861  -2.021  1.00  0.00     0.212 C
ENDBRANCH   6  24
BRANCH   1  26
HETATM   26  N3  UNL     1      17.670  11.183   1.627  1.00  0.00    -0.314 N
ATOM     27  H3  UNL     1      18.235  10.557   2.202  1.00  0.00     0.170 HD
BRANCH  26  28
HETATM   28  C2  UNL     1      18.070  12.532   1.503  1.00  0.00     0.263 C
HETATM   29  N2  UNL     1      19.002  12.974   0.754  1.00  0.00    -0.231 N
ATOM     30  H2  UNL     1      19.191  13.977   0.760  1.00  0.00     0.198 HD
BRANCH  28  31
HETATM   31  O1  UNL     1      17.416  13.539   2.257  1.00  0.00    -0.207 OA
BRANCH  31  32
HETATM   32  N1  UNL     1      16.941  13.255   3.515  1.00  0.00    -0.096 NA
HETATM   33  C1  UNL     1      15.511  13.494   3.507  1.00  0.00     0.168 C
ENDBRANCH  31  32
ENDBRANCH  28  31
BRANCH  29  34
HETATM   34  O2  UNL     1      19.758  12.185  -0.053  1.00  0.00    -0.287 OA
ATOM     35  H2  UNL     1      20.106  12.468  -0.891  1.00  0.00     0.244 HD
ENDBRANCH  29  34
ENDBRANCH  26  28
ENDBRANCH   1  26
TORSDOF 11
ENDMDL