MODEL 1
REMARK VINA RESULT: -7.971872349      0.000      0.000
REMARK  10 active torsions:
REMARK  status: ('A' for Active; 'I' for Inactive)
REMARK    1  A    between atoms: O1_2  and  N1_3
REMARK    2  A    between atoms: C2_5  and  C3_6
REMARK    3  A    between atoms: C4_8  and  C5_9
REMARK    4  A    between atoms: C6_10  and  C7_11
REMARK    5  A    between atoms: C7_11  and  N2_12
REMARK    6  A    between atoms: C12_18  and  O4_19
REMARK    7  A    between atoms: C14_22  and  O5_23
REMARK    8  A    between atoms: C15_26  and  C16_27
REMARK    9  A    between atoms: C18_30  and  O8_31
REMARK   10  A    between atoms: C21_34  and  O9_35
ROOT
HETATM    1  C5  UNL     1      15.597  10.180   2.530  1.00  0.00     0.043 A
HETATM    2  C6  UNL     1      16.919  10.213   2.196  1.00  0.00     0.009 A
HETATM    3  C12 UNL     1      17.315  10.392   0.868  1.00  0.00     0.090 A
HETATM    4  C13 UNL     1      16.385  10.543  -0.119  1.00  0.00     0.072 A
HETATM    5  C14 UNL     1      16.456  10.762  -1.484  1.00  0.00     0.198 A
HETATM    6  O6  UNL     1      15.254  10.862  -1.942  1.00  0.00    -0.283 OA
HETATM    7  C15 UNL     1      14.338  10.727  -0.974  1.00  0.00     0.130 A
HETATM    8  C17 UNL     1      15.008  10.516   0.188  1.00  0.00     0.053 A
HETATM    9  C18 UNL     1      14.668  10.331   1.482  1.00  0.00     0.096 A
ENDROOT
BRANCH   1  10
HETATM   10  C4  UNL     1      15.088  10.008   3.889  1.00  0.00     0.092 A
HETATM   11  O2  UNL     1      14.853   8.803   4.424  1.00  0.00    -0.305 OA
HETATM   12  C3  UNL     1      14.403   8.876   5.656  1.00  0.00     0.126 A
HETATM   13  C21 UNL     1      14.322  10.172   5.994  1.00  0.00     0.103 A
HETATM   14  C20 UNL     1      14.766  10.884   4.847  1.00  0.00     0.077 A
BRANCH  12  15
HETATM   15  C2  UNL     1      14.062   7.725   6.484  1.00  0.00     0.154 C
HETATM   16  N1  UNL     1      14.307   7.570   7.659  1.00  0.00    -0.276 N
ATOM     17  H1  UNL     1      13.936   6.664   7.944  1.00  0.00     0.193 HD
BRANCH  16  18
HETATM   18  O1  UNL     1      14.871   8.126   8.710  1.00  0.00    -0.286 OA
HETATM   19  C1  UNL     1      14.197   8.994   9.624  1.00  0.00     0.237 C
ENDBRANCH  16  18
ENDBRANCH  12  15
BRANCH  13  20
HETATM   20  O9  UNL     1      13.907  10.740   7.171  1.00  0.00    -0.358 OA
ATOM     21  H9  UNL     1      13.802  11.657   7.393  1.00  0.00     0.217 HD
ENDBRANCH  13  20
ENDBRANCH   1  10
BRANCH   2  22
HETATM   22  C7  UNL     1      17.960  10.009   3.191  1.00  0.00     0.159 C
BRANCH  22  23
HETATM   23  N2  UNL     1      18.608   8.749   3.204  1.00  0.00    -0.404 N
HETATM   24  C8  UNL     1      20.046   8.776   3.366  1.00  0.00     0.143 C
HETATM   25  C9  UNL     1      20.315   8.642   4.872  1.00  0.00     0.187 C
HETATM   26  O3  UNL     1      19.176   8.907   5.625  1.00  0.00    -0.388 OA
HETATM   27  C10 UNL     1      18.183   7.954   5.416  1.00  0.00     0.187 C
HETATM   28  C11 UNL     1      17.944   7.725   3.930  1.00  0.00     0.143 C
ENDBRANCH  22  23
ENDBRANCH   2  22
BRANCH   9  29
HETATM   29  O8  UNL     1      13.309  10.256   1.862  1.00  0.00    -0.354 OA
HETATM   30  C19 UNL     1      12.728   8.904   1.785  1.00  0.00     0.210 C
ENDBRANCH   9  29
BRANCH   3  31
HETATM   31  O4  UNL     1      18.629  10.414   0.500  1.00  0.00    -0.359 OA
ATOM     32  H4  UNL     1      18.958  11.012  -0.162  1.00  0.00     0.217 HD
ENDBRANCH   3  31
BRANCH   7  33
HETATM   33  C16 UNL     1      12.918  10.818  -1.238  1.00  0.00     0.296 C
HETATM   34  O7  UNL     1      12.228  10.156  -1.990  1.00  0.00    -0.299 OA
ENDBRANCH   7  33
BRANCH   5  35
HETATM   35  O5  UNL     1      17.654  10.852  -2.213  1.00  0.00    -0.340 OA
ATOM     36  H5  UNL     1      18.338  11.490  -2.045  1.00  0.00     0.220 HD
ENDBRANCH   5  35
TORSDOF 10
ENDMDL