MODEL 1
REMARK VINA RESULT: -7.979809225      0.000      0.000
REMARK  10 active torsions:
REMARK  status: ('A' for Active; 'I' for Inactive)
REMARK    1  A    between atoms: O1_2  and  C2_3
REMARK    2  A    between atoms: C2_3  and  C3_7
REMARK    3  A    between atoms: C5_13  and  N4_14
REMARK    4  A    between atoms: N4_14  and  N5_16
REMARK    5  A    between atoms: C6_18  and  S1_19
REMARK    6  A    between atoms: S1_19  and  N6_20
REMARK    7  A    between atoms: C8_27  and  C9_28
REMARK    8  A    between atoms: C11_30  and  O2_31
REMARK    9  A    between atoms: C13_33  and  O3_34
REMARK   10  A    between atoms: C15_36  and  O4_37
ROOT
HETATM    1  C3  UNL     1      17.017   8.876   4.321  1.00  0.00     0.112 A
HETATM    2  N2  UNL     1      16.979   8.649   5.666  1.00  0.00    -0.335 N
ATOM      3  H2  UNL     1      17.718   8.104   6.111  1.00  0.00     0.168 HD
HETATM    4  C4  UNL     1      15.949   9.151   6.422  1.00  0.00     0.142 A
HETATM    5  N3  UNL     1      15.815   8.988   7.731  1.00  0.00    -0.319 N
ATOM      6  H3  UNL     1      16.502   8.459   8.266  1.00  0.00     0.169 HD
HETATM    7  C5  UNL     1      14.767   9.531   8.320  1.00  0.00     0.167 A
HETATM    8  S2  UNL     1      13.931  10.290   7.051  1.00  0.00    -0.031 SA
HETATM    9  C7  UNL     1      14.988   9.872   5.773  1.00  0.00     0.122 A
HETATM   10  N7  UNL     1      15.042  10.090   4.435  1.00  0.00    -0.345 N
ATOM     11  H7  UNL     1      14.305  10.634   3.987  1.00  0.00     0.167 HD
HETATM   12  C8  UNL     1      16.073   9.590   3.668  1.00  0.00     0.075 A
ENDROOT
BRANCH  12  13
HETATM   13  C9  UNL     1      16.011   9.886   2.273  1.00  0.00    -0.002 A
HETATM   14  C10 UNL     1      14.956   9.347   1.523  1.00  0.00     0.053 A
HETATM   15  C11 UNL     1      14.787   9.653   0.195  1.00  0.00     0.105 A
HETATM   16  C13 UNL     1      15.631  10.500  -0.487  1.00  0.00     0.135 A
HETATM   17  C15 UNL     1      16.673  11.036   0.240  1.00  0.00     0.105 A
HETATM   18  C17 UNL     1      16.840  10.729   1.574  1.00  0.00     0.053 A
BRANCH  15  19
HETATM   19  O2  UNL     1      13.735   9.114  -0.550  1.00  0.00    -0.353 OA
HETATM   20  C12 UNL     1      12.711   9.978  -1.069  1.00  0.00     0.210 C
ENDBRANCH  15  19
BRANCH  16  21
HETATM   21  O3  UNL     1      15.478  10.815  -1.811  1.00  0.00    -0.351 OA
HETATM   22  C14 UNL     1      15.926  10.013  -2.886  1.00  0.00     0.210 C
ENDBRANCH  16  21
BRANCH  17  23
HETATM   23  O4  UNL     1      17.560  11.896  -0.382  1.00  0.00    -0.353 OA
HETATM   24  C16 UNL     1      18.946  11.837  -0.110  1.00  0.00     0.210 C
ENDBRANCH  17  23
ENDBRANCH  12  13
BRANCH   1  25
HETATM   25  C2  UNL     1      18.108   8.247   3.605  1.00  0.00     0.165 C
HETATM   26  N1  UNL     1      18.162   6.934   3.596  1.00  0.00    -0.378 N
ATOM     27  H12 UNL     1      18.931   6.491   3.092  1.00  0.00     0.158 HD
ATOM     28  H11 UNL     1      17.415   6.467   4.112  1.00  0.00     0.158 HD
BRANCH  25  29
HETATM   29  O1  UNL     1      19.099   8.866   2.921  1.00  0.00    -0.339 OA
HETATM   30  C1  UNL     1      20.387   8.332   2.663  1.00  0.00     0.211 C
ENDBRANCH  25  29
ENDBRANCH   1  25
BRANCH   7  31
HETATM   31  N4  UNL     1      14.452   9.489   9.584  1.00  0.00    -0.279 N
ATOM     32  H4  UNL     1      13.893   8.715   9.939  1.00  0.00     0.189 HD
BRANCH  31  33
HETATM   33  N5  UNL     1      14.873  10.496  10.456  1.00  0.00    -0.302 N
HETATM   34  C6  UNL     1      14.084  11.461  10.706  1.00  0.00     0.174 C
ATOM     35  H5  UNL     1      15.798  10.457  10.886  1.00  0.00     0.186 HD
BRANCH  34  36
HETATM   36  S1  UNL     1      12.448  11.627  10.012  1.00  0.00    -0.015 SA
BRANCH  36  37
HETATM   37  N6  UNL     1      11.907  13.303  10.034  1.00  0.00    -0.369 N
ATOM     38  H62 UNL     1      12.458  14.077   9.662  1.00  0.00     0.164 HD
ATOM     39  H61 UNL     1      10.985  13.392  10.462  1.00  0.00     0.164 HD
ENDBRANCH  36  37
ENDBRANCH  34  36
ENDBRANCH  31  33
ENDBRANCH   7  31
TORSDOF 10
ENDMDL