MODEL 1
REMARK VINA RESULT: -8.072857611      0.000      0.000
REMARK  8 active torsions:
REMARK  status: ('A' for Active; 'I' for Inactive)
REMARK    1  A    between atoms: O1_2  and  C2_3
REMARK    2  A    between atoms: C2_3  and  C3_4
REMARK    3  A    between atoms: C3_4  and  N1_5
REMARK    4  A    between atoms: N1_5  and  N2_6
REMARK       I    between atoms: N1_5  and  C6_11
REMARK       I    between atoms: N2_6  and  C4_8
REMARK       I    between atoms: C6_11  and  N4_15
REMARK    5  A    between atoms: N4_15  and  C7_17
REMARK    6  A    between atoms: C7_17  and  C9_19
REMARK    7  A    between atoms: N7_23  and  C10_24
REMARK    8  A    between atoms: C10_24  and  C11_25
ROOT
HETATM    1  C11 UNL     1      15.209  10.397  -2.133  1.00  0.00     0.033 A
HETATM    2  S1  UNL     1      14.366  10.471  -0.647  1.00  0.00    -0.053 SA
HETATM    3  S2  UNL     1      12.544   9.871  -1.458  1.00  0.00    -0.039 SA
HETATM    4  C12 UNL     1      13.160   9.721  -3.045  1.00  0.00     0.100 A
HETATM    5  S3  UNL     1      12.085   9.234  -4.239  1.00  0.00    -0.070 SA
HETATM    6  C13 UNL     1      14.478  10.012  -3.214  1.00  0.00     0.088 A
HETATM    7  C14 UNL     1      15.069   9.869  -4.571  1.00  0.00     0.103 C
HETATM    8  N8  UNL     1      15.536   9.729  -5.644  1.00  0.00    -0.191 NA
ENDROOT
BRANCH   1   9
HETATM    9  C10 UNL     1      16.684  10.765  -2.210  1.00  0.00     0.215 C
BRANCH   9  10
HETATM   10  N7  UNL     1      17.246  11.019  -0.911  1.00  0.00    -0.212 N
HETATM   11  N6  UNL     1      17.947  12.106  -0.562  1.00  0.00    -0.003 NA
HETATM   12  N5  UNL     1      18.310  12.039   0.710  1.00  0.00    -0.269 N
HETATM   13  C9  UNL     1      17.844  10.897   1.204  1.00  0.00     0.133 A
ATOM     14  H5  UNL     1      18.850  12.739   1.219  1.00  0.00     0.185 HD
HETATM   15  N9  UNL     1      17.196  10.297   0.181  1.00  0.00    -0.271 N
ATOM     16  H9  UNL     1      16.727   9.393   0.251  1.00  0.00     0.190 HD
BRANCH  13  17
HETATM   17  C7  UNL     1      17.987  10.355   2.605  1.00  0.00     0.165 C
HETATM   18  C8  UNL     1      19.206   9.428   2.567  1.00  0.00     0.041 C
BRANCH  17  19
HETATM   19  N4  UNL     1      16.823   9.572   2.962  1.00  0.00    -0.214 N
HETATM   20  C6  UNL     1      15.724  10.237   3.569  1.00  0.00     0.689 C
HETATM   21  N1  UNL     1      14.830   9.655   4.494  1.00  0.00    -0.120 N
HETATM   22  N3  UNL     1      15.476  11.493   3.281  1.00  0.00    -0.233 N
ATOM     23  H32 UNL     1      14.687  11.971   3.717  1.00  0.00     0.174 HD
ATOM     24  H31 UNL     1      16.122  11.913   2.613  1.00  0.00     0.174 HD
ATOM     25  H4  UNL     1      16.792   8.568   2.782  1.00  0.00     0.178 HD
BRANCH  21  26
HETATM   26  C3  UNL     1      15.298   9.097   5.730  1.00  0.00     0.194 C
BRANCH  26  27
HETATM   27  C2  UNL     1      14.278   9.040   6.825  1.00  0.00     0.189 C
BRANCH  27  28
HETATM   28  O1  UNL     1      13.744  10.325   6.972  1.00  0.00    -0.394 OA
HETATM   29  C1  UNL     1      13.668  10.649   8.345  1.00  0.00     0.201 C
ENDBRANCH  27  28
ENDBRANCH  26  27
ENDBRANCH  21  26
BRANCH  21  30
HETATM   30  N2  UNL     1      13.472   9.631   4.196  1.00  0.00    -0.254 N
HETATM   31  C4  UNL     1      12.976   8.895   3.113  1.00  0.00     0.232 C
HETATM   32  C5  UNL     1      11.518   8.849   2.765  1.00  0.00     0.119 C
HETATM   33  O2  UNL     1      13.798   8.243   2.401  1.00  0.00    -0.272 OA
ATOM     34  H2  UNL     1      12.824  10.161   4.779  1.00  0.00     0.190 HD
ENDBRANCH  21  30
ENDBRANCH  17  19
ENDBRANCH  13  17
ENDBRANCH   9  10
ENDBRANCH   1   9
TORSDOF 8
ENDMDL