MODEL 1
REMARK VINA RESULT: -8.632316461      0.000      0.000
REMARK  9 active torsions:
REMARK  status: ('A' for Active; 'I' for Inactive)
REMARK    1  A    between atoms: O1_2  and  N1_3
REMARK    2  A    between atoms: C2_5  and  C4_7
REMARK    3  A    between atoms: C4_7  and  S1_8
REMARK    4  A    between atoms: S1_8  and  O4_11
REMARK    5  A    between atoms: O4_11  and  C5_12
REMARK    6  A    between atoms: C6_13  and  O5_14
REMARK    7  A    between atoms: C8_16  and  O6_17
REMARK    8  A    between atoms: O6_17  and  C9_18
REMARK    9  A    between atoms: C11_21  and  O8_22
ROOT
HETATM    1  C5  UNL     1      15.083   9.692   1.111  1.00  0.00     0.160 A
HETATM    2  C6  UNL     1      14.699   9.114   2.315  1.00  0.00     0.143 A
HETATM    3  C8  UNL     1      15.483   9.151   3.432  1.00  0.00     0.149 A
HETATM    4  C11 UNL     1      16.711   9.789   3.370  1.00  0.00     0.119 A
HETATM    5  C12 UNL     1      17.144  10.385   2.184  1.00  0.00     0.084 A
HETATM    6  C13 UNL     1      16.330  10.329   1.084  1.00  0.00     0.133 A
HETATM    7  O9  UNL     1      16.763  10.933  -0.105  1.00  0.00    -0.274 OA
HETATM    8  C14 UNL     1      17.973  11.585  -0.221  1.00  0.00     0.275 C
HETATM    9  O10 UNL     1      18.497  11.768  -1.325  1.00  0.00    -0.264 OA
HETATM   10  C15 UNL     1      18.639  12.067   1.027  1.00  0.00     0.157 C
HETATM   11  C16 UNL     1      17.995  13.338   1.535  1.00  0.00     0.029 C
HETATM   12  C17 UNL     1      18.442  11.029   2.088  1.00  0.00     0.178 C
HETATM   13  O11 UNL     1      19.368  10.742   2.845  1.00  0.00    -0.291 OA
ENDROOT
BRANCH   1  14
HETATM   14  O4  UNL     1      14.352   9.688  -0.025  1.00  0.00    -0.227 OA
BRANCH  14  15
HETATM   15  S1  UNL     1      14.168   9.769  -1.493  1.00  0.00     0.275 S
HETATM   16  O2  UNL     1      14.449   8.324  -1.958  1.00  0.00    -0.198 OA
HETATM   17  O3  UNL     1      12.546  10.899  -1.213  1.00  0.00    -0.198 OA
BRANCH  15  18
HETATM   18  C4  UNL     1      14.468  10.633  -3.072  1.00  0.00     0.225 C
BRANCH  18  19
HETATM   19  C2  UNL     1      14.287   9.817  -4.302  1.00  0.00     0.022 C
HETATM   20  N1  UNL     1      13.208   9.222  -4.597  1.00  0.00    -0.275 N
ATOM     21  H1  UNL     1      13.212   8.679  -5.460  1.00  0.00     0.193 HD
HETATM   22  C3  UNL     1      15.433   9.644  -5.260  1.00  0.00     0.066 C
BRANCH  20  23
HETATM   23  O1  UNL     1      12.060   9.226  -3.899  1.00  0.00    -0.285 OA
HETATM   24  C1  UNL     1      10.784   9.214  -4.489  1.00  0.00     0.237 C
ENDBRANCH  20  23
ENDBRANCH  18  19
ENDBRANCH  15  18
ENDBRANCH  14  15
ENDBRANCH   1  14
BRANCH   2  25
HETATM   25  O5  UNL     1      13.441   8.493   2.280  1.00  0.00    -0.350 OA
HETATM   26  C7  UNL     1      12.314   9.264   2.577  1.00  0.00     0.210 C
ENDBRANCH   2  25
BRANCH   3  27
HETATM   27  O6  UNL     1      15.062   8.565   4.600  1.00  0.00    -0.273 OA
BRANCH  27  28
HETATM   28  C9  UNL     1      14.436   9.255   5.607  1.00  0.00     0.260 C
HETATM   29  C10 UNL     1      13.734   8.572   6.742  1.00  0.00     0.126 C
HETATM   30  O7  UNL     1      14.461  10.515   5.556  1.00  0.00    -0.265 OA
ENDBRANCH  27  28
ENDBRANCH   3  27
BRANCH   4  31
HETATM   31  O8  UNL     1      17.451   9.802   4.502  1.00  0.00    -0.357 OA
ATOM     32  H8  UNL     1      18.382   9.965   4.405  1.00  0.00     0.218 HD
ENDBRANCH   4  31
TORSDOF 9
ENDMDL