MODEL 4
REMARK VINA RESULT: -8.316354430      1.512      1.910
REMARK  10 active torsions:
REMARK  status: ('A' for Active; 'I' for Inactive)
REMARK    1  A    between atoms: O1_2  and  C2_3
REMARK    2  A    between atoms: C4_5  and  O2_6
REMARK    3  A    between atoms: C5_8  and  C6_9
REMARK    4  A    between atoms: C6_9  and  C7_11
REMARK    5  A    between atoms: C8_12  and  C9_13
REMARK    6  A    between atoms: C11_17  and  C12_18
REMARK    7  A    between atoms: C15_25  and  O6_26
REMARK    8  A    between atoms: O6_26  and  C16_27
REMARK    9  A    between atoms: C18_30  and  O8_31
REMARK   10  A    between atoms: C20_34  and  O9_35
ROOT
HETATM    1  C9  UNL     1      16.613  11.101   2.337  1.00  0.00     0.115 A
HETATM    2  O4  UNL     1      17.267  11.312   1.237  1.00  0.00    -0.272 OA
HETATM    3  C10 UNL     1      16.823  11.096   0.027  1.00  0.00     0.305 A
HETATM    4  O5  UNL     1      17.544  11.337  -0.995  1.00  0.00    -0.259 OA
HETATM    5  C11 UNL     1      15.558  10.598  -0.200  1.00  0.00     0.120 A
HETATM    6  C15 UNL     1      14.817  10.356   0.936  1.00  0.00     0.135 A
HETATM    7  C18 UNL     1      15.299  10.589   2.192  1.00  0.00     0.135 A
ENDROOT
BRANCH   1   8
HETATM    8  C8  UNL     1      17.105  11.334   3.678  1.00  0.00     0.044 C
HETATM    9  C7  UNL     1      17.492  10.566   4.609  1.00  0.00     0.058 C
BRANCH   9  10
HETATM   10  C6  UNL     1      17.604   9.147   4.725  1.00  0.00     0.185 C
HETATM   11  O3  UNL     1      16.513   8.486   4.811  1.00  0.00    -0.287 OA
BRANCH  10  12
HETATM   12  C5  UNL     1      18.813   8.321   4.760  1.00  0.00     0.050 A
HETATM   13  C4  UNL     1      18.902   7.038   4.247  1.00  0.00     0.082 A
HETATM   14  C3  UNL     1      20.112   6.303   4.335  1.00  0.00     0.077 A
HETATM   15  C2  UNL     1      21.212   6.833   4.922  1.00  0.00     0.104 A
HETATM   16  C20 UNL     1      21.126   8.126   5.438  1.00  0.00     0.102 A
HETATM   17  C19 UNL     1      19.962   8.843   5.357  1.00  0.00     0.058 A
BRANCH  13  18
HETATM   18  O2  UNL     1      17.851   6.459   3.662  1.00  0.00    -0.360 OA
ATOM     19  H2  UNL     1      17.103   7.001   3.441  1.00  0.00     0.217 HD
ENDBRANCH  13  18
BRANCH  15  20
HETATM   20  O1  UNL     1      22.422   6.152   5.035  1.00  0.00    -0.353 OA
HETATM   21  C1  UNL     1      22.619   4.924   4.366  1.00  0.00     0.210 C
ENDBRANCH  15  20
BRANCH  16  22
HETATM   22  O9  UNL     1      22.269   8.633   6.028  1.00  0.00    -0.353 OA
HETATM   23  C21 UNL     1      22.285   8.858   7.420  1.00  0.00     0.210 C
ENDBRANCH  16  22
ENDBRANCH  10  12
ENDBRANCH   9  10
ENDBRANCH   1   8
BRANCH   7  24
HETATM   24  O8  UNL     1      14.529  10.334   3.307  1.00  0.00    -0.356 OA
ATOM     25  H8  UNL     1      13.711  10.800   3.439  1.00  0.00     0.218 HD
ENDBRANCH   7  24
BRANCH   6  26
HETATM   26  O6  UNL     1      13.522   9.856   0.806  1.00  0.00    -0.275 OA
BRANCH  26  27
HETATM   27  C16 UNL     1      13.168   8.617   1.320  1.00  0.00     0.260 C
HETATM   28  C17 UNL     1      13.926   7.388   1.045  1.00  0.00     0.126 C
HETATM   29  O7  UNL     1      12.146   8.580   2.055  1.00  0.00    -0.265 OA
ENDBRANCH  26  27
ENDBRANCH   6  26
BRANCH   5  30
HETATM   30  C12 UNL     1      14.990  10.289  -1.491  1.00  0.00     0.116 C
HETATM   31  N1  UNL     1      15.520   9.663  -2.492  1.00  0.00    -0.374 N
HETATM   32  C13 UNL     1      14.602   9.565  -3.608  1.00  0.00     0.141 C
ATOM     33  H1  UNL     1      16.467   9.286  -2.494  1.00  0.00     0.161 HD
HETATM   34  C14 UNL     1      13.238   9.876  -3.005  1.00  0.00     0.141 C
HETATM   35  N2  UNL     1      13.662  10.690  -1.869  1.00  0.00    -0.374 N
ATOM     36  H2  UNL     1      13.109  11.419  -1.419  1.00  0.00     0.161 HD
ENDBRANCH   5  30
TORSDOF 10
ENDMDL