MODEL 2
REMARK VINA RESULT: -7.506646065      1.470      7.836
REMARK  10 active torsions:
REMARK  status: ('A' for Active; 'I' for Inactive)
REMARK    1  A    between atoms: O1_2  and  C2_3
REMARK    2  A    between atoms: C5_7  and  O3_8
REMARK    3  A    between atoms: C6_10  and  C7_11
REMARK    4  A    between atoms: C8_12  and  C9_13
REMARK    5  A    between atoms: C10_15  and  O5_16
REMARK    6  A    between atoms: C12_19  and  O6_20
REMARK    7  A    between atoms: O6_20  and  C13_21
REMARK    8  A    between atoms: C15_24  and  O8_25
REMARK    9  A    between atoms: C19_30  and  O10_31
REMARK   10  A    between atoms: C20_33  and  O11_34
ROOT
HETATM    1  C2  UNL     1      15.191  10.315  -2.910  1.00  0.00     0.107 A
HETATM    2  C3  UNL     1      16.009  11.008  -2.026  1.00  0.00     0.078 A
HETATM    3  C4  UNL     1      16.015  10.717  -0.677  1.00  0.00     0.098 A
HETATM    4  O2  UNL     1      16.776  11.355   0.179  1.00  0.00    -0.286 OA
HETATM    5  C5  UNL     1      16.814  11.114   1.462  1.00  0.00     0.199 A
HETATM    6  C6  UNL     1      16.007  10.116   2.022  1.00  0.00     0.087 A
HETATM    7  C17 UNL     1      15.192   9.422   1.157  1.00  0.00     0.203 A
HETATM    8  O9  UNL     1      14.445   8.520   1.589  1.00  0.00    -0.286 OA
HETATM    9  C18 UNL     1      15.207   9.734  -0.185  1.00  0.00     0.085 A
HETATM   10  C19 UNL     1      14.386   9.041  -1.086  1.00  0.00     0.119 A
HETATM   11  C20 UNL     1      14.365   9.316  -2.436  1.00  0.00     0.136 A
ENDROOT
BRANCH   6  12
HETATM   12  C7  UNL     1      16.085   9.866   3.448  1.00  0.00     0.035 A
HETATM   13  C8  UNL     1      17.045   9.060   3.984  1.00  0.00     0.049 A
HETATM   14  C10 UNL     1      17.100   8.829   5.370  1.00  0.00     0.082 A
HETATM   15  C11 UNL     1      16.199   9.399   6.213  1.00  0.00     0.077 A
HETATM   16  C12 UNL     1      15.226  10.213   5.687  1.00  0.00     0.116 A
HETATM   17  C15 UNL     1      15.151  10.459   4.313  1.00  0.00     0.114 A
BRANCH  13  18
HETATM   18  C9  UNL     1      18.033   8.408   3.163  1.00  0.00     0.273 C
HETATM   19  O4  UNL     1      19.221   8.753   3.143  1.00  0.00    -0.301 OA
ENDBRANCH  13  18
BRANCH  14  20
HETATM   20  O5  UNL     1      18.085   8.007   5.883  1.00  0.00    -0.360 OA
ATOM     21  H5  UNL     1      18.309   8.066   6.804  1.00  0.00     0.217 HD
ENDBRANCH  14  20
BRANCH  16  22
HETATM   22  O6  UNL     1      14.301  10.801   6.540  1.00  0.00    -0.276 OA
BRANCH  22  23
HETATM   23  C13 UNL     1      13.712  10.188   7.615  1.00  0.00     0.260 C
HETATM   24  C14 UNL     1      13.912  10.610   9.025  1.00  0.00     0.126 C
HETATM   25  O7  UNL     1      12.957   9.210   7.398  1.00  0.00    -0.265 OA
ENDBRANCH  22  23
ENDBRANCH  16  22
BRANCH  17  26
HETATM   26  O8  UNL     1      14.166  11.278   3.791  1.00  0.00    -0.352 OA
HETATM   27  C16 UNL     1      12.978  10.820   3.223  1.00  0.00     0.210 C
ENDBRANCH  17  26
ENDBRANCH   6  12
BRANCH   5  28
HETATM   28  O3  UNL     1      17.649  11.827   2.337  1.00  0.00    -0.340 OA
ATOM     29  H3  UNL     1      17.372  12.629   2.763  1.00  0.00     0.220 HD
ENDBRANCH   5  28
BRANCH  10  30
HETATM   30  O10 UNL     1      13.577   8.049  -0.558  1.00  0.00    -0.357 OA
ATOM     31  H10 UNL     1      14.006   7.245  -0.289  1.00  0.00     0.218 HD
ENDBRANCH  10  30
BRANCH  11  32
HETATM   32  O11 UNL     1      13.549   8.617  -3.287  1.00  0.00    -0.351 OA
HETATM   33  C21 UNL     1      12.315   9.099  -3.780  1.00  0.00     0.210 C
ENDBRANCH  11  32
BRANCH   1  34
HETATM   34  O1  UNL     1      15.239  10.660  -4.246  1.00  0.00    -0.353 OA
HETATM   35  C1  UNL     1      15.526   9.704  -5.247  1.00  0.00     0.210 C
ENDBRANCH   1  34
TORSDOF 10
ENDMDL