MODEL 3
REMARK VINA RESULT: -8.054481226      1.919      3.772
REMARK  11 active torsions:
REMARK  status: ('A' for Active; 'I' for Inactive)
REMARK    1  A    between atoms: O1_2  and  N1_3
REMARK    2  A    between atoms: C2_5  and  O2_6
REMARK    3  A    between atoms: C2_5  and  C9_21
REMARK    4  A    between atoms: O2_6  and  C3_7
REMARK    5  A    between atoms: C3_7  and  C4_8
REMARK    6  A    between atoms: C6_12  and  N3_13
REMARK    7  A    between atoms: C7_18  and  O3_19
REMARK    8  A    between atoms: C10_22  and  O4_23
REMARK    9  A    between atoms: C13_28  and  O6_29
REMARK   10  A    between atoms: C15_31  and  C16_32
REMARK   11  A    between atoms: C16_32  and  O8_34
ROOT
HETATM    1  N1  UNL     1      19.623   9.215   2.301  1.00  0.00    -0.245 N
ATOM      2  H1  UNL     1      19.653   8.781   1.379  1.00  0.00     0.196 HD
HETATM    3  C2  UNL     1      18.746  10.100   2.498  1.00  0.00     0.176 C
ENDROOT
BRANCH   3   4
HETATM    4  O2  UNL     1      18.703  10.678   3.717  1.00  0.00    -0.329 OA
BRANCH   4   5
HETATM    5  C3  UNL     1      17.622  11.128   4.411  1.00  0.00     0.222 C
BRANCH   5   6
HETATM    6  C4  UNL     1      16.772  10.185   5.135  1.00  0.00     0.033 A
HETATM    7  C5  UNL     1      17.286   9.090   5.764  1.00  0.00     0.119 A
HETATM    8  N2  UNL     1      16.442   8.259   6.442  1.00  0.00    -0.201 N
HETATM    9  C6  UNL     1      15.145   8.507   6.492  1.00  0.00     0.677 A
ATOM     10  H2  UNL     1      16.817   7.437   6.916  1.00  0.00     0.183 HD
HETATM   11  N4  UNL     1      14.640   9.581   5.876  1.00  0.00    -0.170 N
HETATM   12  C7  UNL     1      15.399  10.439   5.195  1.00  0.00     0.166 A
ATOM     13  H4  UNL     1      13.635   9.751   5.928  1.00  0.00     0.186 HD
BRANCH   9  14
HETATM   14  N3  UNL     1      14.393   7.688   7.147  1.00  0.00    -0.234 N
ATOM     15  H32 UNL     1      13.439   7.936   7.413  1.00  0.00     0.174 HD
ATOM     16  H31 UNL     1      14.777   6.777   7.398  1.00  0.00     0.174 HD
ENDBRANCH   9  14
BRANCH  12  17
HETATM   17  O3  UNL     1      14.853  11.532   4.572  1.00  0.00    -0.340 OA
HETATM   18  C8  UNL     1      14.103  11.488   3.393  1.00  0.00     0.211 C
ENDBRANCH  12  17
ENDBRANCH   5   6
ENDBRANCH   4   5
ENDBRANCH   3   4
BRANCH   3  19
HETATM   19  C9  UNL     1      17.829  10.434   1.362  1.00  0.00     0.057 A
HETATM   20  C10 UNL     1      18.197  11.377   0.421  1.00  0.00     0.083 A
HETATM   21  C11 UNL     1      17.319  11.692  -0.637  1.00  0.00     0.075 A
HETATM   22  C12 UNL     1      16.125  11.055  -0.703  1.00  0.00     0.093 A
HETATM   23  O5  UNL     1      15.175  11.227  -1.626  1.00  0.00    -0.286 OA
HETATM   24  C18 UNL     1      15.730  10.106   0.223  1.00  0.00     0.026 A
HETATM   25  C13 UNL     1      14.178  10.462  -1.379  1.00  0.00     0.203 A
HETATM   26  C15 UNL     1      14.481   9.724  -0.208  1.00  0.00     0.111 A
HETATM   27  C19 UNL     1      16.598   9.803   1.256  1.00  0.00    -0.030 A
HETATM   28  C20 UNL     1      16.208   8.791   2.247  1.00  0.00     0.050 C
BRANCH  20  29
HETATM   29  O4  UNL     1      19.367  12.059   0.412  1.00  0.00    -0.360 OA
ATOM     30  H4  UNL     1      19.686  12.612   1.115  1.00  0.00     0.217 HD
ENDBRANCH  20  29
BRANCH  25  31
HETATM   31  O6  UNL     1      12.967  10.311  -2.079  1.00  0.00    -0.335 OA
HETATM   32  C14 UNL     1      12.984   9.566  -3.284  1.00  0.00     0.212 C
ENDBRANCH  25  31
BRANCH  26  33
HETATM   33  C16 UNL     1      13.594   8.767   0.389  1.00  0.00     0.298 C
HETATM   34  O7  UNL     1      13.782   7.521   0.339  1.00  0.00    -0.259 OA
BRANCH  33  35
HETATM   35  O8  UNL     1      12.446   9.202   1.079  1.00  0.00    -0.322 OA
HETATM   36  C17 UNL     1      12.185   8.781   2.405  1.00  0.00     0.213 C
ENDBRANCH  33  35
ENDBRANCH  26  33
ENDBRANCH   3  19
BRANCH   1  37
HETATM   37  O1  UNL     1      20.515   8.800   3.209  1.00  0.00    -0.283 OA
HETATM   38  C1  UNL     1      20.470   7.573   3.897  1.00  0.00     0.237 C
ENDBRANCH   1  37
TORSDOF 11
ENDMDL