MODEL 4
REMARK VINA RESULT: -8.929421042      0.967      1.224
REMARK  12 active torsions:
REMARK  status: ('A' for Active; 'I' for Inactive)
REMARK    1  A    between atoms: C2_2  and  O1_3
REMARK    2  A    between atoms: O1_3  and  C3_4
REMARK    3  A    between atoms: C3_4  and  O3_6
REMARK    4  A    between atoms: O3_6  and  N1_7
REMARK    5  A    between atoms: C4_9  and  N2_10
REMARK    6  A    between atoms: C4_9  and  C16_28
REMARK    7  A    between atoms: N2_10  and  C5_12
REMARK    8  A    between atoms: C6_14  and  C7_15
REMARK    9  A    between atoms: C12_22  and  C13_23
REMARK   10  A    between atoms: C13_23  and  O7_25
REMARK   11  A    between atoms: O7_25  and  C14_26
REMARK   12  A    between atoms: C17_34  and  N5_35
ROOT
HETATM    1  N1  UNL     1      15.805   9.958   0.904  1.00  0.00    -0.237 N
ATOM      2  H1  UNL     1      15.514   8.982   0.966  1.00  0.00     0.197 HD
HETATM    3  C4  UNL     1      16.875  10.261   1.502  1.00  0.00     0.159 C
ENDROOT
BRANCH   3   4
HETATM    4  N2  UNL     1      17.584   9.227   2.206  1.00  0.00    -0.333 N
ATOM      5  H2  UNL     1      18.240   8.627   1.707  1.00  0.00     0.168 HD
BRANCH   4   6
HETATM    6  C5  UNL     1      17.365   9.041   3.605  1.00  0.00     0.092 A
HETATM    7  S1  UNL     1      16.038   9.739   4.473  1.00  0.00    -0.073 SA
HETATM    8  C6  UNL     1      16.380   9.136   6.015  1.00  0.00     0.017 A
HETATM    9  C11 UNL     1      17.518   8.403   5.829  1.00  0.00     0.037 A
HETATM   10  C12 UNL     1      18.028   8.355   4.575  1.00  0.00     0.074 A
BRANCH   8  11
HETATM   11  C7  UNL     1      15.626   9.341   7.308  1.00  0.00     0.185 C
HETATM   12  C8  UNL     1      15.323   8.005   7.897  1.00  0.00     0.205 C
HETATM   13  O4  UNL     1      14.719   8.186   9.138  1.00  0.00    -0.386 OA
HETATM   14  C9  UNL     1      13.585   8.952   9.027  1.00  0.00     0.193 C
HETATM   15  C10 UNL     1      13.352   9.516   7.654  1.00  0.00     0.195 C
HETATM   16  O5  UNL     1      14.498  10.101   7.119  1.00  0.00    -0.376 OA
ENDBRANCH   8  11
BRANCH  10  17
HETATM   17  C13 UNL     1      19.268   7.588   4.241  1.00  0.00     0.296 C
HETATM   18  O6  UNL     1      20.103   7.960   3.412  1.00  0.00    -0.259 OA
BRANCH  17  19
HETATM   19  O7  UNL     1      19.530   6.376   4.885  1.00  0.00    -0.318 OA
BRANCH  19  20
HETATM   20  C14 UNL     1      20.234   5.343   4.210  1.00  0.00     0.174 C
HETATM   21  C15 UNL     1      19.365   4.116   4.040  1.00  0.00     0.034 C
ENDBRANCH  19  20
ENDBRANCH  17  19
ENDBRANCH  10  17
ENDBRANCH   4   6
ENDBRANCH   3   4
BRANCH   3  22
HETATM   22  C16 UNL     1      17.398  11.603   1.524  1.00  0.00     0.147 A
HETATM   23  N3  UNL     1      17.134  12.481   2.546  1.00  0.00    -0.234 N
HETATM   24  O8  UNL     1      17.718  13.582   2.268  1.00  0.00    -0.155 OA
ATOM     25  H3  UNL     1      16.573  12.289   3.375  1.00  0.00     0.197 HD
HETATM   26  N4  UNL     1      18.354  13.540   1.160  1.00  0.00    -0.224 N
HETATM   27  C17 UNL     1      18.182  12.309   0.649  1.00  0.00     0.154 A
ATOM     28  H4  UNL     1      18.891  14.299   0.742  1.00  0.00     0.198 HD
BRANCH  27  29
HETATM   29  N5  UNL     1      18.654  11.930  -0.460  1.00  0.00    -0.382 N
ATOM     30  H52 UNL     1      18.125  11.409  -1.160  1.00  0.00     0.157 HD
ATOM     31  H51 UNL     1      19.602  12.050  -0.818  1.00  0.00     0.157 HD
ENDBRANCH  27  29
ENDBRANCH   3  22
BRANCH   1  32
HETATM   32  O3  UNL     1      14.996  10.785   0.186  1.00  0.00    -0.173 OA
BRANCH  32  33
HETATM   33  C3  UNL     1      14.972  10.808  -1.208  1.00  0.00     0.428 C
HETATM   34  O2  UNL     1      16.039  10.630  -1.839  1.00  0.00    -0.227 OA
BRANCH  33  35
HETATM   35  O1  UNL     1      13.810  11.023  -1.932  1.00  0.00    -0.297 OA
BRANCH  35  36
HETATM   36  C2  UNL     1      12.847  10.010  -2.152  1.00  0.00     0.177 C
HETATM   37  C1  UNL     1      12.840   9.516  -3.560  1.00  0.00     0.034 C
ENDBRANCH  35  36
ENDBRANCH  33  35
ENDBRANCH  32  33
ENDBRANCH   1  32
TORSDOF 12
ENDMDL