MODEL 3
REMARK VINA RESULT: -8.215508733      4.459      7.795
REMARK  13 active torsions:
REMARK  status: ('A' for Active; 'I' for Inactive)
REMARK    1  A    between atoms: C2_2  and  O1_3
REMARK    2  A    between atoms: O1_3  and  C3_4
REMARK    3  A    between atoms: C3_4  and  C4_6
REMARK    4  A    between atoms: C4_6  and  N1_7
REMARK    5  A    between atoms: C6_9  and  C7_10
REMARK    6  A    between atoms: C7_10  and  O4_12
REMARK    7  A    between atoms: O4_12  and  C8_13
REMARK    8  A    between atoms: C8_13  and  C9_14
REMARK    9  A    between atoms: C12_18  and  O6_19
REMARK   10  A    between atoms: C14_21  and  O7_22
REMARK   11  A    between atoms: C15_24  and  O8_25
REMARK   12  A    between atoms: C17_27  and  O9_28
REMARK   13  A    between atoms: C19_32  and  N2_33
ROOT
HETATM    1  C8  UNL     1      17.337   8.711   4.656  1.00  0.00     0.156 C
ENDROOT
BRANCH   1   2
HETATM    2  O4  UNL     1      16.102   8.416   4.136  1.00  0.00    -0.286 OA
BRANCH   2   3
HETATM    3  C7  UNL     1      15.173   9.353   3.765  1.00  0.00     0.306 C
HETATM    4  O3  UNL     1      14.647  10.024   4.715  1.00  0.00    -0.258 OA
BRANCH   3   5
HETATM    5  C6  UNL     1      14.745   9.636   2.399  1.00  0.00     0.099 A
HETATM    6  C5  UNL     1      15.299  10.402   1.412  1.00  0.00     0.118 A
HETATM    7  N1  UNL     1      14.705  10.438   0.256  1.00  0.00    -0.327 N
HETATM    8  C19 UNL     1      13.586   9.730   0.086  1.00  0.00     0.145 A
HETATM    9  S1  UNL     1      13.368   8.991   1.610  1.00  0.00    -0.047 SA
BRANCH   7  10
HETATM   10  C4  UNL     1      15.222  11.232  -0.895  1.00  0.00     0.241 C
BRANCH  10  11
HETATM   11  C3  UNL     1      16.510  10.695  -1.375  1.00  0.00     0.277 C
HETATM   12  O2  UNL     1      16.512   9.511  -1.835  1.00  0.00    -0.263 OA
BRANCH  11  13
HETATM   13  O1  UNL     1      17.710  11.366  -1.364  1.00  0.00    -0.321 OA
BRANCH  13  14
HETATM   14  C2  UNL     1      18.555  11.383  -0.199  1.00  0.00     0.174 C
HETATM   15  C1  UNL     1      18.286  12.655   0.555  1.00  0.00     0.034 C
ENDBRANCH  13  14
ENDBRANCH  11  13
ENDBRANCH  10  11
ENDBRANCH   7  10
BRANCH   8  16
HETATM   16  N2  UNL     1      12.846   9.638  -1.001  1.00  0.00    -0.379 N
ATOM     17  H22 UNL     1      11.974  10.113  -1.232  1.00  0.00     0.158 HD
ATOM     18  H21 UNL     1      13.016   9.064  -1.826  1.00  0.00     0.158 HD
ENDBRANCH   8  16
ENDBRANCH   3   5
ENDBRANCH   2   3
ENDBRANCH   1   2
BRANCH   1  19
HETATM   19  C9  UNL     1      18.481   8.810   4.054  1.00  0.00     0.004 C
HETATM   20  C10 UNL     1      19.010  10.045   3.406  1.00  0.00     0.217 C
HETATM   21  O5  UNL     1      19.940   9.529   2.466  1.00  0.00    -0.343 OA
HETATM   22  C11 UNL     1      20.400   8.286   2.908  1.00  0.00     0.119 A
HETATM   23  C12 UNL     1      21.502   7.558   2.530  1.00  0.00     0.138 A
HETATM   24  C18 UNL     1      19.514   7.816   3.890  1.00  0.00     0.046 A
HETATM   25  C14 UNL     1      21.753   6.336   3.121  1.00  0.00     0.138 A
HETATM   26  C15 UNL     1      20.905   5.823   4.103  1.00  0.00     0.138 A
HETATM   27  C17 UNL     1      19.816   6.596   4.443  1.00  0.00     0.115 A
BRANCH  23  28
HETATM   28  O6  UNL     1      22.372   8.027   1.559  1.00  0.00    -0.351 OA
HETATM   29  C13 UNL     1      22.056   7.855   0.196  1.00  0.00     0.210 C
ENDBRANCH  23  28
BRANCH  25  30
HETATM   30  O7  UNL     1      22.854   5.585   2.760  1.00  0.00    -0.356 OA
ATOM     31  H7  UNL     1      23.332   5.077   3.405  1.00  0.00     0.218 HD
ENDBRANCH  25  30
BRANCH  26  32
HETATM   32  O8  UNL     1      21.167   4.596   4.691  1.00  0.00    -0.351 OA
HETATM   33  C16 UNL     1      20.753   3.432   4.015  1.00  0.00     0.210 C
ENDBRANCH  26  32
BRANCH  27  34
HETATM   34  O9  UNL     1      18.980   6.090   5.411  1.00  0.00    -0.357 OA
ATOM     35  H9  UNL     1      18.195   6.589   5.597  1.00  0.00     0.217 HD
ENDBRANCH  27  34
ENDBRANCH   1  19
TORSDOF 13
ENDMDL