MODEL 2
REMARK VINA RESULT: -8.749883000      2.571      5.104
REMARK  9 active torsions:
REMARK  status: ('A' for Active; 'I' for Inactive)
REMARK    1  A    between atoms: C2_2  and  C3_3
REMARK    2  A    between atoms: C3_3  and  N1_4
REMARK       I    between atoms: N1_4  and  C4_6
REMARK       I    between atoms: C4_6  and  N2_8
REMARK    3  A    between atoms: N2_8  and  N3_10
REMARK       I    between atoms: N3_10  and  C5_12
REMARK    4  A    between atoms: C5_12  and  O3_14
REMARK    5  A    between atoms: O3_14  and  N4_15
REMARK    6  A    between atoms: C6_17  and  C7_18
REMARK    7  A    between atoms: C6_17  and  C9_20
REMARK    8  A    between atoms: N7_24  and  C10_25
REMARK    9  A    between atoms: C11_31  and  N10_32
ROOT
HETATM    1  N4  UNL     1      16.680  10.976   2.130  1.00  0.00    -0.253 N
ATOM      2  H4  UNL     1      17.293  11.467   2.781  1.00  0.00     0.195 HD
HETATM    3  C6  UNL     1      16.993  10.914   0.910  1.00  0.00     0.100 C
ENDROOT
BRANCH   3   4
HETATM    4  C7  UNL     1      18.220  11.546   0.465  1.00  0.00     0.025 C
HETATM    5  C8  UNL     1      18.553  12.780   0.774  1.00  0.00     0.014 C
ENDBRANCH   3   4
BRANCH   3   6
HETATM    6  C9  UNL     1      16.161  10.237  -0.064  1.00  0.00     0.163 A
HETATM    7  N5  UNL     1      15.389   9.146   0.080  1.00  0.00    -0.265 N
HETATM    8  N6  UNL     1      14.809   8.882  -1.089  1.00  0.00     0.004 NA
ATOM      9  H5  UNL     1      15.268   8.612   0.940  1.00  0.00     0.186 HD
HETATM   10  N7  UNL     1      15.178   9.769  -2.001  1.00  0.00    -0.156 N
HETATM   11  N11 UNL     1      15.997  10.589  -1.378  1.00  0.00    -0.261 N
ATOM     12  H11 UNL     1      16.453  11.387  -1.819  1.00  0.00     0.190 HD
BRANCH  10  13
HETATM   13  C10 UNL     1      14.756   9.786  -3.360  1.00  0.00     0.210 A
HETATM   14  N8  UNL     1      15.496   9.910  -4.456  1.00  0.00    -0.219 N
HETATM   15  O4  UNL     1      14.728   9.878  -5.514  1.00  0.00    -0.153 OA
ATOM     16  H8  UNL     1      16.511  10.014  -4.471  1.00  0.00     0.198 HD
HETATM   17  N9  UNL     1      13.486   9.736  -5.188  1.00  0.00    -0.222 N
HETATM   18  C11 UNL     1      13.433   9.671  -3.832  1.00  0.00     0.170 A
ATOM     19  H9  UNL     1      12.694   9.683  -5.828  1.00  0.00     0.198 HD
BRANCH  18  20
HETATM   20  N10 UNL     1      12.479   9.542  -3.056  1.00  0.00    -0.381 N
ATOM     21 2H10 UNL     1      12.445   9.360  -2.053  1.00  0.00     0.157 HD
ATOM     22 1H10 UNL     1      11.514   9.610  -3.381  1.00  0.00     0.157 HD
ENDBRANCH  18  20
ENDBRANCH  10  13
ENDBRANCH   3   6
BRANCH   1  23
HETATM   23  O3  UNL     1      15.531  10.396   2.598  1.00  0.00    -0.179 OA
BRANCH  23  24
HETATM   24  C5  UNL     1      15.120  10.754   3.901  1.00  0.00     0.401 C
HETATM   25  N3  UNL     1      14.295   9.929   4.686  1.00  0.00    -0.240 N
ATOM     26  H3  UNL     1      13.967   9.035   4.320  1.00  0.00     0.192 HD
HETATM   27  O2  UNL     1      15.512  11.853   4.365  1.00  0.00    -0.235 OA
BRANCH  25  28
HETATM   28  N2  UNL     1      13.929  10.339   5.960  1.00  0.00    -0.247 N
HETATM   29  C4  UNL     1      14.566   9.964   7.165  1.00  0.00     0.335 C
HETATM   30  N1  UNL     1      14.073  10.464   8.393  1.00  0.00    -0.338 N
HETATM   31  O1  UNL     1      15.545   9.204   7.136  1.00  0.00    -0.246 OA
ATOM     32  H1  UNL     1      13.260  11.080   8.393  1.00  0.00     0.164 HD
ATOM     33  H2  UNL     1      13.128  10.967   6.033  1.00  0.00     0.192 HD
BRANCH  30  34
HETATM   34  C3  UNL     1      14.689  10.125   9.626  1.00  0.00     0.151 C
BRANCH  34  35
HETATM   35  C2  UNL     1      14.563  11.169  10.641  1.00  0.00    -0.018 C
HETATM   36  C1  UNL     1      13.453  11.794  10.948  1.00  0.00     0.008 C
ENDBRANCH  34  35
ENDBRANCH  30  34
ENDBRANCH  25  28
ENDBRANCH  23  24
ENDBRANCH   1  23
TORSDOF 9
ENDMDL