MODEL 1
REMARK VINA RESULT: -8.217260077      0.000      0.000
REMARK  11 active torsions:
REMARK  status: ('A' for Active; 'I' for Inactive)
REMARK    1  A    between atoms: C1_2  and  C2_4
REMARK    2  A    between atoms: C2_4  and  C3_6
REMARK    3  A    between atoms: C3_6  and  C4_8
REMARK    4  A    between atoms: C4_8  and  O5_9
REMARK    5  A    between atoms: O5_9  and  C5_10
REMARK    6  A    between atoms: C5_10  and  C6_12
REMARK    7  A    between atoms: C8_14  and  O7_15
REMARK    8  A    between atoms: C9_17  and  O8_18
REMARK    9  A    between atoms: C10_20  and  O9_21
REMARK   10  A    between atoms: C11_23  and  O10_24
REMARK   11  A    between atoms: O10_24  and  S1_25
ROOT
HETATM    1  C6  UNL     1      16.266  10.419   1.356  1.00  0.00     0.080 A
HETATM    2  C7  UNL     1      15.068  10.466   2.079  1.00  0.00     0.060 A
HETATM    3  C8  UNL     1      15.132  10.331   3.441  1.00  0.00     0.102 A
HETATM    4  C9  UNL     1      16.356  10.150   4.091  1.00  0.00     0.135 A
HETATM    5  C10 UNL     1      17.506  10.110   3.337  1.00  0.00     0.138 A
HETATM    6  C11 UNL     1      17.492  10.245   1.942  1.00  0.00     0.144 A
ENDROOT
BRANCH   1   7
HETATM    7  C5  UNL     1      16.204  10.533  -0.120  1.00  0.00     0.296 C
HETATM    8  O6  UNL     1      16.341  11.646  -0.670  1.00  0.00    -0.259 OA
BRANCH   7   9
HETATM    9  O5  UNL     1      15.998   9.434  -0.923  1.00  0.00    -0.309 OA
BRANCH   9  10
HETATM   10  C4  UNL     1      14.764   8.829  -1.208  1.00  0.00     0.266 C
BRANCH  10  11
HETATM   11  C3  UNL     1      13.907   9.559  -2.139  1.00  0.00     0.230 C
HETATM   12  O4  UNL     1      12.979  10.285  -1.727  1.00  0.00    -0.286 OA
BRANCH  11  13
HETATM   13  C2  UNL     1      14.120   9.452  -3.572  1.00  0.00     0.295 C
HETATM   14  O3  UNL     1      15.132  10.005  -4.121  1.00  0.00    -0.277 OA
BRANCH  13  15
HETATM   15  C1  UNL     1      13.195   8.718  -4.428  1.00  0.00     0.255 C
HETATM   16  O1  UNL     1      12.423   9.323  -5.215  1.00  0.00    -0.641 OA
HETATM   17  O2  UNL     1      13.144   7.334  -4.396  1.00  0.00    -0.641 OA
ENDBRANCH  13  15
ENDBRANCH  11  13
ENDBRANCH  10  11
ENDBRANCH   9  10
ENDBRANCH   7   9
ENDBRANCH   1   7
BRANCH   6  18
HETATM   18  O10 UNL     1      18.677  10.203   1.224  1.00  0.00    -0.210 OA
BRANCH  18  19
HETATM   19  S1  UNL     1      19.573  11.672   1.148  1.00  0.00     0.257 S
HETATM   20  O11 UNL     1      20.389  11.729  -0.098  1.00  0.00    -0.572 OA
HETATM   21  O12 UNL     1      20.585  11.644   2.293  1.00  0.00    -0.572 OA
HETATM   22  O13 UNL     1      18.593  12.992   1.355  1.00  0.00    -0.572 OA
ENDBRANCH  18  19
ENDBRANCH   6  18
BRANCH   3  23
HETATM   23  O7  UNL     1      13.961  10.370   4.227  1.00  0.00    -0.358 OA
ATOM     24  H7  UNL     1      13.967  10.769   5.089  1.00  0.00     0.217 HD
ENDBRANCH   3  23
BRANCH   5  25
HETATM   25  O9  UNL     1      18.751   9.931   3.937  1.00  0.00    -0.356 OA
ATOM     26  H9  UNL     1      19.397   9.347   3.558  1.00  0.00     0.218 HD
ENDBRANCH   5  25
BRANCH   4  27
HETATM   27  O8  UNL     1      16.406  10.013   5.475  1.00  0.00    -0.356 OA
ATOM     28  H8  UNL     1      16.917  10.617   6.001  1.00  0.00     0.218 HD
ENDBRANCH   4  27
TORSDOF 11
ENDMDL