MODEL 1
REMARK VINA RESULT: -8.402860164      0.000      0.000
REMARK  11 active torsions:
REMARK  status: ('A' for Active; 'I' for Inactive)
REMARK    1  A    between atoms: N1_1  and  C1_4
REMARK    2  A    between atoms: C2_7  and  O1_8
REMARK    3  A    between atoms: O1_8  and  C3_9
REMARK    4  A    between atoms: C3_9  and  C4_10
REMARK       I    between atoms: C4_10  and  N3_12
REMARK    5  A    between atoms: C6_16  and  C7_17
REMARK    6  A    between atoms: C8_19  and  N4_20
REMARK    7  A    between atoms: C9_25  and  C10_26
REMARK    8  A    between atoms: C10_26  and  O6_28
REMARK    9  A    between atoms: O6_28  and  C11_29
REMARK   10  A    between atoms: C11_29  and  O7_30
REMARK   11  A    between atoms: O7_30  and  N6_31
ROOT
HETATM    1  C1  UNL     1      16.787   8.592   3.799  1.00  0.00     0.678 A
HETATM    2  N2  UNL     1      16.150   9.121   4.844  1.00  0.00    -0.171 N
ATOM      3  H2  UNL     1      16.406   8.845   5.792  1.00  0.00     0.186 HD
HETATM    4  C2  UNL     1      15.170  10.016   4.647  1.00  0.00     0.160 A
HETATM    5  C5  UNL     1      14.839  10.377   3.325  1.00  0.00     0.088 A
HETATM    6  C6  UNL     1      15.466   9.854   2.251  1.00  0.00     0.073 A
HETATM    7  N7  UNL     1      16.459   8.942   2.559  1.00  0.00    -0.191 N
ATOM      8  H7  UNL     1      16.971   8.513   1.789  1.00  0.00     0.184 HD
ENDROOT
BRANCH   6   9
HETATM    9  C7  UNL     1      15.184  10.061   0.843  1.00  0.00     0.068 A
HETATM   10  S1  UNL     1      13.637   9.565   0.143  1.00  0.00    -0.050 SA
HETATM   11  C8  UNL     1      13.903  10.098  -1.435  1.00  0.00     0.143 A
HETATM   12  N5  UNL     1      15.116  10.621  -1.380  1.00  0.00    -0.331 N
HETATM   13  C9  UNL     1      15.778  10.614  -0.234  1.00  0.00     0.130 A
ATOM     14  H5  UNL     1      15.538  11.028  -2.216  1.00  0.00     0.168 HD
BRANCH  11  15
HETATM   15  N4  UNL     1      13.103  10.020  -2.482  1.00  0.00    -0.380 N
ATOM     16  H42 UNL     1      12.750   9.178  -2.936  1.00  0.00     0.158 HD
ATOM     17  H41 UNL     1      12.690  10.774  -3.030  1.00  0.00     0.158 HD
ENDBRANCH  11  15
BRANCH  13  18
HETATM   18  C10 UNL     1      17.106  11.293  -0.174  1.00  0.00     0.313 C
HETATM   19  O5  UNL     1      17.860  11.415  -1.119  1.00  0.00    -0.257 OA
BRANCH  18  20
HETATM   20  O6  UNL     1      17.577  11.848   1.028  1.00  0.00    -0.288 OA
BRANCH  20  21
HETATM   21  C11 UNL     1      18.695  11.300   1.703  1.00  0.00     0.379 C
BRANCH  21  22
HETATM   22  O7  UNL     1      19.759  12.148   1.415  1.00  0.00    -0.261 OA
BRANCH  22  23
HETATM   23  N6  UNL     1      20.566  11.640   0.448  1.00  0.00    -0.309 N
ATOM     24  H62 UNL     1      21.153  10.817   0.586  1.00  0.00     0.184 HD
ATOM     25  H61 UNL     1      20.509  12.177  -0.417  1.00  0.00     0.184 HD
ENDBRANCH  22  23
ENDBRANCH  21  22
ENDBRANCH  20  21
ENDBRANCH  18  20
ENDBRANCH  13  18
ENDBRANCH   6   9
BRANCH   4  26
HETATM   26  O1  UNL     1      14.502  10.572   5.717  1.00  0.00    -0.326 OA
BRANCH  26  27
HETATM   27  C3  UNL     1      13.951   9.724   6.705  1.00  0.00     0.286 C
BRANCH  27  28
HETATM   28  C4  UNL     1      14.719   9.805   7.973  1.00  0.00     0.308 C
HETATM   29  O2  UNL     1      15.808   9.215   8.126  1.00  0.00    -0.264 OA
HETATM   30  N3  UNL     1      14.199  10.573   9.043  1.00  0.00    -0.076 N
HETATM   31  O3  UNL     1      14.813  10.657  10.103  1.00  0.00    -0.529 OA
HETATM   32  O4  UNL     1      13.004  11.253   8.954  1.00  0.00    -0.529 OA
ENDBRANCH  27  28
ENDBRANCH  26  27
ENDBRANCH   4  26
BRANCH   1  33
HETATM   33  N1  UNL     1      17.736   7.724   4.034  1.00  0.00    -0.234 N
ATOM     34  H12 UNL     1      17.822   7.261   4.939  1.00  0.00     0.174 HD
ATOM     35  H11 UNL     1      18.395   7.520   3.282  1.00  0.00     0.174 HD
ENDBRANCH   1  33
TORSDOF 11
ENDMDL