MODEL 1
REMARK VINA RESULT: -9.263374970      0.000      0.000
REMARK  12 active torsions:
REMARK  status: ('A' for Active; 'I' for Inactive)
REMARK    1  A    between atoms: C3_3  and  N1_4
REMARK    2  A    between atoms: N1_4  and  O1_5
REMARK    3  A    between atoms: N1_4  and  O2_7
REMARK    4  A    between atoms: C5_13  and  O4_14
REMARK    5  A    between atoms: C6_18  and  O5_19
REMARK    6  A    between atoms: O5_19  and  C7_20
REMARK    7  A    between atoms: C7_20  and  C8_21
REMARK    8  A    between atoms: C8_21  and  C9_22
REMARK    9  A    between atoms: C9_22  and  O6_23
REMARK   10  A    between atoms: O6_23  and  N4_24
REMARK   11  A    between atoms: C10_26  and  C11_27
REMARK   12  A    between atoms: C12_30  and  N6_31
ROOT
HETATM    1  C1  UNL     1      17.139   9.947   2.153  1.00  0.00     0.054 C
HETATM    2  C2  UNL     1      16.786  10.562   0.849  1.00  0.00     0.007 A
HETATM    3  C3  UNL     1      17.476  11.432   0.012  1.00  0.00     0.185 A
HETATM    4  O3  UNL     1      16.798  11.655  -1.068  1.00  0.00    -0.276 OA
HETATM    5  C4  UNL     1      15.645  10.961  -0.995  1.00  0.00     0.168 A
HETATM    6  N2  UNL     1      14.595  10.811  -1.853  1.00  0.00    -0.301 N
ATOM      7  H2  UNL     1      14.567  11.297  -2.749  1.00  0.00     0.171 HD
HETATM    8  C5  UNL     1      13.573   9.972  -1.456  1.00  0.00     0.225 A
HETATM    9  N3  UNL     1      13.492   9.296  -0.350  1.00  0.00    -0.302 N
ATOM     10  H3  UNL     1      12.698   8.690  -0.145  1.00  0.00     0.171 HD
HETATM   11  C6  UNL     1      14.560   9.449   0.545  1.00  0.00     0.160 A
HETATM   12  C13 UNL     1      15.581  10.257   0.193  1.00  0.00     0.076 A
ENDROOT
BRANCH  11  13
HETATM   13  O5  UNL     1      14.587   8.812   1.755  1.00  0.00    -0.335 OA
BRANCH  13  14
HETATM   14  C7  UNL     1      13.483   8.216   2.310  1.00  0.00     0.179 C
BRANCH  14  15
HETATM   15  C8  UNL     1      13.095   9.114   3.548  1.00  0.00     0.055 C
BRANCH  15  16
HETATM   16  C9  UNL     1      14.401   9.212   4.384  1.00  0.00     0.203 C
BRANCH  16  17
HETATM   17  O6  UNL     1      14.097   8.338   5.565  1.00  0.00    -0.281 OA
BRANCH  17  18
HETATM   18  N4  UNL     1      15.100   8.316   6.444  1.00  0.00    -0.274 N
HETATM   19  C10 UNL     1      15.416   8.827   7.486  1.00  0.00     0.172 C
ATOM     20  H4  UNL     1      15.823   7.666   6.137  1.00  0.00     0.193 HD
BRANCH  19  21
HETATM   21  C11 UNL     1      14.725   9.813   8.295  1.00  0.00     0.202 A
HETATM   22  N5  UNL     1      15.079  10.175   9.519  1.00  0.00    -0.166 N
HETATM   23  C12 UNL     1      14.219  11.106  10.041  1.00  0.00     0.698 A
ATOM     24  H5  UNL     1      15.891   9.807  10.013  1.00  0.00     0.186 HD
HETATM   25  N7  UNL     1      13.323  11.324   9.101  1.00  0.00    -0.089 N
HETATM   26  O7  UNL     1      13.643  10.529   8.053  1.00  0.00    -0.203 OA
ATOM     27  H7  UNL     1      12.536  11.970   9.153  1.00  0.00     0.213 HD
BRANCH  23  28
HETATM   28  N6  UNL     1      14.395  11.471  11.262  1.00  0.00    -0.233 N
ATOM     29  H62 UNL     1      14.434  11.011  12.171  1.00  0.00     0.174 HD
ATOM     30  H61 UNL     1      14.635  12.446  11.439  1.00  0.00     0.174 HD
ENDBRANCH  23  28
ENDBRANCH  19  21
ENDBRANCH  17  18
ENDBRANCH  16  17
ENDBRANCH  15  16
ENDBRANCH  14  15
ENDBRANCH  13  14
ENDBRANCH  11  13
BRANCH   8  31
HETATM   31  O4  UNL     1      12.593   9.900  -2.353  1.00  0.00    -0.332 OA
ATOM     32  H4  UNL     1      12.449  10.723  -2.805  1.00  0.00     0.221 HD
ENDBRANCH   8  31
BRANCH   3  33
HETATM   33  N1  UNL     1      18.750  11.985   0.304  1.00  0.00    -0.011 NA
BRANCH  33  34
HETATM   34  O1  UNL     1      18.721  13.276  -0.001  1.00  0.00    -0.283 OA
ATOM     35  H1  UNL     1      19.492  13.475  -0.520  1.00  0.00     0.240 HD
ENDBRANCH  33  34
BRANCH  33  36
HETATM   36  O2  UNL     1      19.750  11.390  -0.395  1.00  0.00    -0.283 OA
ATOM     37  H2  UNL     1      20.564  11.348   0.095  1.00  0.00     0.240 HD
ENDBRANCH  33  36
ENDBRANCH   3  33
TORSDOF 12
ENDMDL