MODEL 5
REMARK VINA RESULT: -7.586198098      2.591      6.838
REMARK  11 active torsions:
REMARK  status: ('A' for Active; 'I' for Inactive)
REMARK    1  A    between atoms: O1_2  and  C2_3
REMARK    2  A    between atoms: C2_3  and  C3_5
REMARK    3  A    between atoms: C4_6  and  C5_7
REMARK    4  A    between atoms: C5_7  and  O3_9
REMARK    5  A    between atoms: C7_11  and  N1_12
REMARK       I    between atoms: N1_12  and  C8_14
REMARK    6  A    between atoms: C8_14  and  C9_16
REMARK    7  A    between atoms: C9_16  and  N2_17
REMARK    8  A    between atoms: C9_16  and  C10_23
REMARK    9  A    between atoms: N2_17  and  N3_19
REMARK   10  A    between atoms: N3_19  and  O5_21
REMARK   11  A    between atoms: C11_26  and  O8_27
ROOT
HETATM    1  C3  UNL     1      15.996  10.318   2.680  1.00  0.00     0.122 A
HETATM    2  C4  UNL     1      15.231  10.280   1.522  1.00  0.00     0.045 A
HETATM    3  C7  UNL     1      15.833  10.623   0.338  1.00  0.00     0.100 A
HETATM    4  C11 UNL     1      17.182  10.990   0.303  1.00  0.00     0.173 A
HETATM    5  N4  UNL     1      17.895  11.017   1.412  1.00  0.00    -0.297 N
HETATM    6  C12 UNL     1      19.305  11.400   1.367  1.00  0.00     0.161 C
HETATM    7  C13 UNL     1      17.333  10.692   2.573  1.00  0.00     0.266 A
HETATM    8  O9  UNL     1      18.072  10.731   3.621  1.00  0.00    -0.267 OA
ENDROOT
BRANCH   3   9
HETATM    9  N1  UNL     1      15.004  10.728  -0.796  1.00  0.00    -0.320 N
HETATM   10  C8  UNL     1      14.594   9.740  -1.709  1.00  0.00     0.257 C
HETATM   11  O4  UNL     1      14.986   8.567  -1.584  1.00  0.00    -0.270 OA
ATOM     12  H1  UNL     1      14.646  11.665  -0.983  1.00  0.00     0.169 HD
BRANCH  10  13
HETATM   13  C9  UNL     1      13.684  10.104  -2.822  1.00  0.00     0.293 C
BRANCH  13  14
HETATM   14  N2  UNL     1      12.388   9.511  -2.750  1.00  0.00    -0.293 N
ATOM     15  H2  UNL     1      12.138   9.052  -1.873  1.00  0.00     0.183 HD
BRANCH  14  16
HETATM   16  N3  UNL     1      11.430   9.500  -3.770  1.00  0.00    -0.213 N
ATOM     17  H3  UNL     1      11.066  10.383  -4.131  1.00  0.00     0.215 HD
BRANCH  16  18
HETATM   18  O5  UNL     1      11.010   8.404  -4.250  1.00  0.00    -0.275 OA
ATOM     19  H5  UNL     1      10.726   8.350  -5.155  1.00  0.00     0.246 HD
ENDBRANCH  16  18
ENDBRANCH  14  16
ENDBRANCH  13  14
BRANCH  13  20
HETATM   20  C10 UNL     1      14.323   9.692  -4.129  1.00  0.00     0.207 C
HETATM   21  O6  UNL     1      13.940   8.641  -4.695  1.00  0.00    -0.646 OA
HETATM   22  O7  UNL     1      15.316  10.456  -4.697  1.00  0.00    -0.646 OA
ENDBRANCH  13  20
ENDBRANCH  10  13
ENDBRANCH   3   9
BRANCH   2  23
HETATM   23  C5  UNL     1      13.793   9.986   1.682  1.00  0.00     0.053 C
HETATM   24  C6  UNL     1      13.389   8.533   1.681  1.00  0.00     0.077 C
BRANCH  23  25
HETATM   25  O3  UNL     1      13.063  10.801   2.501  1.00  0.00    -0.364 OA
ATOM     26  H3  UNL     1      13.182  10.708   3.439  1.00  0.00     0.217 HD
ENDBRANCH  23  25
ENDBRANCH   2  23
BRANCH   4  27
HETATM   27  O8  UNL     1      17.714  11.331  -0.956  1.00  0.00    -0.344 OA
ATOM     28  H8  UNL     1      17.427  12.155  -1.333  1.00  0.00     0.219 HD
ENDBRANCH   4  27
BRANCH   1  29
HETATM   29  C2  UNL     1      15.451   9.981   3.993  1.00  0.00     0.299 C
HETATM   30  O2  UNL     1      15.635   8.734   4.294  1.00  0.00    -0.259 OA
BRANCH  29  31
HETATM   31  O1  UNL     1      14.810  10.751   4.876  1.00  0.00    -0.322 OA
HETATM   32  C1  UNL     1      14.545  10.289   6.182  1.00  0.00     0.213 C
ENDBRANCH  29  31
ENDBRANCH   1  29
TORSDOF 11
ENDMDL