MODEL 1
REMARK VINA RESULT: -8.368275484      0.000      0.000
REMARK  9 active torsions:
REMARK  status: ('A' for Active; 'I' for Inactive)
REMARK    1  A    between atoms: O1_2  and  C2_3
REMARK    2  A    between atoms: C2_3  and  C3_5
REMARK    3  A    between atoms: C3_5  and  N1_6
REMARK    4  A    between atoms: C9_13  and  N3_14
REMARK    5  A    between atoms: N3_14  and  N4_16
REMARK    6  A    between atoms: C10_18  and  C11_19
REMARK    7  A    between atoms: N5_21  and  N6_23
REMARK    8  A    between atoms: N6_23  and  C13_25
REMARK    9  A    between atoms: C13_25  and  C14_29
ROOT
HETATM    1  N1  UNL     1      19.137  10.463   2.213  1.00  0.00    -0.326 N
HETATM    2  C4  UNL     1      20.256  10.385   2.958  1.00  0.00     0.011 A
HETATM    3  C5  UNL     1      21.637  10.708   2.576  1.00  0.00     0.068 C
HETATM    4  C6  UNL     1      19.868   9.927   4.200  1.00  0.00     0.051 A
HETATM    5  C7  UNL     1      18.484   9.726   4.203  1.00  0.00     0.092 A
HETATM    6  C8  UNL     1      17.714   9.257   5.320  1.00  0.00     0.103 C
HETATM    7  N2  UNL     1      17.071   8.880   6.216  1.00  0.00    -0.191 NA
HETATM    8  C9  UNL     1      18.071  10.067   2.958  1.00  0.00     0.144 A
ENDROOT
BRANCH   8   9
HETATM    9  N3  UNL     1      16.704  10.027   2.484  1.00  0.00    -0.284 N
ATOM     10  H3  UNL     1      16.365   9.196   2.001  1.00  0.00     0.188 HD
BRANCH   9  11
HETATM   11  N4  UNL     1      15.863  11.081   2.672  1.00  0.00    -0.308 N
HETATM   12  C10 UNL     1      14.818  11.123   3.374  1.00  0.00     0.133 C
ATOM     13  H4  UNL     1      16.109  11.942   2.185  1.00  0.00     0.186 HD
BRANCH  12  14
HETATM   14  C11 UNL     1      14.201  10.094   4.177  1.00  0.00     0.038 C
HETATM   15  C12 UNL     1      13.562   8.870   3.659  1.00  0.00     0.071 C
HETATM   16  N5  UNL     1      14.215  10.282   5.477  1.00  0.00    -0.302 N
ATOM     17  H5  UNL     1      14.642  11.116   5.882  1.00  0.00     0.186 HD
BRANCH  16  18
HETATM   18  N6  UNL     1      13.631   9.315   6.286  1.00  0.00    -0.283 N
ATOM     19  H6  UNL     1      12.770   8.860   5.985  1.00  0.00     0.188 HD
BRANCH  18  20
HETATM   20  C13 UNL     1      14.219   8.952   7.527  1.00  0.00     0.161 C
HETATM   21  N7  UNL     1      14.649   7.763   7.767  1.00  0.00    -0.381 N
ATOM     22  H72 UNL     1      14.562   7.060   7.033  1.00  0.00     0.157 HD
ATOM     23  H71 UNL     1      15.071   7.502   8.658  1.00  0.00     0.157 HD
BRANCH  20  24
HETATM   24  C14 UNL     1      14.344   9.955   8.576  1.00  0.00     0.183 A
HETATM   25  N8  UNL     1      15.242   9.955   9.578  1.00  0.00    -0.266 N
HETATM   26  N9  UNL     1      15.010  11.046  10.313  1.00  0.00    -0.226 N
ATOM     27  H8  UNL     1      15.964   9.255   9.745  1.00  0.00     0.190 HD
HETATM   28  N10 UNL     1      14.004  11.727   9.809  1.00  0.00    -0.226 N
ATOM     29  H9  UNL     1      15.537  11.313  11.145  1.00  0.00     0.210 HD
HETATM   30  N11 UNL     1      13.583  11.071   8.742  1.00  0.00    -0.266 N
ATOM     31  H10 UNL     1      13.621  12.599  10.173  1.00  0.00     0.210 HD
ATOM     32  H11 UNL     1      12.811  11.355   8.139  1.00  0.00     0.190 HD
ENDBRANCH  20  24
ENDBRANCH  18  20
ENDBRANCH  16  18
ENDBRANCH  12  14
ENDBRANCH   9  11
ENDBRANCH   8   9
BRANCH   1  33
HETATM   33  C3  UNL     1      19.025  10.881   0.851  1.00  0.00     0.241 C
BRANCH  33  34
HETATM   34  C2  UNL     1      18.309  12.135   0.650  1.00  0.00     0.276 C
HETATM   35  O2  UNL     1      18.710  13.228   1.096  1.00  0.00    -0.263 OA
BRANCH  34  36
HETATM   36  O1  UNL     1      17.130  12.115  -0.070  1.00  0.00    -0.325 OA
HETATM   37  C1  UNL     1      16.753  10.987  -0.822  1.00  0.00     0.213 C
ENDBRANCH  34  36
ENDBRANCH  33  34
ENDBRANCH   1  33
TORSDOF 9
ENDMDL