MODEL 2
REMARK VINA RESULT: -8.652026519      1.397      1.947
REMARK  11 active torsions:
REMARK  status: ('A' for Active; 'I' for Inactive)
REMARK    1  A    between atoms: O1_2  and  C2_3
REMARK    2  A    between atoms: C2_3  and  C3_5
REMARK    3  A    between atoms: C3_5  and  C4_7
REMARK    4  A    between atoms: C4_7  and  O4_8
REMARK    5  A    between atoms: C4_7  and  C13_31
REMARK    6  A    between atoms: O4_8  and  C5_9
REMARK    7  A    between atoms: C5_9  and  C6_11
REMARK    8  A    between atoms: C6_11  and  N1_13
REMARK    9  A    between atoms: N1_13  and  C8_15
REMARK   10  A    between atoms: C11_22  and  N4_23
REMARK   11  A    between atoms: N7_33  and  O6_35
ROOT
HETATM    1  C6  UNL     1      13.620   8.988   1.806  1.00  0.00     0.195 C
HETATM    2  C7  UNL     1      14.009   7.654   1.242  1.00  0.00     0.043 C
ENDROOT
BRANCH   1   3
HETATM    3  C5  UNL     1      14.180   9.089   3.189  1.00  0.00     0.283 C
HETATM    4  O5  UNL     1      13.604   8.577   4.190  1.00  0.00    -0.263 OA
BRANCH   3   5
HETATM    5  O4  UNL     1      15.371   9.759   3.428  1.00  0.00    -0.300 OA
BRANCH   5   6
HETATM    6  C4  UNL     1      16.626   9.158   3.382  1.00  0.00     0.259 C
BRANCH   6   7
HETATM    7  C3  UNL     1      17.642   9.998   2.692  1.00  0.00     0.258 C
HETATM    8  O3  UNL     1      18.821   9.601   2.533  1.00  0.00    -0.283 OA
BRANCH   7   9
HETATM    9  C2  UNL     1      17.292  11.309   2.177  1.00  0.00     0.332 C
HETATM   10  O2  UNL     1      17.189  12.300   2.939  1.00  0.00    -0.256 OA
BRANCH   9  11
HETATM   11  O1  UNL     1      17.061  11.502   0.828  1.00  0.00    -0.320 OA
HETATM   12  C1  UNL     1      18.116  11.913   0.006  1.00  0.00     0.213 C
ENDBRANCH   9  11
ENDBRANCH   7   9
ENDBRANCH   6   7
BRANCH   6  13
HETATM   13  C13 UNL     1      17.119   8.753   4.725  1.00  0.00     0.043 C
HETATM   14  C14 UNL     1      16.671   9.358   5.980  1.00  0.00     0.068 C
HETATM   15  N7  UNL     1      17.997   7.802   4.753  1.00  0.00    -0.275 N
ATOM     16  H7  UNL     1      18.310   7.378   3.880  1.00  0.00     0.193 HD
BRANCH  15  17
HETATM   17  O6  UNL     1      18.512   7.358   5.945  1.00  0.00    -0.290 OA
ATOM     18  H6  UNL     1      17.944   7.200   6.690  1.00  0.00     0.244 HD
ENDBRANCH  15  17
ENDBRANCH   6  13
ENDBRANCH   5   6
ENDBRANCH   3   5
ENDBRANCH   1   3
BRANCH   1  19
HETATM   19  N1  UNL     1      14.065  10.086   0.988  1.00  0.00    -0.212 N
ATOM     20  H1  UNL     1      14.329  10.962   1.438  1.00  0.00     0.178 HD
BRANCH  19  21
HETATM   21  C8  UNL     1      14.147   9.987  -0.432  1.00  0.00     0.681 A
HETATM   22  N2  UNL     1      13.175   9.687  -1.306  1.00  0.00    -0.187 N
HETATM   23  C9  UNL     1      13.649   9.691  -2.553  1.00  0.00     0.110 A
ATOM     24  H2  UNL     1      12.208   9.484  -1.052  1.00  0.00     0.184 HD
HETATM   25  C10 UNL     1      13.106   9.457  -3.811  1.00  0.00     0.140 A
HETATM   26  C12 UNL     1      14.982  10.009  -2.452  1.00  0.00     0.165 A
HETATM   27  N3  UNL     1      13.907   9.553  -4.864  1.00  0.00    -0.200 N
HETATM   28  C11 UNL     1      15.212   9.861  -4.797  1.00  0.00     0.677 A
ATOM     29  H3  UNL     1      13.504   9.381  -5.786  1.00  0.00     0.183 HD
HETATM   30  N5  UNL     1      15.747  10.088  -3.586  1.00  0.00    -0.174 N
ATOM     31  H5  UNL     1      16.736  10.323  -3.509  1.00  0.00     0.186 HD
HETATM   32  N6  UNL     1      15.258  10.184  -1.152  1.00  0.00    -0.174 N
ATOM     33  H6  UNL     1      16.172  10.428  -0.771  1.00  0.00     0.186 HD
BRANCH  28  34
HETATM   34  N4  UNL     1      15.959   9.942  -5.869  1.00  0.00    -0.234 N
ATOM     35  H42 UNL     1      15.645  10.489  -6.670  1.00  0.00     0.174 HD
ATOM     36  H41 UNL     1      16.861   9.470  -5.934  1.00  0.00     0.174 HD
ENDBRANCH  28  34
ENDBRANCH  19  21
ENDBRANCH   1  19
TORSDOF 11
ENDMDL