MODEL 3
REMARK VINA RESULT: -8.181092709      2.057      6.801
REMARK  11 active torsions:
REMARK  status: ('A' for Active; 'I' for Inactive)
REMARK    1  A    between atoms: C2_2  and  C3_3
REMARK    2  A    between atoms: C3_3  and  O1_4
REMARK    3  A    between atoms: O1_4  and  C4_5
REMARK    4  A    between atoms: C4_5  and  C5_7
REMARK    5  A    between atoms: C5_7  and  C6_14
REMARK    6  A    between atoms: N1_8  and  N2_10
REMARK    7  A    between atoms: N2_10  and  O3_12
REMARK    8  A    between atoms: C6_14  and  O5_16
REMARK    9  A    between atoms: O5_16  and  C7_17
REMARK   10  A    between atoms: C7_17  and  C8_18
REMARK   11  A    between atoms: C10_23  and  O7_24
ROOT
HETATM    1  O5  UNL     1      13.527   8.788   0.332  1.00  0.00    -0.285 OA
ENDROOT
BRANCH   1   2
HETATM    2  C6  UNL     1      13.650   8.361   1.631  1.00  0.00     0.322 C
HETATM    3  O4  UNL     1      13.185   7.212   1.880  1.00  0.00    -0.257 OA
BRANCH   2   4
HETATM    4  C5  UNL     1      14.269   9.140   2.694  1.00  0.00     0.201 C
HETATM    5  N1  UNL     1      13.517   9.890   3.403  1.00  0.00    -0.271 N
ATOM      6  H1  UNL     1      12.514   9.930   3.219  1.00  0.00     0.189 HD
BRANCH   4   7
HETATM    7  C4  UNL     1      15.689   9.084   2.958  1.00  0.00     0.317 C
HETATM    8  O2  UNL     1      16.078   8.449   3.994  1.00  0.00    -0.257 OA
BRANCH   7   9
HETATM    9  O1  UNL     1      16.659   9.659   2.184  1.00  0.00    -0.316 OA
BRANCH   9  10
HETATM   10  C3  UNL     1      16.980  11.051   2.242  1.00  0.00     0.178 C
BRANCH  10  11
HETATM   11  C2  UNL     1      18.400  11.264   1.743  1.00  0.00     0.022 C
HETATM   12  C1  UNL     1      18.454  12.495   0.853  1.00  0.00     0.007 C
ENDBRANCH  10  11
ENDBRANCH   9  10
ENDBRANCH   7   9
ENDBRANCH   4   7
BRANCH   5  13
HETATM   13  N2  UNL     1      14.072  10.651   4.428  1.00  0.00    -0.209 N
ATOM     14  H2  UNL     1      14.486  11.556   4.203  1.00  0.00     0.215 HD
BRANCH  13  15
HETATM   15  O3  UNL     1      14.081  10.228   5.721  1.00  0.00    -0.274 OA
ATOM     16  H3  UNL     1      14.565   9.459   5.997  1.00  0.00     0.246 HD
ENDBRANCH  13  15
ENDBRANCH   5  13
ENDBRANCH   2   4
ENDBRANCH   1   2
BRANCH   1  17
HETATM   17  C7  UNL     1      14.033   9.887  -0.299  1.00  0.00     0.166 C
BRANCH  17  18
HETATM   18  C8  UNL     1      14.378   9.869  -1.699  1.00  0.00     0.091 A
HETATM   19  C9  UNL     1      15.684  10.158  -2.121  1.00  0.00     0.262 A
HETATM   20  O6  UNL     1      16.538  10.375  -1.222  1.00  0.00    -0.267 OA
HETATM   21  N3  UNL     1      16.036  10.207  -3.407  1.00  0.00    -0.301 N
HETATM   22  C10 UNL     1      15.157   9.982  -4.400  1.00  0.00     0.173 A
ATOM     23  H3  UNL     1      17.004  10.422  -3.645  1.00  0.00     0.171 HD
HETATM   24  C11 UNL     1      13.859   9.694  -4.055  1.00  0.00     0.123 A
HETATM   25  N4  UNL     1      12.790   9.435  -4.839  1.00  0.00    -0.296 N
HETATM   26  C13 UNL     1      13.472   9.639  -2.703  1.00  0.00     0.129 A
HETATM   27  C12 UNL     1      11.767   9.225  -3.995  1.00  0.00     0.370 A
ATOM     28  H4  UNL     1      12.766   9.404  -5.858  1.00  0.00     0.171 HD
HETATM   29  O8  UNL     1      10.578   8.949  -4.365  1.00  0.00    -0.238 OA
HETATM   30  O9  UNL     1      12.198   9.350  -2.777  1.00  0.00    -0.258 OA
BRANCH  22  31
HETATM   31  O7  UNL     1      15.552  10.039  -5.745  1.00  0.00    -0.344 OA
ATOM     32  H7  UNL     1      15.868  10.848  -6.131  1.00  0.00     0.219 HD
ENDBRANCH  22  31
ENDBRANCH  17  18
ENDBRANCH   1  17
TORSDOF 11
ENDMDL