MODEL 1
REMARK VINA RESULT: -7.112834956      0.000      0.000
REMARK  12 active torsions:
REMARK  status: ('A' for Active; 'I' for Inactive)
REMARK    1  A    between atoms: C2_2  and  O1_3
REMARK    2  A    between atoms: O1_3  and  C3_4
REMARK       I    between atoms: C3_4  and  N1_6
REMARK    3  A    between atoms: N1_6  and  S1_8
REMARK    4  A    between atoms: S1_8  and  N2_11
REMARK    5  A    between atoms: C5_13  and  O5_14
REMARK    6  A    between atoms: N3_16  and  N4_17
REMARK    7  A    between atoms: N4_17  and  C6_18
REMARK    8  A    between atoms: C6_18  and  C7_19
REMARK    9  A    between atoms: C6_18  and  C10_22
REMARK   10  A    between atoms: C10_22  and  O6_23
REMARK   11  A    between atoms: C10_22  and  N5_25
REMARK   12  A    between atoms: C12_29  and  N6_30
ROOT
HETATM    1  N2  UNL     1      16.289  10.130   5.290  1.00  0.00    -0.059 N
HETATM    2  C4  UNL     1      15.929  11.247   4.701  1.00  0.00     0.188 A
HETATM    3  C5  UNL     1      16.964  11.624   3.874  1.00  0.00     0.209 A
HETATM    4  N3  UNL     1      17.979  10.710   3.964  1.00  0.00     0.007 N
HETATM    5  C12 UNL     1      17.492   9.801   4.868  1.00  0.00     0.727 A
ENDROOT
BRANCH   4   6
HETATM    6  N4  UNL     1      19.112  10.733   3.351  1.00  0.00    -0.306 NA
BRANCH   6   7
HETATM    7  C6  UNL     1      20.071  10.653   2.655  1.00  0.00     0.147 C
BRANCH   7   8
HETATM    8  C7  UNL     1      21.341   9.985   3.104  1.00  0.00     0.044 C
HETATM    9  C8  UNL     1      21.529  10.072   4.592  1.00  0.00     0.017 C
HETATM   10  C9  UNL     1      21.274   8.488   2.782  1.00  0.00     0.017 C
ENDBRANCH   7   8
BRANCH   7  11
HETATM   11  C10 UNL     1      20.134  11.186   1.243  1.00  0.00     0.381 C
BRANCH  11  12
HETATM   12  O6  UNL     1      21.444  11.475   0.855  1.00  0.00    -0.365 OA
ATOM     13  H6  UNL     1      21.567  12.401   0.686  1.00  0.00     0.212 HD
ENDBRANCH  11  12
BRANCH  11  14
HETATM   14  N5  UNL     1      19.295  12.379   1.091  1.00  0.00    -0.046 N
HETATM   15  C11 UNL     1      18.334  12.253   0.015  1.00  0.00     0.270 C
ATOM     16  H52 UNL     1      18.833  12.615   1.969  1.00  0.00     0.280 HD
ATOM     17  H51 UNL     1      19.866  13.215   0.976  1.00  0.00     0.280 HD
ENDBRANCH  11  14
ENDBRANCH   7  11
ENDBRANCH   6   7
ENDBRANCH   4   6
BRANCH   3  18
HETATM   18  O5  UNL     1      16.883  12.777   3.110  1.00  0.00    -0.343 OA
ATOM     19  H5  UNL     1      17.639  13.341   2.994  1.00  0.00     0.219 HD
ENDBRANCH   3  18
BRANCH   5  20
HETATM   20  N6  UNL     1      18.126   8.771   5.259  1.00  0.00    -0.231 N
ATOM     21  H62 UNL     1      17.945   8.283   6.136  1.00  0.00     0.174 HD
ATOM     22  H61 UNL     1      18.874   8.326   4.728  1.00  0.00     0.174 HD
ENDBRANCH   5  20
BRANCH   1  23
HETATM   23  S1  UNL     1      15.292   9.264   6.435  1.00  0.00     0.347 S
HETATM   24  O3  UNL     1      14.367   8.327   5.683  1.00  0.00    -0.181 OA
HETATM   25  O4  UNL     1      16.167   8.444   7.330  1.00  0.00    -0.181 OA
BRANCH  23  26
HETATM   26  N1  UNL     1      14.270  10.336   7.314  1.00  0.00    -0.212 N
HETATM   27  C3  UNL     1      13.541   9.958   8.479  1.00  0.00     0.375 C
HETATM   28  O2  UNL     1      13.608   8.801   8.928  1.00  0.00    -0.237 OA
ATOM     29  H1  UNL     1      14.182  11.297   6.983  1.00  0.00     0.185 HD
BRANCH  27  30
HETATM   30  O1  UNL     1      12.759  10.883   9.108  1.00  0.00    -0.304 OA
BRANCH  30  31
HETATM   31  C2  UNL     1      13.256  11.898   9.919  1.00  0.00     0.176 C
HETATM   32  C1  UNL     1      13.804  11.444  11.228  1.00  0.00     0.034 C
ENDBRANCH  30  31
ENDBRANCH  27  30
ENDBRANCH  23  26
ENDBRANCH   1  23
TORSDOF 12
ENDMDL