MODEL 3
REMARK VINA RESULT: -7.176139341      1.630      4.342
REMARK  6 active torsions:
REMARK  status: ('A' for Active; 'I' for Inactive)
REMARK    1  A    between atoms: C2_2  and  C3_3
REMARK    2  A    between atoms: C3_3  and  C4_4
REMARK    3  A    between atoms: C4_4  and  N1_5
REMARK    4  A    between atoms: C11_14  and  O1_15
REMARK    5  A    between atoms: O1_15  and  C12_16
REMARK    6  A    between atoms: C12_16  and  C13_17
ROOT
HETATM    1  N1  UNL     1       6.041  49.485  49.567  1.00  0.00    -0.392 N
ATOM      2  H1  UNL     1       5.260  49.293  50.194  1.00  0.00     0.159 HD
HETATM    3  C5  UNL     1       6.075  48.826  48.437  1.00  0.00     0.016 C
HETATM    4  C6  UNL     1       7.219  49.156  47.596  1.00  0.00     0.057 C
HETATM    5  C7  UNL     1       7.450  48.345  46.385  1.00  0.00     0.006 C
HETATM    6  C8  UNL     1       6.251  47.904  45.623  1.00  0.00     0.006 C
HETATM    7  C9  UNL     1       5.838  46.554  46.228  1.00  0.00     0.047 C
HETATM    8  C10 UNL     1       4.890  46.939  47.322  1.00  0.00    -0.003 A
HETATM    9  S1  UNL     1       3.385  46.153  47.586  1.00  0.00    -0.069 SA
HETATM   10  C11 UNL     1       2.849  47.062  48.923  1.00  0.00     0.111 A
HETATM   11  C14 UNL     1       3.862  47.957  49.126  1.00  0.00     0.058 A
HETATM   12  C15 UNL     1       4.919  47.898  48.303  1.00  0.00     0.002 A
ENDROOT
BRANCH   1  13
HETATM   13  C4  UNL     1       6.994  50.446  49.998  1.00  0.00     0.123 C
BRANCH  13  14
HETATM   14  C3  UNL     1       6.283  51.558  50.776  1.00  0.00     0.046 C
BRANCH  14  15
HETATM   15  C2  UNL     1       5.399  50.970  51.812  1.00  0.00    -0.035 C
HETATM   16  C1  UNL     1       5.064  51.681  52.867  1.00  0.00     0.007 C
ENDBRANCH  14  15
ENDBRANCH  13  14
ENDBRANCH   1  13
BRANCH  10  17
HETATM   17  O1  UNL     1       1.652  46.893  49.612  1.00  0.00    -0.334 OA
BRANCH  17  18
HETATM   18  C12 UNL     1       1.284  45.639  50.176  1.00  0.00     0.289 C
BRANCH  18  19
HETATM   19  C13 UNL     1       0.142  45.035  49.478  1.00  0.00     0.198 C
HETATM   20  O2  UNL     1      -0.775  44.476  50.107  1.00  0.00    -0.646 OA
HETATM   21  O3  UNL     1       0.077  45.082  48.100  1.00  0.00    -0.646 OA
ENDBRANCH  18  19
ENDBRANCH  17  18
ENDBRANCH  10  17
TORSDOF 6
ENDMDL