MODEL 4
REMARK VINA RESULT: -7.008353759      1.154      1.544
REMARK  6 active torsions:
REMARK  status: ('A' for Active; 'I' for Inactive)
REMARK    1  A    between atoms: C2_2  and  C3_3
REMARK    2  A    between atoms: C3_3  and  C4_5
REMARK    3  A    between atoms: C4_5  and  C8_17
REMARK    4  A    between atoms: C5_6  and  N1_7
REMARK       I    between atoms: N2_9  and  C6_11
REMARK       I    between atoms: C6_11  and  N3_13
REMARK    5  A    between atoms: N3_13  and  O3_15
REMARK    6  A    between atoms: C8_17  and  C9_18
ROOT
HETATM    1  C4  UNL     1       4.618  47.965  47.363  1.00  0.00     0.005 C
HETATM    2  C5  UNL     1       3.619  47.426  48.013  1.00  0.00     0.118 C
ENDROOT
BRANCH   1   3
HETATM    3  C3  UNL     1       5.282  47.221  46.330  1.00  0.00     0.156 C
HETATM    4  O1  UNL     1       4.630  46.987  45.242  1.00  0.00    -0.293 OA
BRANCH   3   5
HETATM    5  C2  UNL     1       6.643  46.669  46.335  1.00  0.00     0.079 C
HETATM    6  C1  UNL     1       7.546  47.823  45.828  1.00  0.00     0.013 C
ENDBRANCH   3   5
ENDBRANCH   1   3
BRANCH   1   7
HETATM    7  C8  UNL     1       5.039  49.310  47.753  1.00  0.00     0.048 C
BRANCH   7   8
HETATM    8  C9  UNL     1       4.909  49.678  49.186  1.00  0.00    -0.010 C
HETATM    9  C10 UNL     1       4.650  51.173  49.318  1.00  0.00     0.005 C
HETATM   10  C11 UNL     1       5.630  51.879  50.194  1.00  0.00     0.000 C
HETATM   11  C12 UNL     1       5.775  51.212  51.547  1.00  0.00     0.000 C
HETATM   12  C13 UNL     1       5.873  49.716  51.426  1.00  0.00     0.000 C
HETATM   13  C14 UNL     1       6.175  49.380  49.977  1.00  0.00     0.005 C
ENDBRANCH   7   8
ENDBRANCH   1   7
BRANCH   2  14
HETATM   14  N1  UNL     1       3.161  46.129  47.739  1.00  0.00    -0.307 N
HETATM   15  N2  UNL     1       2.164  45.542  48.229  1.00  0.00    -0.250 N
HETATM   16  C6  UNL     1       1.359  46.212  49.179  1.00  0.00     0.358 C
ATOM     17  H2  UNL     1       1.937  44.590  47.944  1.00  0.00     0.192 HD
HETATM   18  O2  UNL     1       1.065  47.438  49.069  1.00  0.00    -0.243 OA
HETATM   19  N3  UNL     1       0.849  45.497  50.310  1.00  0.00    -0.216 N
ATOM     20  H3  UNL     1       1.081  44.507  50.404  1.00  0.00     0.199 HD
ATOM     21  H1  UNL     1       3.703  45.597  47.058  1.00  0.00     0.186 HD
BRANCH  19  22
HETATM   22  O3  UNL     1       0.081  46.066  51.251  1.00  0.00    -0.281 OA
HETATM   23  C7  UNL     1      -0.629  45.084  51.929  1.00  0.00     0.237 C
ENDBRANCH  19  22
ENDBRANCH   2  14
TORSDOF 6
ENDMDL