MODEL 3
REMARK VINA RESULT: -6.359332996      2.605      7.795
REMARK  7 active torsions:
REMARK  status: ('A' for Active; 'I' for Inactive)
REMARK    1  A    between atoms: C2_2  and  C3_6
REMARK    2  A    between atoms: N3_11  and  C6_12
REMARK    3  A    between atoms: C6_12  and  C7_13
REMARK    4  A    between atoms: C7_13  and  C8_14
REMARK    5  A    between atoms: C8_14  and  C9_15
REMARK    6  A    between atoms: C9_15  and  C10_16
REMARK    7  A    between atoms: C10_16  and  N4_17
ROOT
HETATM    1  C6  UNL     1       1.494  45.549  50.874  1.00  0.00     0.130 C
ENDROOT
BRANCH   1   2
HETATM    2  N3  UNL     1       0.152  45.083  51.073  1.00  0.00    -0.340 N
HETATM    3  C3  UNL     1      -0.510  44.959  52.216  1.00  0.00     0.129 A
HETATM    4  N2  UNL     1      -1.746  44.441  51.880  1.00  0.00    -0.349 N
HETATM    5  C4  UNL     1      -1.838  44.255  50.568  1.00  0.00     0.107 A
ATOM      6  H2  UNL     1      -2.488  44.231  52.548  1.00  0.00     0.167 HD
HETATM    7  C5  UNL     1      -0.647  44.654  50.023  1.00  0.00     0.109 A
BRANCH   3   8
HETATM    8  C2  UNL     1      -0.112  45.278  53.574  1.00  0.00     0.043 C
HETATM    9  C1  UNL     1       0.497  44.097  54.337  1.00  0.00     0.071 C
HETATM   10  N1  UNL     1      -0.193  46.346  54.170  1.00  0.00    -0.400 N
ATOM     11  H12 UNL     1       0.086  46.570  55.126  1.00  0.00     0.156 HD
ATOM     12  H11 UNL     1      -0.599  47.132  53.662  1.00  0.00     0.156 HD
ENDBRANCH   3   8
ENDBRANCH   1   2
BRANCH   1  13
HETATM   13  C7  UNL     1       1.572  47.029  50.639  1.00  0.00     0.020 C
BRANCH  13  14
HETATM   14  C8  UNL     1       1.847  47.270  49.158  1.00  0.00     0.003 C
BRANCH  14  15
HETATM   15  C9  UNL     1       2.566  46.044  48.632  1.00  0.00     0.020 C
BRANCH  15  16
HETATM   16  C10 UNL     1       3.408  46.347  47.452  1.00  0.00     0.127 C
BRANCH  16  17
HETATM   17  N4  UNL     1       4.811  46.288  47.602  1.00  0.00    -0.374 N
HETATM   18  C11 UNL     1       5.411  47.019  48.638  1.00  0.00     0.063 C
HETATM   19  C12 UNL     1       5.324  48.484  48.367  1.00  0.00     0.044 C
HETATM   20  C13 UNL     1       6.681  49.058  48.226  1.00  0.00     0.005 C
HETATM   21  C14 UNL     1       7.113  49.355  46.831  1.00  0.00     0.001 C
HETATM   22  C15 UNL     1       6.513  48.447  45.790  1.00  0.00     0.005 C
HETATM   23  C16 UNL     1       6.706  46.978  46.152  1.00  0.00     0.044 C
HETATM   24  C17 UNL     1       5.425  46.257  46.335  1.00  0.00     0.063 C
ENDBRANCH  16  17
ENDBRANCH  15  16
ENDBRANCH  14  15
ENDBRANCH  13  14
ENDBRANCH   1  13
TORSDOF 7
ENDMDL