MODEL 5
REMARK VINA RESULT: -5.582815705      1.291      1.681
REMARK  6 active torsions:
REMARK  status: ('A' for Active; 'I' for Inactive)
REMARK    1  A    between atoms: C4_8  and  C5_9
REMARK    2  A    between atoms: C5_9  and  C6_10
REMARK    3  A    between atoms: C6_10  and  C7_11
REMARK    4  A    between atoms: C7_11  and  S1_12
REMARK    5  A    between atoms: S1_12  and  C8_13
REMARK    6  A    between atoms: C8_13  and  C9_14
ROOT
HETATM    1  C6  UNL     1       5.449  46.195  46.178  1.00  0.00     0.016 C
ENDROOT
BRANCH   1   2
HETATM    2  C5  UNL     1       4.005  46.122  46.660  1.00  0.00     0.060 C
BRANCH   2   3
HETATM    3  C4  UNL     1       3.940  46.122  48.141  1.00  0.00     0.032 A
HETATM    4  C2  UNL     1       2.828  46.074  48.926  1.00  0.00     0.029 A
HETATM    5  C1  UNL     1       1.412  46.008  48.523  1.00  0.00     0.070 C
HETATM    6  N1  UNL     1       3.248  46.095  50.212  1.00  0.00    -0.354 N
HETATM    7  C3  UNL     1       4.576  46.154  50.250  1.00  0.00     0.180 A
ATOM      8  H1  UNL     1       2.638  46.069  51.029  1.00  0.00     0.166 HD
HETATM    9  N2  UNL     1       4.988  46.171  48.969  1.00  0.00    -0.354 N
ATOM     10  H2  UNL     1       5.962  46.214  48.671  1.00  0.00     0.166 HD
ENDBRANCH   2   3
ENDBRANCH   1   2
BRANCH   1  11
HETATM   11  C7  UNL     1       5.754  47.646  45.892  1.00  0.00     0.074 C
BRANCH  11  12
HETATM   12  S1  UNL     1       7.232  48.118  46.807  1.00  0.00    -0.168 SA
BRANCH  12  13
HETATM   13  C8  UNL     1       6.903  49.062  48.274  1.00  0.00     0.089 C
BRANCH  13  14
HETATM   14  C9  UNL     1       6.028  50.265  48.050  1.00  0.00     0.066 C
HETATM   15  C10 UNL     1       6.468  51.423  48.945  1.00  0.00     0.089 C
HETATM   16  S2  UNL     1       5.089  52.472  49.424  1.00  0.00    -0.167 SA
HETATM   17  C11 UNL     1       3.931  51.615  50.520  1.00  0.00     0.084 C
HETATM   18  C12 UNL     1       4.192  50.120  50.333  1.00  0.00     0.084 C
HETATM   19  S3  UNL     1       4.337  49.845  48.547  1.00  0.00    -0.162 SA
ENDBRANCH  13  14
ENDBRANCH  12  13
ENDBRANCH  11  12
ENDBRANCH   1  11
TORSDOF 6
ENDMDL