MODEL 1
REMARK VINA RESULT: -6.720373841      0.000      0.000
REMARK  7 active torsions:
REMARK  status: ('A' for Active; 'I' for Inactive)
REMARK    1  A    between atoms: C3_5  and  S1_6
REMARK    2  A    between atoms: S1_6  and  C4_7
REMARK    3  A    between atoms: C4_7  and  C5_8
REMARK    4  A    between atoms: C5_8  and  C6_9
REMARK    5  A    between atoms: C6_9  and  C7_10
REMARK    6  A    between atoms: C7_10  and  N2_11
REMARK    7  A    between atoms: C10_17  and  C11_18
ROOT
HETATM    1  C1  UNL     1       1.671  45.266  47.188  1.00  0.00     0.089 C
HETATM    2  C2  UNL     1       2.541  46.073  48.107  1.00  0.00     0.078 A
HETATM    3  N1  UNL     1       1.992  46.628  49.188  1.00  0.00    -0.340 N
ATOM      4  H1  UNL     1       1.001  46.468  49.369  1.00  0.00     0.167 HD
HETATM    5  C3  UNL     1       2.711  47.413  50.078  1.00  0.00     0.079 A
HETATM    6  C8  UNL     1       4.035  47.603  49.812  1.00  0.00    -0.005 A
HETATM    7  C9  UNL     1       4.897  48.395  50.758  1.00  0.00     0.053 C
HETATM    8  C10 UNL     1       4.611  47.028  48.687  1.00  0.00     0.023 A
HETATM    9  N3  UNL     1       3.829  46.288  47.888  1.00  0.00    -0.349 N
ATOM     10  H3  UNL     1       4.252  45.865  47.061  1.00  0.00     0.167 HD
ENDROOT
BRANCH   5  11
HETATM   11  S1  UNL     1       1.850  48.115  51.445  1.00  0.00    -0.112 SA
BRANCH  11  12
HETATM   12  C4  UNL     1       0.176  47.508  51.541  1.00  0.00     0.081 C
BRANCH  12  13
HETATM   13  C5  UNL     1       0.013  46.229  52.347  1.00  0.00     0.012 C
BRANCH  13  14
HETATM   14  C6  UNL     1      -0.459  45.148  51.381  1.00  0.00     0.028 C
BRANCH  14  15
HETATM   15  C7  UNL     1      -1.979  44.955  51.481  1.00  0.00     0.229 C
BRANCH  15  16
HETATM   16  N2  UNL     1      -2.336  43.865  50.580  1.00  0.00    -0.079 N
ATOM     17  H23 UNL     1      -3.174  44.058  50.032  1.00  0.00     0.274 HD
ATOM     18  H22 UNL     1      -1.688  43.763  49.799  1.00  0.00     0.274 HD
ATOM     19  H21 UNL     1      -2.415  43.019  51.146  1.00  0.00     0.274 HD
ENDBRANCH  15  16
ENDBRANCH  14  15
ENDBRANCH  13  14
ENDBRANCH  12  13
ENDBRANCH  11  12
ENDBRANCH   5  11
BRANCH   8  20
HETATM   20  C11 UNL     1       6.024  47.242  48.291  1.00  0.00     0.036 C
HETATM   21  C12 UNL     1       6.254  46.615  46.928  1.00  0.00     0.011 C
HETATM   22  C13 UNL     1       7.258  47.370  46.089  1.00  0.00     0.001 C
HETATM   23  C14 UNL     1       6.780  48.771  45.758  1.00  0.00     0.000 C
HETATM   24  C15 UNL     1       5.866  49.294  46.852  1.00  0.00     0.001 C
HETATM   25  C16 UNL     1       6.314  48.744  48.200  1.00  0.00     0.011 C
ENDBRANCH   8  20
TORSDOF 7
ENDMDL