MODEL 2
REMARK VINA RESULT: -5.643020327      2.382      4.284
REMARK  6 active torsions:
REMARK  status: ('A' for Active; 'I' for Inactive)
REMARK    1  A    between atoms: C2_2  and  O1_3
REMARK    2  A    between atoms: O1_3  and  C3_4
REMARK    3  A    between atoms: C3_4  and  C4_5
REMARK    4  A    between atoms: C4_5  and  C5_6
REMARK    5  A    between atoms: C5_6  and  C6_7
REMARK    6  A    between atoms: C6_7  and  O2_8
ROOT
HETATM    1  C3  UNL     1       4.324  48.201  49.381  1.00  0.00     0.078 C
HETATM    2  C7  UNL     1       3.485  49.313  48.854  1.00  0.00     0.089 C
HETATM    3  C8  UNL     1       2.735  50.137  49.832  1.00  0.00     0.025 C
HETATM    4  S1  UNL     1       4.400  50.551  47.864  1.00  0.00    -0.090 SA
HETATM    5  S2  UNL     1       6.459  50.179  47.800  1.00  0.00    -0.092 SA
HETATM    6  C9  UNL     1       6.623  48.429  48.236  1.00  0.00     0.065 C
HETATM    7  C10 UNL     1       7.467  47.782  47.163  1.00  0.00     0.016 C
HETATM    8  C11 UNL     1       6.755  47.261  45.979  1.00  0.00     0.001 C
HETATM    9  C12 UNL     1       5.557  46.384  46.371  1.00  0.00     0.001 C
HETATM   10  C13 UNL     1       4.653  47.354  47.103  1.00  0.00     0.009 C
HETATM   11  C14 UNL     1       5.379  47.703  48.414  1.00  0.00     0.036 C
ENDROOT
BRANCH   1  12
HETATM   12  O1  UNL     1       3.486  47.051  49.290  1.00  0.00    -0.379 OA
BRANCH  12  13
HETATM   13  C2  UNL     1       3.332  46.241  50.312  1.00  0.00     0.164 C
HETATM   14  C1  UNL     1       1.854  45.759  50.252  1.00  0.00     0.033 C
ENDBRANCH  12  13
ENDBRANCH   1  12
BRANCH   1  15
HETATM   15  C4  UNL     1       4.715  48.271  50.796  1.00  0.00     0.042 C
BRANCH  15  16
HETATM   16  C5  UNL     1       5.948  48.908  51.249  1.00  0.00     0.029 C
BRANCH  16  17
HETATM   17  C6  UNL     1       5.542  50.276  51.852  1.00  0.00     0.164 C
BRANCH  17  18
HETATM   18  O2  UNL     1       6.178  51.291  51.140  1.00  0.00    -0.401 OA
ATOM     19  H2  UNL     1       7.117  51.157  51.183  1.00  0.00     0.209 HD
ENDBRANCH  17  18
ENDBRANCH  16  17
ENDBRANCH  15  16
ENDBRANCH   1  15
TORSDOF 6
ENDMDL