MODEL 3
REMARK VINA RESULT: -6.313630072      1.172      1.450
REMARK  9 active torsions:
REMARK  status: ('A' for Active; 'I' for Inactive)
REMARK    1  A    between atoms: C2_2  and  C3_3
REMARK    2  A    between atoms: C3_3  and  C4_4
REMARK    3  A    between atoms: C4_4  and  C5_5
REMARK    4  A    between atoms: C5_5  and  C6_6
REMARK    5  A    between atoms: C6_6  and  C7_7
REMARK    6  A    between atoms: C7_7  and  N1_8
REMARK       I    between atoms: N1_8  and  C8_10
REMARK    7  A    between atoms: C8_10  and  S1_12
REMARK    8  A    between atoms: S1_12  and  S2_13
REMARK    9  A    between atoms: S2_13  and  C9_14
REMARK       I    between atoms: C9_14  and  N2_16
ROOT
HETATM    1  N1  UNL     1       5.691  46.526  47.530  1.00  0.00    -0.351 N
ATOM      2  H1  UNL     1       6.245  46.811  48.338  1.00  0.00     0.163 HD
HETATM    3  C8  UNL     1       4.342  46.150  47.732  1.00  0.00     0.290 C
HETATM    4  O1  UNL     1       3.649  45.799  46.760  1.00  0.00    -0.260 OA
ENDROOT
BRANCH   3   5
HETATM    5  S1  UNL     1       3.668  46.187  49.373  1.00  0.00     0.013 SA
BRANCH   5   6
HETATM    6  S2  UNL     1       1.686  46.923  49.411  1.00  0.00     0.013 SA
BRANCH   6   7
HETATM    7  C9  UNL     1       0.487  45.609  49.185  1.00  0.00     0.293 C
HETATM    8  O2  UNL     1       0.476  45.084  48.029  1.00  0.00    -0.259 OA
HETATM    9  N2  UNL     1      -0.382  45.188  50.216  1.00  0.00    -0.342 N
HETATM   10  C10 UNL     1      -0.608  45.571  51.587  1.00  0.00     0.128 C
HETATM   11  C12 UNL     1      -1.420  44.195  50.343  1.00  0.00     0.128 C
HETATM   12  C11 UNL     1      -1.924  44.792  51.628  1.00  0.00     0.040 C
ENDBRANCH   6   7
ENDBRANCH   5   6
ENDBRANCH   3   5
BRANCH   1  13
HETATM   13  C7  UNL     1       6.312  46.524  46.235  1.00  0.00     0.123 C
BRANCH  13  14
HETATM   14  C6  UNL     1       7.288  47.662  46.021  1.00  0.00     0.020 C
BRANCH  14  15
HETATM   15  C5  UNL     1       7.354  48.407  47.358  1.00  0.00     0.002 C
BRANCH  15  16
HETATM   16  C4  UNL     1       6.985  49.862  47.178  1.00  0.00     0.000 C
BRANCH  16  17
HETATM   17  C3  UNL     1       6.597  50.409  48.520  1.00  0.00    -0.000 C
BRANCH  17  18
HETATM   18  C2  UNL     1       7.131  49.578  49.658  1.00  0.00    -0.005 C
HETATM   19  C1  UNL     1       6.129  49.346  50.744  1.00  0.00     0.005 C
ENDBRANCH  17  18
ENDBRANCH  16  17
ENDBRANCH  15  16
ENDBRANCH  14  15
ENDBRANCH  13  14
ENDBRANCH   1  13
TORSDOF 9
ENDMDL