MODEL 2
REMARK VINA RESULT: -6.997380079      1.097      1.423
REMARK  6 active torsions:
REMARK  status: ('A' for Active; 'I' for Inactive)
REMARK    1  A    between atoms: C2_2  and  C3_3
REMARK    2  A    between atoms: C3_3  and  C4_4
REMARK    3  A    between atoms: C4_4  and  C5_5
REMARK    4  A    between atoms: C5_5  and  S1_6
REMARK    5  A    between atoms: S1_6  and  C6_7
REMARK    6  A    between atoms: N3_14  and  C8_15
ROOT
HETATM    1  C6  UNL     1       6.605  48.327  47.052  1.00  0.00     0.165 A
HETATM    2  N1  UNL     1       7.566  47.654  46.400  1.00  0.00    -0.276 N
ATOM      3  H1  UNL     1       8.523  47.969  46.240  1.00  0.00     0.189 HD
HETATM    4  N2  UNL     1       7.051  46.523  46.009  1.00  0.00    -0.249 N
ATOM      5  H2  UNL     1       7.540  45.796  45.486  1.00  0.00     0.192 HD
HETATM    6  C7  UNL     1       5.758  46.473  46.411  1.00  0.00     0.343 A
HETATM    7  O1  UNL     1       5.075  45.446  46.127  1.00  0.00    -0.245 OA
HETATM    8  N3  UNL     1       5.472  47.604  47.068  1.00  0.00    -0.273 N
ENDROOT
BRANCH   8   9
HETATM    9  C8  UNL     1       4.191  47.877  47.629  1.00  0.00     0.097 C
HETATM   10  C9  UNL     1       4.115  49.316  48.063  1.00  0.00     0.026 C
HETATM   11  C10 UNL     1       2.934  49.563  48.962  1.00  0.00     0.002 C
HETATM   12  C11 UNL     1       3.053  49.080  50.357  1.00  0.00     0.000 C
HETATM   13  C12 UNL     1       4.319  48.394  50.725  1.00  0.00     0.000 C
HETATM   14  C13 UNL     1       4.632  47.179  49.898  1.00  0.00     0.002 C
HETATM   15  C14 UNL     1       3.718  47.019  48.716  1.00  0.00     0.026 C
ENDBRANCH   8   9
BRANCH   1  16
HETATM   16  S1  UNL     1       6.813  49.919  47.781  1.00  0.00    -0.092 SA
BRANCH  16  17
HETATM   17  C5  UNL     1       7.343  49.777  49.507  1.00  0.00     0.082 C
BRANCH  17  18
HETATM   18  C4  UNL     1       6.866  50.953  50.334  1.00  0.00     0.010 C
BRANCH  18  19
HETATM   19  C3  UNL     1       6.310  52.006  49.400  1.00  0.00     0.000 C
BRANCH  19  20
HETATM   20  C2  UNL     1       4.976  52.510  49.906  1.00  0.00    -0.005 C
HETATM   21  C1  UNL     1       4.380  53.547  49.006  1.00  0.00     0.005 C
ENDBRANCH  19  20
ENDBRANCH  18  19
ENDBRANCH  17  18
ENDBRANCH  16  17
ENDBRANCH   1  16
TORSDOF 6
ENDMDL