MODEL 4
REMARK VINA RESULT: -7.529132835      1.157      1.303
REMARK  6 active torsions:
REMARK  status: ('A' for Active; 'I' for Inactive)
REMARK    1  A    between atoms: C2_2  and  O1_3
REMARK    2  A    between atoms: O1_3  and  C3_4
REMARK    3  A    between atoms: C3_4  and  C4_5
REMARK    4  A    between atoms: C4_5  and  C5_6
REMARK    5  A    between atoms: C5_6  and  C6_7
REMARK    6  A    between atoms: C12_16  and  C13_17
ROOT
HETATM    1  C1  UNL     1       3.840  46.635  46.986  1.00  0.00     0.094 A
HETATM    2  C2  UNL     1       5.213  46.479  46.935  1.00  0.00     0.165 A
HETATM    3  N1  UNL     1       5.571  45.999  48.129  1.00  0.00    -0.239 N
ATOM      4  H1  UNL     1       6.524  45.774  48.415  1.00  0.00     0.197 HD
HETATM    5  O2  UNL     1       4.523  45.868  48.860  1.00  0.00    -0.238 OA
HETATM    6  C12 UNL     1       3.448  46.229  48.240  1.00  0.00     0.111 A
ENDROOT
BRANCH   2   7
HETATM    7  O1  UNL     1       6.023  46.774  45.837  1.00  0.00    -0.334 OA
BRANCH   7   8
HETATM    8  C3  UNL     1       7.056  47.725  45.828  1.00  0.00     0.177 C
BRANCH   8   9
HETATM    9  C4  UNL     1       6.680  49.063  46.391  1.00  0.00     0.027 C
BRANCH   9  10
HETATM   10  C5  UNL     1       7.234  49.301  47.765  1.00  0.00     0.007 C
BRANCH  10  11
HETATM   11  C6  UNL     1       6.374  50.215  48.613  1.00  0.00    -0.014 C
HETATM   12  C7  UNL     1       5.098  49.529  48.971  1.00  0.00     0.004 C
HETATM   13  C8  UNL     1       4.983  49.035  50.367  1.00  0.00     0.000 C
HETATM   14  C9  UNL     1       5.562  49.927  51.419  1.00  0.00     0.000 C
HETATM   15  C10 UNL     1       6.171  51.185  50.838  1.00  0.00     0.000 C
HETATM   16  C11 UNL     1       7.174  50.682  49.801  1.00  0.00     0.004 C
ENDBRANCH  10  11
ENDBRANCH   9  10
ENDBRANCH   8   9
ENDBRANCH   7   8
ENDBRANCH   2   7
BRANCH   6  17
HETATM   17  C13 UNL     1       2.032  46.247  48.688  1.00  0.00     0.244 C
HETATM   18  C14 UNL     1       1.216  45.172  48.010  1.00  0.00     0.041 C
HETATM   19  C15 UNL     1       0.009  45.087  48.932  1.00  0.00     0.030 C
HETATM   20  C16 UNL     1       0.637  45.290  50.284  1.00  0.00     0.233 C
HETATM   21  N2  UNL     1       1.901  45.933  50.094  1.00  0.00    -0.065 N
ATOM     22  H22 UNL     1       2.682  45.382  50.450  1.00  0.00     0.278 HD
ATOM     23  H21 UNL     1       2.025  46.748  50.695  1.00  0.00     0.278 HD
ENDBRANCH   6  17
TORSDOF 6
ENDMDL