MODEL 3
REMARK VINA RESULT: -7.476511177      1.380      1.588
REMARK  5 active torsions:
REMARK  status: ('A' for Active; 'I' for Inactive)
REMARK    1  A    between atoms: N1_1  and  C1_4
REMARK    2  A    between atoms: C2_7  and  O1_8
REMARK    3  A    between atoms: C3_10  and  C4_11
REMARK    4  A    between atoms: C4_11  and  C5_13
REMARK    5  A    between atoms: C10_20  and  O3_21
ROOT
HETATM    1  C4  UNL     1       3.348   4.206  70.147  1.00  0.00     0.177 C
HETATM    2  O2  UNL     1       3.396   5.263  70.810  1.00  0.00    -0.291 OA
ENDROOT
BRANCH   1   3
HETATM    3  C3  UNL     1       2.404   4.155  69.020  1.00  0.00     0.105 A
HETATM    4  C2  UNL     1       1.043   4.131  69.063  1.00  0.00     0.163 A
HETATM    5  N2  UNL     1       0.396   4.086  67.917  1.00  0.00    -0.316 N
HETATM    6  C1  UNL     1       1.099   4.068  66.791  1.00  0.00     0.145 A
ATOM      7  H2  UNL     1      -0.624   4.066  67.895  1.00  0.00     0.170 HD
HETATM    8  S1  UNL     1       2.708   4.113  67.341  1.00  0.00    -0.046 SA
BRANCH   4   9
HETATM    9  O1  UNL     1       0.358   4.155  70.321  1.00  0.00    -0.345 OA
ATOM     10  H1  UNL     1       0.041   4.963  70.707  1.00  0.00     0.219 HD
ENDBRANCH   4   9
BRANCH   6  11
HETATM   11  N1  UNL     1       0.665   4.025  65.553  1.00  0.00    -0.380 N
ATOM     12  H12 UNL     1      -0.101   4.553  65.134  1.00  0.00     0.158 HD
ATOM     13  H11 UNL     1       1.007   3.460  64.776  1.00  0.00     0.158 HD
ENDBRANCH   6  11
ENDBRANCH   1   3
BRANCH   1  14
HETATM   14  C5  UNL     1       4.208   3.099  70.515  1.00  0.00     0.096 C
HETATM   15  C6  UNL     1       3.999   2.567  71.904  1.00  0.00     0.015 C
HETATM   16  C7  UNL     1       5.034   1.504  72.186  1.00  0.00     0.007 C
HETATM   17  C8  UNL     1       5.830   1.145  70.958  1.00  0.00     0.082 C
HETATM   18  C9  UNL     1       6.547   2.313  70.367  1.00  0.00     0.269 C
HETATM   19  F1  UNL     1       7.716   2.600  71.054  1.00  0.00    -0.203 F
HETATM   20  F2  UNL     1       6.941   2.000  69.066  1.00  0.00    -0.203 F
HETATM   21  C10 UNL     1       5.654   3.516  70.384  1.00  0.00     0.202 C
BRANCH  21  22
HETATM   22  O3  UNL     1       5.878   4.214  69.189  1.00  0.00    -0.389 OA
ATOM     23  H3  UNL     1       5.970   5.147  69.345  1.00  0.00     0.210 HD
ENDBRANCH  21  22
ENDBRANCH   1  14
TORSDOF 5
ENDMDL