MODEL 5
REMARK VINA RESULT: -6.454552866      1.875      2.150
REMARK  3 active torsions:
REMARK  status: ('A' for Active; 'I' for Inactive)
REMARK    1  A    between atoms: C3_5  and  N2_6
REMARK    2  A    between atoms: N2_6  and  N3_8
REMARK    3  A    between atoms: C5_10  and  O1_11
ROOT
HETATM    1  C1  UNL     1       0.756   4.675  69.245  1.00  0.00     0.070 C
HETATM    2  C2  UNL     1       1.861   3.842  68.620  1.00  0.00     0.031 A
HETATM    3  N1  UNL     1       2.831   3.228  69.288  1.00  0.00    -0.341 N
ATOM      4  H1  UNL     1       2.941   3.262  70.301  1.00  0.00     0.167 HD
HETATM    5  C3  UNL     1       3.672   2.538  68.437  1.00  0.00     0.162 A
HETATM    6  C7  UNL     1       3.168   2.756  67.186  1.00  0.00     0.184 A
HETATM    7  F1  UNL     1       3.587   2.273  66.003  1.00  0.00    -0.200 F
HETATM    8  C8  UNL     1       2.034   3.572  67.290  1.00  0.00     0.109 A
HETATM    9  C9  UNL     1       1.227   4.041  66.193  1.00  0.00     0.104 C
HETATM   10  N5  UNL     1       0.588   4.431  65.288  1.00  0.00    -0.191 NA
ENDROOT
BRANCH   5  11
HETATM   11  N2  UNL     1       4.753   1.765  68.923  1.00  0.00    -0.274 N
ATOM     12  H2  UNL     1       4.613   0.758  68.835  1.00  0.00     0.189 HD
BRANCH  11  13
HETATM   13  N3  UNL     1       5.939   2.111  69.484  1.00  0.00    -0.236 N
HETATM   14  C4  UNL     1       6.358   3.097  70.238  1.00  0.00     0.175 A
HETATM   15  C5  UNL     1       7.737   3.074  70.460  1.00  0.00     0.160 A
HETATM   16  N4  UNL     1       8.142   1.991  69.785  1.00  0.00    -0.311 N
HETATM   17  C6  UNL     1       7.101   1.398  69.197  1.00  0.00     0.199 A
ATOM     18  H4  UNL     1       9.107   1.665  69.730  1.00  0.00     0.170 HD
HETATM   19  S1  UNL     1       7.202   0.066  68.289  1.00  0.00    -0.039 SA
BRANCH  15  20
HETATM   20  O1  UNL     1       8.519   3.949  71.195  1.00  0.00    -0.345 OA
ATOM     21  H1  UNL     1       9.416   4.222  71.045  1.00  0.00     0.219 HD
ENDBRANCH  15  20
ENDBRANCH  11  13
ENDBRANCH   5  11
TORSDOF 3
ENDMDL