MODEL 4
REMARK VINA RESULT: -6.193890943      2.784      4.499
REMARK  4 active torsions:
REMARK  status: ('A' for Active; 'I' for Inactive)
REMARK    1  A    between atoms: N1_2  and  N2_4
REMARK    2  A    between atoms: C4_7  and  O1_8
REMARK    3  A    between atoms: C5_10  and  C6_11
REMARK    4  A    between atoms: C7_13  and  N3_14
ROOT
HETATM    1  N2  UNL     1       4.433   0.683  68.810  1.00  0.00    -0.227 N
HETATM    2  C2  UNL     1       3.460   1.434  68.272  1.00  0.00     0.138 A
HETATM    3  C3  UNL     1       3.381   2.807  68.492  1.00  0.00     0.052 A
HETATM    4  C4  UNL     1       4.304   3.447  69.264  1.00  0.00     0.092 A
HETATM    5  C5  UNL     1       5.324   2.684  69.836  1.00  0.00     0.050 A
HETATM    6  C7  UNL     1       5.360   1.304  69.590  1.00  0.00     0.134 A
HETATM    7  C8  UNL     1       2.221   3.495  67.924  1.00  0.00    -0.006 C
HETATM    8  C9  UNL     1       1.501   4.253  68.671  1.00  0.00     0.097 C
HETATM    9  C10 UNL     1       0.303   5.020  68.168  1.00  0.00     0.082 C
HETATM   10  F2  UNL     1       1.643   4.330  70.031  1.00  0.00    -0.211 F
HETATM   11  C11 UNL     1       1.821   3.186  66.517  1.00  0.00     0.062 C
HETATM   12  C12 UNL     1       1.985   1.693  66.253  1.00  0.00     0.126 C
HETATM   13  N4  UNL     1       2.456   0.939  67.388  1.00  0.00    -0.374 N
ATOM     14  H4  UNL     1       2.058   0.016  67.565  1.00  0.00     0.161 HD
ENDROOT
BRANCH   1  15
HETATM   15  N1  UNL     1       4.438  -0.673  68.538  1.00  0.00    -0.331 N
HETATM   16  C1  UNL     1       5.139  -1.334  67.469  1.00  0.00     0.168 C
ATOM     17  H1  UNL     1       3.888  -1.266  69.159  1.00  0.00     0.180 HD
ENDBRANCH   1  15
BRANCH   6  18
HETATM   18  N3  UNL     1       6.265   0.673  70.105  1.00  0.00    -0.383 N
ATOM     19  H32 UNL     1       6.023  -0.220  70.534  1.00  0.00     0.157 HD
ATOM     20  H31 UNL     1       7.219   1.033  70.102  1.00  0.00     0.157 HD
ENDBRANCH   6  18
BRANCH   5  21
HETATM   21  C6  UNL     1       6.315   3.367  70.671  1.00  0.00     0.267 C
HETATM   22  F1  UNL     1       7.473   3.590  69.965  1.00  0.00    -0.250 F
ENDBRANCH   5  21
BRANCH   4  23
HETATM   23  O1  UNL     1       4.232   4.777  69.446  1.00  0.00    -0.359 OA
ATOM     24  H1  UNL     1       4.313   5.368  68.707  1.00  0.00     0.217 HD
ENDBRANCH   4  23
TORSDOF 4
ENDMDL