MODEL 1
REMARK VINA RESULT: -6.637849520      0.000      0.000
REMARK  4 active torsions:
REMARK  status: ('A' for Active; 'I' for Inactive)
REMARK    1  A    between atoms: C4_5  and  C5_6
REMARK    2  A    between atoms: C5_6  and  S1_7
REMARK    3  A    between atoms: S1_7  and  C6_8
REMARK    4  A    between atoms: C7_15  and  N4_16
ROOT
HETATM    1  C1  UNL     1       6.000   0.377  67.383  1.00  0.00     0.053 C
HETATM    2  C2  UNL     1       5.788   1.701  68.028  1.00  0.00     0.001 C
HETATM    3  C3  UNL     1       4.874   2.556  67.440  1.00  0.00     0.147 C
HETATM    4  F1  UNL     1       4.602   2.284  66.134  1.00  0.00    -0.203 F
HETATM    5  C4  UNL     1       4.208   3.638  67.996  1.00  0.00     0.060 C
HETATM    6  N3  UNL     1       4.350   4.092  69.232  1.00  0.00    -0.343 N
ATOM      7  H3  UNL     1       3.596   4.697  69.558  1.00  0.00     0.167 HD
HETATM    8  C7  UNL     1       5.345   3.878  70.134  1.00  0.00     0.106 C
HETATM    9  C8  UNL     1       6.405   2.995  70.092  1.00  0.00     0.004 C
HETATM   10  C9  UNL     1       7.479   3.174  71.103  1.00  0.00     0.054 C
HETATM   11  C10 UNL     1       6.538   1.957  69.175  1.00  0.00     0.052 C
HETATM   12 CL1  UNL     1       7.824   0.834  69.529  1.00  0.00    -0.083 Cl
ENDROOT
BRANCH   5  13
HETATM   13  C5  UNL     1       3.273   4.287  67.054  1.00  0.00     0.142 C
BRANCH  13  14
HETATM   14  S1  UNL     1       1.601   3.670  67.169  1.00  0.00    -0.092 SA
BRANCH  14  15
HETATM   15  C6  UNL     1       0.673   4.696  68.277  1.00  0.00     0.148 C
HETATM   16  N1  UNL     1      -0.372   5.290  67.862  1.00  0.00    -0.382 N
ATOM     17  H12 UNL     1      -0.692   5.188  66.898  1.00  0.00     0.157 HD
ATOM     18  H11 UNL     1      -0.906   5.881  68.499  1.00  0.00     0.157 HD
HETATM   19  N2  UNL     1       1.115   4.837  69.606  1.00  0.00    -0.075 NA
ENDBRANCH  14  15
ENDBRANCH  13  14
ENDBRANCH   5  13
BRANCH   8  20
HETATM   20  N4  UNL     1       5.298   4.610  71.198  1.00  0.00    -0.385 N
ATOM     21  H42 UNL     1       5.180   4.087  72.066  1.00  0.00     0.157 HD
ATOM     22  H41 UNL     1       5.385   5.615  71.044  1.00  0.00     0.157 HD
ENDBRANCH   8  20
TORSDOF 4
ENDMDL