MODEL 3
REMARK VINA RESULT: -7.419847041      1.202      1.241
REMARK  4 active torsions:
REMARK  status: ('A' for Active; 'I' for Inactive)
REMARK    1  A    between atoms: C2_2  and  C3_3
REMARK    2  A    between atoms: C3_3  and  N1_4
REMARK    3  A    between atoms: C4_5  and  N2_6
REMARK    4  A    between atoms: C5_11  and  N4_12
ROOT
HETATM    1  N1  UNL     1       6.084   1.294  69.845  1.00  0.00    -0.158 N
HETATM    2  C4  UNL     1       6.985   2.010  70.581  1.00  0.00     0.684 A
HETATM    3  N3  UNL     1       6.778   3.188  71.139  1.00  0.00    -0.176 N
ATOM      4  H3  UNL     1       7.527   3.632  71.670  1.00  0.00     0.186 HD
HETATM    5  C5  UNL     1       5.603   3.805  71.018  1.00  0.00     0.129 A
HETATM    6  C6  UNL     1       4.622   3.163  70.291  1.00  0.00     0.066 A
HETATM    7  C7  UNL     1       3.380   3.753  70.126  1.00  0.00     0.102 A
HETATM    8  N5  UNL     1       3.156   5.024  70.729  1.00  0.00    -0.098 NA
HETATM    9  C8  UNL     1       2.405   3.108  69.396  1.00  0.00     0.150 A
HETATM   10  F1  UNL     1       1.188   3.680  69.231  1.00  0.00    -0.203 F
HETATM   11  C9  UNL     1       2.647   1.902  68.835  1.00  0.00     0.019 A
HETATM   12  C10 UNL     1       1.637   1.144  68.030  1.00  0.00     0.055 C
HETATM   13  C11 UNL     1       3.902   1.296  68.996  1.00  0.00     0.154 A
HETATM   14  F2  UNL     1       4.125   0.104  68.429  1.00  0.00    -0.203 F
HETATM   15  C12 UNL     1       4.868   1.916  69.712  1.00  0.00     0.111 A
ENDROOT
BRANCH   1  16
HETATM   16  C3  UNL     1       6.451   0.049  69.309  1.00  0.00     0.088 C
BRANCH  16  17
HETATM   17  C2  UNL     1       7.174   0.101  67.965  1.00  0.00     0.041 C
HETATM   18  C1  UNL     1       6.956  -1.160  67.189  1.00  0.00     0.010 C
ENDBRANCH  16  17
ENDBRANCH   1  16
BRANCH   2  19
HETATM   19  N2  UNL     1       8.174   1.454  70.745  1.00  0.00    -0.234 N
ATOM     20  H22 UNL     1       8.881   1.630  70.031  1.00  0.00     0.174 HD
ATOM     21  H21 UNL     1       8.291   0.887  71.586  1.00  0.00     0.174 HD
ENDBRANCH   2  19
BRANCH   5  22
HETATM   22  N4  UNL     1       5.369   4.956  71.551  1.00  0.00    -0.384 N
ATOM     23  H42 UNL     1       4.702   5.041  72.317  1.00  0.00     0.157 HD
ATOM     24  H41 UNL     1       5.831   5.808  71.235  1.00  0.00     0.157 HD
ENDBRANCH   5  22
TORSDOF 4
ENDMDL