MODEL 2
REMARK VINA RESULT: -7.669383109      1.554      1.948
REMARK  3 active torsions:
REMARK  status: ('A' for Active; 'I' for Inactive)
REMARK    1  A    between atoms: C3_5  and  N2_6
REMARK    2  A    between atoms: N2_6  and  C4_8
REMARK    3  A    between atoms: C8_17  and  N5_18
ROOT
HETATM    1  C1  UNL     1       1.196   3.880  70.855  1.00  0.00     0.070 C
HETATM    2  C2  UNL     1       2.296   3.968  69.865  1.00  0.00     0.031 A
HETATM    3  N1  UNL     1       3.634   3.800  70.065  1.00  0.00    -0.342 N
ATOM      4  H1  UNL     1       4.074   3.582  70.959  1.00  0.00     0.167 HD
HETATM    5  C3  UNL     1       4.281   3.966  68.902  1.00  0.00     0.147 A
HETATM    6  C9  UNL     1       3.382   4.248  67.900  1.00  0.00     0.182 A
HETATM    7  F1  UNL     1       3.579   4.484  66.600  1.00  0.00    -0.200 F
HETATM    8  C10 UNL     1       2.128   4.246  68.527  1.00  0.00     0.109 A
HETATM    9  C11 UNL     1       0.868   4.494  67.880  1.00  0.00     0.104 C
HETATM   10  N6  UNL     1      -0.143   4.679  67.347  1.00  0.00    -0.191 NA
ENDROOT
BRANCH   5  11
HETATM   11  N2  UNL     1       5.685   3.862  68.744  1.00  0.00    -0.336 N
ATOM     12  H2  UNL     1       6.187   4.646  68.329  1.00  0.00     0.168 HD
BRANCH  11  13
HETATM   13  C4  UNL     1       6.423   2.720  69.133  1.00  0.00     0.088 A
HETATM   14  C5  UNL     1       6.452   1.595  68.361  1.00  0.00     0.009 A
HETATM   15  C6  UNL     1       5.707   1.532  67.080  1.00  0.00     0.054 C
HETATM   16  C7  UNL     1       7.175   0.452  68.721  1.00  0.00     0.126 A
HETATM   17 CL1  UNL     1       7.167  -0.956  67.684  1.00  0.00    -0.062 Cl
HETATM   18  N3  UNL     1       7.850   0.505  69.878  1.00  0.00    -0.288 N
HETATM   19  N4  UNL     1       7.849   1.575  70.659  1.00  0.00    -0.283 N
ATOM     20  H3  UNL     1       8.387  -0.312  70.170  1.00  0.00     0.188 HD
HETATM   21  C8  UNL     1       7.155   2.689  70.324  1.00  0.00     0.141 A
ATOM     22  H4  UNL     1       8.382   1.560  71.528  1.00  0.00     0.188 HD
BRANCH  21  23
HETATM   23  N5  UNL     1       7.136   3.743  71.061  1.00  0.00    -0.383 N
ATOM     24  H52 UNL     1       6.597   4.574  70.820  1.00  0.00     0.157 HD
ATOM     25  H51 UNL     1       7.686   3.728  71.920  1.00  0.00     0.157 HD
ENDBRANCH  21  23
ENDBRANCH  11  13
ENDBRANCH   5  11
TORSDOF 3
ENDMDL