MODEL 3
REMARK VINA RESULT: -7.031893658      1.301      1.427
REMARK  4 active torsions:
REMARK  status: ('A' for Active; 'I' for Inactive)
REMARK    1  A    between atoms: C2_2  and  C3_3
REMARK    2  A    between atoms: C3_3  and  C5_5
REMARK    3  A    between atoms: C9_16  and  N4_17
REMARK    4  A    between atoms: S1_20  and  C10_21
ROOT
HETATM    1  C5  UNL     1       5.895   1.919  67.888  1.00  0.00     0.149 C
HETATM    2  N1  UNL     1       4.473   2.002  67.724  1.00  0.00    -0.371 N
ATOM      3  H1  UNL     1       3.989   1.375  67.082  1.00  0.00     0.161 HD
HETATM    4  C6  UNL     1       3.769   2.947  68.447  1.00  0.00     0.106 A
HETATM    5  C7  UNL     1       4.134   3.192  69.728  1.00  0.00     0.101 A
HETATM    6  N2  UNL     1       3.551   4.025  70.527  1.00  0.00    -0.301 N
ATOM      7  H2  UNL     1       3.898   4.141  71.480  1.00  0.00     0.171 HD
HETATM    8  C8  UNL     1       2.463   4.758  70.099  1.00  0.00     0.326 A
HETATM    9  O1  UNL     1       1.886   5.563  70.841  1.00  0.00    -0.247 OA
HETATM   10  N3  UNL     1       2.048   4.570  68.841  1.00  0.00    -0.293 N
ATOM     11  H3  UNL     1       1.247   5.098  68.498  1.00  0.00     0.172 HD
HETATM   12  C9  UNL     1       2.653   3.710  68.029  1.00  0.00     0.132 A
HETATM   13  S1  UNL     1       5.829   1.947  69.965  1.00  0.00    -0.080 SA
ENDROOT
BRANCH   1  14
HETATM   14  C3  UNL     1       6.610   0.844  67.310  1.00  0.00     0.014 C
HETATM   15  C4  UNL     1       5.544   0.105  66.408  1.00  0.00     0.012 C
BRANCH  14  16
HETATM   16  C2  UNL     1       7.296  -0.238  67.995  1.00  0.00     0.002 C
HETATM   17  C1  UNL     1       6.626  -1.568  68.125  1.00  0.00     0.005 C
ENDBRANCH  14  16
ENDBRANCH   1  14
BRANCH  13  18
HETATM   18  C10 UNL     1       7.256   2.474  71.015  1.00  0.00     0.414 C
HETATM   19  F1  UNL     1       8.208   1.492  71.160  1.00  0.00    -0.203 F
HETATM   20  F2  UNL     1       7.903   3.607  70.580  1.00  0.00    -0.203 F
ENDBRANCH  13  18
BRANCH  12  21
HETATM   21  N4  UNL     1       2.173   3.590  66.814  1.00  0.00    -0.383 N
ATOM     22  H42 UNL     1       1.624   2.755  66.608  1.00  0.00     0.157 HD
ATOM     23  H41 UNL     1       2.348   4.306  66.110  1.00  0.00     0.157 HD
ENDBRANCH  12  21
TORSDOF 4
ENDMDL