MODEL 5
REMARK VINA RESULT: -7.316141559      1.335      2.040
REMARK  5 active torsions:
REMARK  status: ('A' for Active; 'I' for Inactive)
REMARK    1  A    between atoms: C2_2  and  C5_5
REMARK    2  A    between atoms: C5_5  and  S1_8
REMARK    3  A    between atoms: S1_8  and  C6_9
REMARK    4  A    between atoms: C7_12  and  C8_13
REMARK    5  A    between atoms: C10_19  and  N4_20
ROOT
HETATM    1  C6  UNL     1       3.061   4.183  69.396  1.00  0.00     0.215 A
HETATM    2  N1  UNL     1       3.996   3.244  69.129  1.00  0.00    -0.313 N
ATOM      3  H1  UNL     1       3.909   2.507  68.431  1.00  0.00     0.170 HD
HETATM    4  C7  UNL     1       5.041   3.430  69.916  1.00  0.00     0.143 A
HETATM    5  N5  UNL     1       4.709   4.516  70.669  1.00  0.00    -0.241 N
ATOM      6  H5  UNL     1       5.303   4.932  71.386  1.00  0.00     0.196 HD
HETATM    7  O1  UNL     1       3.530   4.947  70.344  1.00  0.00    -0.210 OA
ENDROOT
BRANCH   4   8
HETATM    8  C8  UNL     1       6.299   2.722  70.045  1.00  0.00     0.071 A
HETATM    9  C9  UNL     1       7.198   2.867  71.119  1.00  0.00     0.126 A
HETATM   10  N2  UNL     1       8.252   2.074  70.929  1.00  0.00    -0.309 N
HETATM   11  N3  UNL     1       8.104   1.423  69.808  1.00  0.00    -0.285 N
ATOM     12  H2  UNL     1       9.049   1.989  71.561  1.00  0.00     0.186 HD
HETATM   13  C10 UNL     1       6.907   1.799  69.235  1.00  0.00     0.129 A
ATOM     14  H3  UNL     1       8.763   0.749  69.420  1.00  0.00     0.188 HD
BRANCH  13  15
HETATM   15  N4  UNL     1       6.478   1.339  68.135  1.00  0.00    -0.384 N
ATOM     16  H42 UNL     1       5.632   1.671  67.673  1.00  0.00     0.157 HD
ATOM     17  H41 UNL     1       6.894   0.600  67.568  1.00  0.00     0.157 HD
ENDBRANCH  13  15
ENDBRANCH   4   8
BRANCH   1  18
HETATM   18  S1  UNL     1       1.633   4.312  68.657  1.00  0.00    -0.006 SA
BRANCH  18  19
HETATM   19  C5  UNL     1       1.515   4.117  66.853  1.00  0.00     0.306 C
HETATM   20  F1  UNL     1       1.681   2.787  66.506  1.00  0.00    -0.192 F
HETATM   21  F2  UNL     1       2.480   4.922  66.275  1.00  0.00    -0.192 F
BRANCH  19  22
HETATM   22  C2  UNL     1       0.176   4.552  66.317  1.00  0.00     0.025 C
HETATM   23  C1  UNL     1      -0.528   5.470  67.295  1.00  0.00     0.021 C
HETATM   24  C3  UNL     1      -0.666   3.290  66.161  1.00  0.00     0.021 C
HETATM   25  C4  UNL     1       0.289   5.182  64.946  1.00  0.00     0.021 C
ENDBRANCH  19  22
ENDBRANCH  18  19
ENDBRANCH   1  18
TORSDOF 5
ENDMDL