MODEL 3
REMARK VINA RESULT: -6.919379366      2.196      2.899
REMARK  2 active torsions:
REMARK  status: ('A' for Active; 'I' for Inactive)
REMARK    1  A    between atoms: C2_2  and  C3_4
REMARK       I    between atoms: C3_4  and  N1_6
REMARK    2  A    between atoms: N1_6  and  C4_8
ROOT
HETATM    1  C4  UNL     1       3.377   3.340  70.034  1.00  0.00     0.181 A
HETATM    2  O2  UNL     1       2.963   3.270  71.258  1.00  0.00    -0.274 OA
HETATM    3  C5  UNL     1       3.800   2.628  72.009  1.00  0.00     0.188 A
HETATM    4  N2  UNL     1       3.660   2.372  73.383  1.00  0.00    -0.072 NA
HETATM    5  C6  UNL     1       4.852   2.238  71.239  1.00  0.00     0.108 A
HETATM    6  C7  UNL     1       4.590   2.696  69.945  1.00  0.00     0.111 A
HETATM    7  N3  UNL     1       5.356   2.564  68.758  1.00  0.00    -0.384 N
ATOM      8  H3  UNL     1       5.070   3.131  67.960  1.00  0.00     0.159 HD
HETATM    9  C8  UNL     1       6.503   1.704  68.570  1.00  0.00     0.121 C
HETATM   10  C9  UNL     1       7.455   1.919  69.731  1.00  0.00     0.039 C
HETATM   11  C10 UNL     1       7.056   0.948  70.838  1.00  0.00     0.121 C
HETATM   12  N4  UNL     1       5.991   1.513  71.655  1.00  0.00    -0.385 N
ATOM     13  H4  UNL     1       6.078   1.365  72.660  1.00  0.00     0.159 HD
ENDROOT
BRANCH   1  14
HETATM   14  N1  UNL     1       2.722   3.964  68.947  1.00  0.00    -0.304 N
HETATM   15  C3  UNL     1       1.533   3.392  68.426  1.00  0.00     0.241 C
HETATM   16  O1  UNL     1       1.059   2.352  68.911  1.00  0.00    -0.271 OA
ATOM     17  H1  UNL     1       3.101   4.820  68.540  1.00  0.00     0.171 HD
BRANCH  15  18
HETATM   18  C2  UNL     1       0.838   4.035  67.291  1.00  0.00     0.170 C
HETATM   19  C1  UNL     1       1.843   4.621  66.342  1.00  0.00     0.037 C
HETATM   20 CL1  UNL     1      -0.235   5.323  67.856  1.00  0.00    -0.115 Cl
ENDBRANCH  15  18
ENDBRANCH   1  14
TORSDOF 2
ENDMDL