MODEL 4
REMARK VINA RESULT: -5.651204651      1.207      1.207
REMARK  6 active torsions:
REMARK  status: ('A' for Active; 'I' for Inactive)
REMARK    1  A    between atoms: C2_2  and  C3_3
REMARK    2  A    between atoms: C3_3  and  N1_4
REMARK    3  A    between atoms: N1_4  and  C4_6
REMARK    4  A    between atoms: C4_6  and  N2_8
REMARK    5  A    between atoms: N2_8  and  O1_10
REMARK    6  A    between atoms: O1_10  and  C5_11
ROOT
HETATM    1  C4  UNL     1       2.009  16.294  16.721  1.00  0.00     0.192 C
HETATM    2  S1  UNL     1       1.725  16.778  18.249  1.00  0.00    -0.039 SA
ENDROOT
BRANCH   1   3
HETATM    3  N1  UNL     1       2.790  17.143  15.891  1.00  0.00    -0.366 N
ATOM      4  H1  UNL     1       2.979  16.861  14.929  1.00  0.00     0.161 HD
BRANCH   3   5
HETATM    5  C3  UNL     1       3.322  18.394  16.374  1.00  0.00     0.121 C
BRANCH   5   6
HETATM    6  C2  UNL     1       3.741  19.239  15.182  1.00  0.00     0.015 C
HETATM    7  C1  UNL     1       4.200  20.598  15.614  1.00  0.00     0.006 C
ENDBRANCH   5   6
ENDBRANCH   3   5
ENDBRANCH   1   3
BRANCH   1   8
HETATM    8  N2  UNL     1       1.485  15.062  16.256  1.00  0.00    -0.231 N
ATOM      9  H2  UNL     1       1.232  14.942  15.275  1.00  0.00     0.197 HD
BRANCH   8  10
HETATM   10  O1  UNL     1       1.323  14.032  17.151  1.00  0.00    -0.181 OA
BRANCH  10  11
HETATM   11  C5  UNL     1       0.548  12.931  16.820  1.00  0.00     0.394 C
HETATM   12  N3  UNL     1      -0.863  13.003  16.644  1.00  0.00    -0.031 NA
HETATM   13  O2  UNL     1       1.176  11.837  16.679  1.00  0.00    -0.240 OA
ENDBRANCH  10  11
ENDBRANCH   8  10
ENDBRANCH   1   8
TORSDOF 6
ENDMDL