MODEL 5
REMARK VINA RESULT: -6.066617052      2.204      3.333
REMARK  4 active torsions:
REMARK  status: ('A' for Active; 'I' for Inactive)
REMARK    1  A    between atoms: C2_2  and  C3_3
REMARK    2  A    between atoms: C3_3  and  O1_4
REMARK    3  A    between atoms: C3_3  and  C4_6
REMARK    4  A    between atoms: C6_13  and  N3_14
ROOT
HETATM    1  C4  UNL     1       3.096  17.903  16.164  1.00  0.00     0.112 A
HETATM    2  N1  UNL     1       2.922  17.085  15.127  1.00  0.00    -0.294 N
ATOM      3  H1  UNL     1       3.307  17.225  14.193  1.00  0.00     0.187 HD
HETATM    4  N2  UNL     1       2.160  16.046  15.505  1.00  0.00    -0.277 N
ATOM      5  H2  UNL     1       1.878  15.274  14.900  1.00  0.00     0.189 HD
HETATM    6  C5  UNL     1       1.829  16.175  16.791  1.00  0.00     0.195 A
HETATM    7  O2  UNL     1       1.182  15.662  17.829  1.00  0.00    -0.258 OA
HETATM    8  C6  UNL     1       1.310  16.416  18.887  1.00  0.00     0.224 A
HETATM    9  N4  UNL     1       2.070  17.467  18.540  1.00  0.00    -0.317 N
ATOM     10  H4  UNL     1       2.350  18.236  19.149  1.00  0.00     0.169 HD
HETATM   11  C7  UNL     1       2.395  17.321  17.239  1.00  0.00     0.119 A
ENDROOT
BRANCH   1  12
HETATM   12  C3  UNL     1       3.824  19.150  16.304  1.00  0.00     0.095 C
BRANCH  12  13
HETATM   13  C2  UNL     1       4.013  20.175  15.348  1.00  0.00     0.028 C
HETATM   14  C1  UNL     1       4.420  21.387  15.458  1.00  0.00     0.014 C
ENDBRANCH  12  13
BRANCH  12  15
HETATM   15  O1  UNL     1       4.373  19.346  17.475  1.00  0.00    -0.358 OA
ATOM     16  H1  UNL     1       3.944  19.982  18.037  1.00  0.00     0.217 HD
ENDBRANCH  12  15
ENDBRANCH   1  12
BRANCH   8  17
HETATM   17  N3  UNL     1       0.812  16.227  20.078  1.00  0.00    -0.365 N
ATOM     18  H32 UNL     1       1.296  16.452  20.948  1.00  0.00     0.159 HD
ATOM     19  H31 UNL     1      -0.098  15.841  20.328  1.00  0.00     0.159 HD
ENDBRANCH   8  17
TORSDOF 4
ENDMDL