MODEL 3
REMARK VINA RESULT: -6.113142452      1.279      1.811
REMARK  2 active torsions:
REMARK  status: ('A' for Active; 'I' for Inactive)
REMARK    1  A    between atoms: C4_11  and  C5_12
REMARK    2  A    between atoms: N4_13  and  C6_15
ROOT
HETATM    1  C1  UNL     1       2.591  18.307  19.224  1.00  0.00     0.070 C
HETATM    2  C2  UNL     1       2.615  17.787  17.836  1.00  0.00     0.037 A
HETATM    3  N1  UNL     1       3.145  18.380  16.753  1.00  0.00    -0.303 N
ATOM      4  H1  UNL     1       3.609  19.288  16.762  1.00  0.00     0.186 HD
HETATM    5  N2  UNL     1       2.989  17.637  15.680  1.00  0.00    -0.285 N
ATOM      6  H2  UNL     1       3.302  17.865  14.737  1.00  0.00     0.188 HD
HETATM    7  C3  UNL     1       2.340  16.520  16.055  1.00  0.00     0.127 A
HETATM    8  N3  UNL     1       1.980  15.518  15.324  1.00  0.00    -0.384 N
ATOM      9  H31 UNL     1       1.488  14.671  15.608  1.00  0.00     0.157 HD
ATOM     10  H32 UNL     1       2.165  15.471  14.322  1.00  0.00     0.157 HD
HETATM   11  C4  UNL     1       2.087  16.585  17.417  1.00  0.00     0.047 A
ENDROOT
BRANCH  11  12
HETATM   12  C5  UNL     1       1.401  15.573  18.227  1.00  0.00     0.100 C
HETATM   13  N4  UNL     1       0.105  15.644  18.305  1.00  0.00    -0.393 N
ATOM     14  H4  UNL     1      -0.376  16.392  17.806  1.00  0.00     0.159 HD
BRANCH  13  15
HETATM   15  C6  UNL     1      -0.679  14.703  19.075  1.00  0.00     0.085 A
HETATM   16  C7  UNL     1      -0.458  13.241  18.791  1.00  0.00     0.031 A
HETATM   17  C8  UNL     1      -1.723  13.877  18.352  1.00  0.00     0.006 A
HETATM   18  C9  UNL     1      -1.865  14.226  16.879  1.00  0.00     0.012 C
ENDBRANCH  13  15
ENDBRANCH  11  12
TORSDOF 2
ENDMDL