MODEL 5
REMARK VINA RESULT: -4.873488431      2.700      6.277
REMARK  4 active torsions:
REMARK  status: ('A' for Active; 'I' for Inactive)
REMARK    1  A    between atoms: N1_2  and  C2_4
REMARK    2  A    between atoms: C2_4  and  N2_6
REMARK    3  A    between atoms: N2_6  and  N3_8
REMARK    4  A    between atoms: C3_10  and  C5_12
ROOT
HETATM    1  N3  UNL     1       3.585  19.101  15.247  1.00  0.00    -0.301 N
ATOM      2  H3  UNL     1       2.888  19.559  14.661  1.00  0.00     0.186 HD
HETATM    3  C3  UNL     1       4.416  19.873  15.801  1.00  0.00     0.043 C
HETATM    4  C4  UNL     1       4.235  21.346  15.500  1.00  0.00     0.072 C
ENDROOT
BRANCH   1   5
HETATM    5  N2  UNL     1       3.484  17.724  15.321  1.00  0.00    -0.276 N
ATOM      6  H2  UNL     1       4.112  17.164  14.744  1.00  0.00     0.189 HD
BRANCH   5   7
HETATM    7  C2  UNL     1       2.554  17.044  16.155  1.00  0.00     0.186 C
HETATM    8  S1  UNL     1       2.228  17.583  17.666  1.00  0.00    -0.040 SA
BRANCH   7   9
HETATM    9  N1  UNL     1       1.919  15.885  15.640  1.00  0.00    -0.370 N
HETATM   10  C1  UNL     1       1.321  14.911  16.531  1.00  0.00     0.148 C
ATOM     11  H1  UNL     1       1.882  15.736  14.631  1.00  0.00     0.161 HD
ENDBRANCH   7   9
ENDBRANCH   5   7
ENDBRANCH   1   5
BRANCH   3  12
HETATM   12  C5  UNL     1       5.503  19.509  16.679  1.00  0.00     0.022 C
HETATM   13  C6  UNL     1       5.496  19.769  18.143  1.00  0.00     0.070 C
HETATM   14  N4  UNL     1       6.564  18.921  16.210  1.00  0.00    -0.401 N
ATOM     15  H42 UNL     1       6.570  18.742  15.205  1.00  0.00     0.156 HD
ATOM     16  H41 UNL     1       7.333  18.664  16.830  1.00  0.00     0.156 HD
ENDBRANCH   3  12
TORSDOF 4
ENDMDL