MODEL 4
REMARK VINA RESULT: -5.143681545      2.690      4.602
REMARK  2 active torsions:
REMARK  status: ('A' for Active; 'I' for Inactive)
REMARK       I    between atoms: N2_7  and  C6_8
REMARK    1  A    between atoms: N4_10  and  C7_12
REMARK    2  A    between atoms: C7_12  and  C8_13
ROOT
HETATM    1  N1  UNL     1       5.061  19.110  21.127  1.00  0.00    -0.195 NA
HETATM    2  C1  UNL     1       5.327  20.115  20.643  1.00  0.00     0.084 C
HETATM    3  C2  UNL     1       5.679  21.381  20.051  1.00  0.00     0.194 C
HETATM    4  C3  UNL     1       4.839  22.536  20.600  1.00  0.00     0.042 C
HETATM    5  C4  UNL     1       4.977  23.544  19.494  1.00  0.00     0.023 C
HETATM    6  C5  UNL     1       4.936  22.683  18.257  1.00  0.00     0.127 C
HETATM    7  N2  UNL     1       5.455  21.380  18.638  1.00  0.00    -0.339 N
HETATM    8  C6  UNL     1       5.669  20.351  17.699  1.00  0.00     0.187 C
HETATM    9  N3  UNL     1       4.690  19.353  17.550  1.00  0.00    -0.064 NA
HETATM   10  N4  UNL     1       6.743  20.352  17.012  1.00  0.00    -0.360 N
ATOM     11  H4  UNL     1       7.419  21.102  17.162  1.00  0.00     0.162 HD
ENDROOT
BRANCH  10  12
HETATM   12  C7  UNL     1       7.044  19.326  16.020  1.00  0.00     0.166 C
BRANCH  12  13
HETATM   13  C8  UNL     1       8.293  18.637  16.468  1.00  0.00     0.072 C
HETATM   14  N5  UNL     1       8.258  17.423  16.808  1.00  0.00    -0.410 N
ATOM     15  H52 UNL     1       7.368  16.925  16.772  1.00  0.00     0.155 HD
ATOM     16  H51 UNL     1       9.110  16.953  17.114  1.00  0.00     0.155 HD
ENDBRANCH  12  13
ENDBRANCH  10  12
TORSDOF 2
ENDMDL