MODEL 4
REMARK VINA RESULT: -5.834017710      2.759      2.979
REMARK  3 active torsions:
REMARK  status: ('A' for Active; 'I' for Inactive)
REMARK    1  A    between atoms: C2_2  and  N2_6
REMARK    2  A    between atoms: N2_6  and  N3_8
REMARK    3  A    between atoms: C3_10  and  C4_11
ROOT
HETATM    1  N3  UNL     1       2.667  17.979  19.711  1.00  0.00    -0.309 N
ATOM      2  H3  UNL     1       2.763  17.250  20.418  1.00  0.00     0.186 HD
HETATM    3  C3  UNL     1       2.031  17.723  18.638  1.00  0.00     0.131 C
ENDROOT
BRANCH   1   4
HETATM    4  N2  UNL     1       3.239  19.244  19.943  1.00  0.00    -0.290 N
ATOM      5  H2  UNL     1       2.653  20.075  20.024  1.00  0.00     0.188 HD
BRANCH   4   6
HETATM    6  C2  UNL     1       4.651  19.339  20.063  1.00  0.00     0.085 C
HETATM    7  C1  UNL     1       5.425  19.876  18.917  1.00  0.00     0.090 C
HETATM    8  N1  UNL     1       5.222  18.960  21.155  1.00  0.00    -0.388 N
ATOM      9  H12 UNL     1       6.237  19.028  21.241  1.00  0.00     0.157 HD
ATOM     10  H11 UNL     1       4.690  18.591  21.943  1.00  0.00     0.157 HD
ENDBRANCH   4   6
ENDBRANCH   1   4
BRANCH   3  11
HETATM   11  C4  UNL     1       1.462  16.399  18.456  1.00  0.00     0.022 C
HETATM   12  N4  UNL     1       1.636  15.782  17.366  1.00  0.00    -0.392 N
HETATM   13  C5  UNL     1       1.110  14.474  17.102  1.00  0.00     0.119 C
ATOM     14  H4  UNL     1       2.180  16.239  16.635  1.00  0.00     0.159 HD
HETATM   15  C6  UNL     1      -0.174  14.169  17.791  1.00  0.00     0.020 C
HETATM   16  C7  UNL     1      -0.544  15.130  18.875  1.00  0.00     0.008 C
HETATM   17  C8  UNL     1       0.668  15.747  19.543  1.00  0.00     0.058 C
ENDBRANCH   3  11
TORSDOF 3
ENDMDL