MODEL 5
REMARK VINA RESULT: -5.215400465      1.604      4.498
REMARK  2 active torsions:
REMARK  status: ('A' for Active; 'I' for Inactive)
REMARK    1  A    between atoms: C3_5  and  N3_8
REMARK    2  A    between atoms: N3_8  and  C5_10
ROOT
HETATM    1  C1  UNL     1       5.198  23.088  21.243  1.00  0.00     0.088 C
HETATM    2  C2  UNL     1       5.365  21.896  20.342  1.00  0.00     0.071 C
HETATM    3  N1  UNL     1       6.181  21.768  19.369  1.00  0.00    -0.341 N
ATOM      4  H1  UNL     1       6.850  22.474  19.063  1.00  0.00     0.164 HD
HETATM    5  C3  UNL     1       6.007  20.463  18.770  1.00  0.00     0.209 C
HETATM    6  C4  UNL     1       7.307  19.880  18.430  1.00  0.00     0.115 C
HETATM    7  N2  UNL     1       8.353  19.444  18.186  1.00  0.00    -0.193 NA
HETATM    8  C9  UNL     1       5.407  19.664  19.937  1.00  0.00     0.190 C
HETATM    9  N4  UNL     1       4.584  20.719  20.518  1.00  0.00    -0.375 N
ATOM     10  H4  UNL     1       3.664  20.634  20.949  1.00  0.00     0.160 HD
ENDROOT
BRANCH   5  11
HETATM   11  N3  UNL     1       5.111  20.599  17.707  1.00  0.00    -0.380 N
ATOM     12  H3  UNL     1       4.119  20.466  17.899  1.00  0.00     0.157 HD
BRANCH  11  13
HETATM   13  C5  UNL     1       5.485  20.905  16.401  1.00  0.00     0.080 C
HETATM   14  C6  UNL     1       5.673  22.312  15.922  1.00  0.00     0.025 C
HETATM   15  C7  UNL     1       4.139  22.420  15.915  1.00  0.00     0.004 C
HETATM   16  C8  UNL     1       4.201  20.933  15.523  1.00  0.00     0.025 C
ENDBRANCH  11  13
ENDBRANCH   5  11
TORSDOF 2
ENDMDL