MODEL 2
REMARK VINA RESULT: -4.689544488      5.292      6.246
REMARK  1 active torsions:
REMARK  status: ('A' for Active; 'I' for Inactive)
REMARK       I    between atoms: C1_2  and  N1_4
REMARK    1  A    between atoms: N1_4  and  C2_6
ROOT
HETATM    1  C2  UNL     1       0.780  15.309  17.441  1.00  0.00     0.125 C
HETATM    2  C3  UNL     1       0.126  15.650  18.746  1.00  0.00     0.033 C
HETATM    3  C4  UNL     1       0.978  16.468  19.664  1.00  0.00     0.039 C
HETATM    4  C5  UNL     1       1.698  17.595  19.006  1.00  0.00     0.154 C
HETATM    5  S1  UNL     1       3.345  17.751  19.771  1.00  0.00    -0.070 SA
HETATM    6  N2  UNL     1       1.870  17.526  17.617  1.00  0.00    -0.386 N
ATOM      7  H2  UNL     1       2.066  18.376  17.087  1.00  0.00     0.159 HD
HETATM    8  C6  UNL     1       1.774  16.290  16.950  1.00  0.00     0.082 C
ENDROOT
BRANCH   1   9
HETATM    9  N1  UNL     1       1.362  13.979  17.501  1.00  0.00    -0.326 N
HETATM   10  C1  UNL     1       0.652  12.849  17.012  1.00  0.00     0.284 C
HETATM   11  O1  UNL     1      -0.511  12.968  16.510  1.00  0.00    -0.630 OA
HETATM   12  O2  UNL     1       1.225  11.589  17.078  1.00  0.00    -0.630 OA
ATOM     13  H1  UNL     1       2.293  13.854  17.899  1.00  0.00     0.166 HD
ENDBRANCH   1   9
TORSDOF 1
ENDMDL