MODEL 1
REMARK VINA RESULT: -5.538025673      0.000      0.000
REMARK  3 active torsions:
REMARK  status: ('A' for Active; 'I' for Inactive)
REMARK    1  A    between atoms: C2_2  and  C4_4
REMARK    2  A    between atoms: C4_4  and  N1_5
REMARK    3  A    between atoms: N1_5  and  C5_8
ROOT
HETATM    1  C5  UNL     1       1.676  15.200  17.436  1.00  0.00     0.297 C
HETATM    2  C6  UNL     1       0.949  14.071  16.752  1.00  0.00     0.167 C
HETATM    3  N2  UNL     1       0.822  12.935  17.630  1.00  0.00    -0.417 N
ATOM      4  H2  UNL     1       1.258  12.035  17.428  1.00  0.00     0.153 HD
HETATM    5  C7  UNL     1       0.046  13.160  18.798  1.00  0.00     0.115 C
HETATM    6  C8  UNL     1      -0.978  14.239  18.698  1.00  0.00     0.038 C
HETATM    7  C9  UNL     1      -0.297  15.576  18.773  1.00  0.00     0.117 C
HETATM    8  N3  UNL     1       1.120  15.549  18.706  1.00  0.00    -0.394 N
ATOM      9  H3  UNL     1       1.705  15.765  19.514  1.00  0.00     0.155 HD
ENDROOT
BRANCH   1  10
HETATM   10  N1  UNL     1       1.777  16.373  16.615  1.00  0.00    -0.050 N
ATOM     11  H12 UNL     1       0.863  16.636  16.248  1.00  0.00     0.280 HD
ATOM     12  H11 UNL     1       2.257  16.160  15.740  1.00  0.00     0.280 HD
BRANCH  10  13
HETATM   13  C4  UNL     1       2.402  17.493  17.281  1.00  0.00     0.267 C
BRANCH  13  14
HETATM   14  C2  UNL     1       3.282  18.266  16.373  1.00  0.00    -0.068 C
HETATM   15  C1  UNL     1       4.133  19.132  16.882  1.00  0.00     0.015 C
HETATM   16  C3  UNL     1       3.242  18.104  14.891  1.00  0.00     0.044 C
ENDBRANCH  13  14
ENDBRANCH  10  13
ENDBRANCH   1  10
TORSDOF 3
ENDMDL