MODEL 4
REMARK VINA RESULT: -5.330505601      2.662      6.046
REMARK  3 active torsions:
REMARK  status: ('A' for Active; 'I' for Inactive)
REMARK    1  A    between atoms: N1_1  and  N2_4
REMARK    2  A    between atoms: C5_9  and  N3_10
REMARK       I    between atoms: N3_10  and  C6_12
REMARK    3  A    between atoms: C6_12  and  C7_14
ROOT
HETATM    1  N2  UNL     1       0.626  14.117  16.570  1.00  0.00    -0.311 N
HETATM    2  C1  UNL     1      -0.698  14.106  17.060  1.00  0.00     0.144 C
HETATM    3  C2  UNL     1      -0.833  14.171  18.552  1.00  0.00     0.022 C
HETATM    4  C3  UNL     1       0.427  14.673  19.226  1.00  0.00     0.006 C
HETATM    5  C4  UNL     1       0.971  15.784  18.343  1.00  0.00     0.048 C
HETATM    6  C5  UNL     1       1.496  15.111  17.093  1.00  0.00     0.201 C
ENDROOT
BRANCH   6   7
HETATM    7  N3  UNL     1       1.804  16.096  16.074  1.00  0.00    -0.338 N
HETATM    8  C6  UNL     1       2.522  17.271  16.362  1.00  0.00     0.223 C
HETATM    9  O1  UNL     1       2.928  17.519  17.522  1.00  0.00    -0.273 OA
ATOM     10  H3  UNL     1       1.489  15.931  15.117  1.00  0.00     0.164 HD
BRANCH   8  11
HETATM   11  C7  UNL     1       2.812  18.247  15.285  1.00  0.00     0.078 A
HETATM   12  C8  UNL     1       4.152  18.945  15.382  1.00  0.00     0.015 A
HETATM   13  C9  UNL     1       3.940  17.856  14.352  1.00  0.00     0.015 A
ENDBRANCH   8  11
ENDBRANCH   6   7
BRANCH   1  14
HETATM   14  N1  UNL     1       1.198  12.890  16.337  1.00  0.00    -0.345 N
ATOM     15  H12 UNL     1       0.897  12.138  16.958  1.00  0.00     0.176 HD
ATOM     16  H11 UNL     1       1.359  12.645  15.361  1.00  0.00     0.176 HD
ENDBRANCH   1  14
TORSDOF 3
ENDMDL