MODEL 3
REMARK VINA RESULT: -4.339695587      1.203      1.441
REMARK  2 active torsions:
REMARK  status: ('A' for Active; 'I' for Inactive)
REMARK    1  A    between atoms: C1_4  and  N2_5
REMARK    2  A    between atoms: N2_5  and  C2_7
ROOT
HETATM    1  C2  UNL     1      22.564  18.192  18.698  1.00  0.00     0.286 C
HETATM    2  C3  UNL     1      23.442  17.235  19.466  1.00  0.00     0.082 C
HETATM    3  C4  UNL     1      23.216  18.120  20.693  1.00  0.00     0.238 C
HETATM    4  N3  UNL     1      22.826  19.178  19.756  1.00  0.00    -0.054 N
ATOM      5  H31 UNL     1      22.093  19.837  20.020  1.00  0.00     0.279 HD
ATOM      6  H32 UNL     1      23.469  19.949  19.575  1.00  0.00     0.279 HD
ENDROOT
BRANCH   1   7
HETATM    7  N2  UNL     1      23.091  18.529  17.414  1.00  0.00    -0.359 N
ATOM      8  H2  UNL     1      23.041  17.817  16.685  1.00  0.00     0.162 HD
BRANCH   7   9
HETATM    9  C1  UNL     1      23.674  19.766  17.071  1.00  0.00     0.170 C
HETATM   10  N1  UNL     1      22.943  20.719  16.632  1.00  0.00    -0.395 N
ATOM     11  H12 UNL     1      21.938  20.568  16.536  1.00  0.00     0.156 HD
ATOM     12  H11 UNL     1      23.365  21.615  16.385  1.00  0.00     0.156 HD
ENDBRANCH   7   9
ENDBRANCH   1   7
TORSDOF 2
ENDMDL