MODEL 1
REMARK VINA RESULT: -4.446951624      0.000      0.000
REMARK  2 active torsions:
REMARK  status: ('A' for Active; 'I' for Inactive)
REMARK    1  A    between atoms: C1_4  and  N2_5
REMARK    2  A    between atoms: N2_5  and  C2_7
ROOT
HETATM    1  N2  UNL     1      22.325  19.317  18.414  1.00  0.00    -0.358 N
ATOM      2  H2  UNL     1      21.384  19.322  18.810  1.00  0.00     0.162 HD
ENDROOT
BRANCH   1   3
HETATM    3  C1  UNL     1      22.869  20.487  17.815  1.00  0.00     0.170 C
HETATM    4  N1  UNL     1      23.130  20.515  16.535  1.00  0.00    -0.395 N
ATOM      5  H12 UNL     1      22.935  19.685  15.976  1.00  0.00     0.156 HD
ATOM      6  H11 UNL     1      23.520  21.354  16.106  1.00  0.00     0.156 HD
ENDBRANCH   1   3
BRANCH   1   7
HETATM    7  C2  UNL     1      23.136  18.121  18.450  1.00  0.00     0.245 A
HETATM    8  C3  UNL     1      23.348  17.500  19.815  1.00  0.00     0.224 A
HETATM    9  O1  UNL     1      22.518  16.914  18.843  1.00  0.00    -0.360 OA
ENDBRANCH   1   7
TORSDOF 2
ENDMDL