MODEL 1
REMARK VINA RESULT: -5.290685986      0.000      0.000
REMARK  3 active torsions:
REMARK  status: ('A' for Active; 'I' for Inactive)
REMARK    1  A    between atoms: N2_4  and  N3_6
REMARK    2  A    between atoms: C1_8  and  N4_9
REMARK    3  A    between atoms: N4_9  and  C2_11
ROOT
HETATM    1  N3  UNL     1      23.587  17.949  21.077  1.00  0.00    -0.283 N
ATOM      2  H3  UNL     1      23.426  18.840  21.547  1.00  0.00     0.189 HD
HETATM    3  C1  UNL     1      23.316  17.848  19.803  1.00  0.00     0.196 C
ENDROOT
BRANCH   3   4
HETATM    4  N4  UNL     1      22.805  18.969  19.099  1.00  0.00    -0.356 N
ATOM      5  H4  UNL     1      21.817  19.215  19.162  1.00  0.00     0.162 HD
BRANCH   4   6
HETATM    6  C2  UNL     1      23.710  19.755  18.290  1.00  0.00     0.310 A
HETATM    7  C3  UNL     1      23.201  20.803  17.395  1.00  0.00     0.289 A
HETATM    8  N5  UNL     1      23.461  19.490  16.822  1.00  0.00    -0.049 N
ATOM      9  H52 UNL     1      24.016  19.134  16.044  1.00  0.00     0.279 HD
ATOM     10  H51 UNL     1      22.920  18.810  16.288  1.00  0.00     0.279 HD
ENDBRANCH   4   6
ENDBRANCH   3   4
BRANCH   1  11
HETATM   11  N2  UNL     1      24.084  16.892  21.806  1.00  0.00    -0.248 N
HETATM   12  N1  UNL     1      24.853  17.093  22.796  1.00  0.00    -0.331 N
ATOM     13  H12 UNL     1      25.095  18.053  23.042  1.00  0.00     0.178 HD
ATOM     14  H11 UNL     1      25.221  16.309  23.335  1.00  0.00     0.178 HD
ATOM     15  H2  UNL     1      23.833  15.938  21.547  1.00  0.00     0.207 HD
ENDBRANCH   1  11
TORSDOF 3
ENDMDL