MODEL 1
REMARK VINA RESULT: -4.642001338      0.000      0.000
REMARK  2 active torsions:
REMARK  status: ('A' for Active; 'I' for Inactive)
REMARK    1  A    between atoms: C1_2  and  N1_3
REMARK    2  A    between atoms: N1_3  and  C2_5
ROOT
HETATM    1  C2  UNL     1      22.638  19.496  18.616  1.00  0.00     0.287 C
HETATM    2  C3  UNL     1      23.857  20.380  18.317  1.00  0.00     0.082 C
HETATM    3  C4  UNL     1      23.577  19.908  16.891  1.00  0.00     0.238 C
HETATM    4  N2  UNL     1      23.124  18.649  17.512  1.00  0.00    -0.054 N
ATOM      5  H21 UNL     1      22.510  17.998  17.022  1.00  0.00     0.279 HD
ATOM      6  H22 UNL     1      23.760  17.869  17.671  1.00  0.00     0.279 HD
ENDROOT
BRANCH   1   7
HETATM    7  N1  UNL     1      22.660  18.861  19.892  1.00  0.00    -0.341 N
ATOM      8  H1  UNL     1      22.119  19.249  20.665  1.00  0.00     0.163 HD
BRANCH   7   9
HETATM    9  C1  UNL     1      23.434  17.691  20.086  1.00  0.00     0.350 C
HETATM   10  O1  UNL     1      23.110  16.645  19.483  1.00  0.00    -0.284 OA
ENDBRANCH   7   9
ENDBRANCH   1   7
TORSDOF 2
ENDMDL