MODEL 1
REMARK VINA RESULT: -4.764814252      0.000      0.000
REMARK  3 active torsions:
REMARK  status: ('A' for Active; 'I' for Inactive)
REMARK    1  A    between atoms: N1_1  and  C1_4
REMARK    2  A    between atoms: C1_4  and  C2_5
REMARK    3  A    between atoms: C2_5  and  N2_6
ROOT
HETATM    1  N2  UNL     1      23.399  18.663  18.560  1.00  0.00    -0.266 N
HETATM    2  C3  UNL     1      23.175  17.762  19.539  1.00  0.00     0.213 A
HETATM    3  N3  UNL     1      22.723  16.890  18.619  1.00  0.00    -0.279 N
ATOM      4  H3  UNL     1      22.359  15.938  18.641  1.00  0.00     0.185 HD
HETATM    5  N4  UNL     1      22.953  17.799  17.663  1.00  0.00    -0.018 NA
ENDROOT
BRANCH   1   6
HETATM    6  C2  UNL     1      23.908  20.017  18.472  1.00  0.00     0.191 C
BRANCH   6   7
HETATM    7  C1  UNL     1      23.061  20.826  17.551  1.00  0.00     0.074 C
BRANCH   7   8
HETATM    8  N1  UNL     1      22.917  20.419  16.354  1.00  0.00    -0.410 N
ATOM      9  H12 UNL     1      23.684  19.938  15.883  1.00  0.00     0.155 HD
ATOM     10  H11 UNL     1      22.024  20.588  15.892  1.00  0.00     0.155 HD
ENDBRANCH   7   8
ENDBRANCH   6   7
ENDBRANCH   1   6
TORSDOF 3
ENDMDL