MODEL 3
REMARK VINA RESULT: -4.291025635      1.057      1.254
REMARK  2 active torsions:
REMARK  status: ('A' for Active; 'I' for Inactive)
REMARK    1  A    between atoms: C3_4  and  N2_5
REMARK    2  A    between atoms: N2_5  and  C4_7
ROOT
HETATM    1  N2  UNL     1      23.153  18.334  17.527  1.00  0.00    -0.355 N
ATOM      2  H2  UNL     1      22.998  17.652  16.785  1.00  0.00     0.162 HD
ENDROOT
BRANCH   1   3
HETATM    3  C3  UNL     1      22.876  17.990  18.903  1.00  0.00     0.350 A
HETATM    4  N1  UNL     1      23.869  18.244  19.922  1.00  0.00     0.112 N
HETATM    5  C1  UNL     1      23.848  17.297  21.048  1.00  0.00     0.312 C
HETATM    6  C2  UNL     1      22.611  19.090  19.820  1.00  0.00     0.331 A
ENDBRANCH   1   3
BRANCH   1   7
HETATM    7  C4  UNL     1      23.638  19.615  17.221  1.00  0.00     0.170 C
HETATM    8  N3  UNL     1      22.957  20.394  16.473  1.00  0.00    -0.395 N
ATOM      9  H32 UNL     1      22.062  20.070  16.106  1.00  0.00     0.156 HD
ATOM     10  H31 UNL     1      23.309  21.325  16.251  1.00  0.00     0.156 HD
ENDBRANCH   1   7
TORSDOF 2
ENDMDL