MODEL 4
REMARK VINA RESULT: -4.665658722      0.771      1.048
REMARK  3 active torsions:
REMARK  status: ('A' for Active; 'I' for Inactive)
REMARK    1  A    between atoms: N2_4  and  N3_6
REMARK    2  A    between atoms: C1_8  and  N4_9
REMARK    3  A    between atoms: N4_9  and  C2_11
ROOT
HETATM    1  N3  UNL     1      23.788  17.371  21.191  1.00  0.00    -0.283 N
ATOM      2  H3  UNL     1      23.556  16.504  20.707  1.00  0.00     0.189 HD
HETATM    3  C1  UNL     1      23.404  18.462  20.644  1.00  0.00     0.194 C
ENDROOT
BRANCH   1   4
HETATM    4  N2  UNL     1      24.485  17.259  22.375  1.00  0.00    -0.248 N
HETATM    5  N1  UNL     1      24.420  16.134  22.988  1.00  0.00    -0.331 N
ATOM      6  H12 UNL     1      23.872  15.365  22.603  1.00  0.00     0.178 HD
ATOM      7  H11 UNL     1      24.936  16.050  23.864  1.00  0.00     0.178 HD
ATOM      8  H2  UNL     1      25.030  18.037  22.747  1.00  0.00     0.207 HD
ENDBRANCH   1   4
BRANCH   3   9
HETATM    9  N4  UNL     1      22.698  18.391  19.425  1.00  0.00    -0.380 N
ATOM     10  H4  UNL     1      22.217  17.530  19.164  1.00  0.00     0.160 HD
BRANCH   9  11
HETATM   11  C2  UNL     1      22.656  19.526  18.555  1.00  0.00     0.082 A
HETATM   12  C3  UNL     1      23.883  20.352  18.450  1.00  0.00     0.027 A
HETATM   13  C4  UNL     1      23.486  19.505  17.278  1.00  0.00     0.027 A
ENDBRANCH   9  11
ENDBRANCH   3   9
TORSDOF 3
ENDMDL