MODEL 5
REMARK VINA RESULT: -5.052124571      0.912      1.228
REMARK  3 active torsions:
REMARK  status: ('A' for Active; 'I' for Inactive)
REMARK    1  A    between atoms: N2_4  and  C1_6
REMARK    2  A    between atoms: C1_6  and  N3_7
REMARK    3  A    between atoms: N3_7  and  C2_10
ROOT
HETATM    1  C1  UNL     1      23.404  19.342  17.127  1.00  0.00     0.371 C
ENDROOT
BRANCH   1   2
HETATM    2  N2  UNL     1      23.018  20.605  16.588  1.00  0.00    -0.318 N
HETATM    3  N1  UNL     1      23.041  21.576  17.378  1.00  0.00    -0.348 N
ATOM      4  H12 UNL     1      23.323  21.454  18.351  1.00  0.00     0.176 HD
ATOM      5  H11 UNL     1      22.764  22.480  16.993  1.00  0.00     0.176 HD
ATOM      6  H2  UNL     1      22.738  20.711  15.613  1.00  0.00     0.181 HD
ENDBRANCH   1   2
BRANCH   1   7
HETATM    7  N3  UNL     1      22.620  18.932  18.259  1.00  0.00    -0.054 N
ATOM      8  H32 UNL     1      21.924  19.624  18.537  1.00  0.00     0.279 HD
ATOM      9  H31 UNL     1      21.971  18.174  18.046  1.00  0.00     0.279 HD
BRANCH   7  10
HETATM   10  C2  UNL     1      23.557  18.602  19.325  1.00  0.00     0.188 A
HETATM   11  C3  UNL     1      23.439  17.346  20.082  1.00  0.00     0.035 A
HETATM   12  C4  UNL     1      23.149  18.678  20.749  1.00  0.00     0.035 A
ENDBRANCH   7  10
ENDBRANCH   1   7
TORSDOF 3
ENDMDL