MODEL 4
REMARK VINA RESULT: -3.316219510      1.605      1.798
REMARK  3 active torsions:
REMARK  status: ('A' for Active; 'I' for Inactive)
REMARK    1  A    between atoms: N1_2  and  N2_5
REMARK    2  A    between atoms: N2_5  and  N3_7
REMARK    3  A    between atoms: N3_7  and  C4_9
ROOT
HETATM    1  N2  UNL     1      24.284  16.049  24.127  1.00  0.00    -0.158 N
ATOM      2  H2  UNL     1      23.520  15.390  23.979  1.00  0.00     0.215 HD
ENDROOT
BRANCH   1   3
HETATM    3  N1  UNL     1      24.868  16.227  25.356  1.00  0.00     0.013 N
HETATM    4  C1  UNL     1      24.091  17.036  26.272  1.00  0.00     0.302 C
HETATM    5  C2  UNL     1      25.061  14.928  25.966  1.00  0.00     0.302 C
HETATM    6  C3  UNL     1      26.171  16.895  25.231  1.00  0.00     0.302 C
ENDBRANCH   1   3
BRANCH   1   7
HETATM    7  N3  UNL     1      24.798  16.819  23.107  1.00  0.00    -0.277 N
ATOM      8  H3  UNL     1      25.610  17.416  23.263  1.00  0.00     0.189 HD
BRANCH   7   9
HETATM    9  C4  UNL     1      24.177  16.763  21.841  1.00  0.00     0.191 C
HETATM   10  N4  UNL     1      23.800  17.842  21.277  1.00  0.00    -0.394 N
ATOM     11  H42 UNL     1      23.954  18.732  21.751  1.00  0.00     0.156 HD
ATOM     12  H41 UNL     1      23.351  17.801  20.362  1.00  0.00     0.156 HD
ENDBRANCH   7   9
ENDBRANCH   1   7
TORSDOF 3
ENDMDL