MODEL 1
REMARK VINA RESULT: -4.602087881      0.000      0.000
REMARK  2 active torsions:
REMARK  status: ('A' for Active; 'I' for Inactive)
REMARK    1  A    between atoms: C1_4  and  N2_5
REMARK    2  A    between atoms: N2_5  and  C2_7
ROOT
HETATM    1  N2  UNL     1      23.810  19.876  18.563  1.00  0.00    -0.382 N
ATOM      2  H2  UNL     1      24.823  19.795  18.647  1.00  0.00     0.160 HD
ENDROOT
BRANCH   1   3
HETATM    3  C1  UNL     1      23.304  20.793  17.609  1.00  0.00     0.169 C
HETATM    4  N1  UNL     1      22.902  20.435  16.430  1.00  0.00    -0.396 N
ATOM      5  H12 UNL     1      22.959  19.444  16.194  1.00  0.00     0.156 HD
ATOM      6  H11 UNL     1      22.538  21.095  15.744  1.00  0.00     0.156 HD
ENDBRANCH   1   3
BRANCH   1   7
HETATM    7  C2  UNL     1      23.006  19.056  19.416  1.00  0.00     0.082 A
HETATM    8  C3  UNL     1      23.536  18.156  20.437  1.00  0.00     0.027 A
HETATM    9  C4  UNL     1      23.104  17.565  19.103  1.00  0.00     0.027 A
ENDBRANCH   1   7
TORSDOF 2
ENDMDL