MODEL 3
REMARK VINA RESULT: -7.938928765      1.217      2.157
REMARK  6 active torsions:
REMARK  status: ('A' for Active; 'I' for Inactive)
REMARK    1  A    between atoms: C2_2  and  C4_4
REMARK    2  A    between atoms: C2_2  and  C6_8
REMARK    3  A    between atoms: C4_4  and  C5_5
REMARK    4  A    between atoms: C6_8  and  C7_9
REMARK       I    between atoms: C7_9  and  N1_11
REMARK    5  A    between atoms: C8_13  and  C9_14
REMARK       I    between atoms: C9_14  and  N2_16
REMARK    6  A    between atoms: N2_16  and  C10_18
ROOT
HETATM    1  C9  UNL     1      44.091  31.206  30.622  1.00  0.00     0.257 C
HETATM    2  O4  UNL     1      44.801  30.314  30.107  1.00  0.00    -0.267 OA
HETATM    3  N2  UNL     1      44.636  32.449  31.050  1.00  0.00    -0.347 N
ATOM      4  H2  UNL     1      44.003  33.133  31.464  1.00  0.00     0.163 HD
ENDROOT
BRANCH   1   5
HETATM    5  C8  UNL     1      42.679  30.938  30.771  1.00  0.00     0.165 C
HETATM    6  N1  UNL     1      41.899  31.899  31.106  1.00  0.00    -0.332 N
HETATM    7  C7  UNL     1      40.527  31.673  31.260  1.00  0.00     0.222 C
ATOM      8  H1  UNL     1      42.280  32.831  31.261  1.00  0.00     0.168 HD
HETATM    9  O3  UNL     1      39.733  32.620  31.068  1.00  0.00    -0.273 OA
BRANCH   7  10
HETATM   10  C6  UNL     1      40.034  30.339  31.643  1.00  0.00     0.112 C
BRANCH  10  11
HETATM   11  C2  UNL     1      39.675  30.339  33.102  1.00  0.00    -0.030 C
HETATM   12  C1  UNL     1      38.227  30.664  33.255  1.00  0.00     0.016 C
HETATM   13  C3  UNL     1      40.602  31.306  33.814  1.00  0.00     0.016 C
BRANCH  11  14
HETATM   14  C4  UNL     1      39.993  28.926  33.604  1.00  0.00     0.122 C
BRANCH  14  15
HETATM   15  C5  UNL     1      39.592  28.736  35.001  1.00  0.00     0.173 C
HETATM   16  O1  UNL     1      40.386  29.053  35.943  1.00  0.00    -0.648 OA
HETATM   17  O2  UNL     1      38.369  28.219  35.413  1.00  0.00    -0.648 OA
ENDBRANCH  14  15
ENDBRANCH  11  14
ENDBRANCH  10  11
ENDBRANCH   7  10
ENDBRANCH   1   5
BRANCH   3  18
HETATM   18  C10 UNL     1      46.022  32.796  30.934  1.00  0.00     0.034 C
HETATM   19  C11 UNL     1      46.954  31.849  31.618  1.00  0.00     0.035 C
HETATM   20  C12 UNL     1      48.373  32.239  31.272  1.00  0.00    -0.012 C
HETATM   21  C13 UNL     1      48.595  32.245  29.786  1.00  0.00     0.009 C
HETATM   22  C17 UNL     1      48.629  33.588  31.913  1.00  0.00     0.009 C
HETATM   23  C14 UNL     1      47.759  33.355  29.193  1.00  0.00    -0.012 C
HETATM   24  C15 UNL     1      48.011  34.687  29.835  1.00  0.00     0.009 C
HETATM   25  C19 UNL     1      46.306  32.976  29.456  1.00  0.00     0.035 C
HETATM   26  C16 UNL     1      47.680  34.616  31.315  1.00  0.00    -0.012 C
HETATM   27  C18 UNL     1      46.264  34.178  31.556  1.00  0.00     0.035 C
ENDBRANCH   3  18
TORSDOF 6
ENDMDL