MODEL 1
REMARK VINA RESULT: -8.383184102      0.000      0.000
REMARK  6 active torsions:
REMARK  status: ('A' for Active; 'I' for Inactive)
REMARK    1  A    between atoms: C3_3  and  C4_4
REMARK    2  A    between atoms: C4_4  and  C5_5
REMARK       I    between atoms: N2_15  and  C13_17
REMARK    3  A    between atoms: C13_17  and  C14_19
REMARK    4  A    between atoms: C14_19  and  C15_20
REMARK    5  A    between atoms: C14_19  and  N3_24
REMARK    6  A    between atoms: C15_20  and  C16_21
REMARK       I    between atoms: N3_24  and  C19_26
ROOT
HETATM    1  C1  UNL     1      45.261  28.328  32.860  1.00  0.00     0.012 C
HETATM    2  C2  UNL     1      44.112  28.265  32.494  1.00  0.00    -0.117 C
HETATM    3  C3  UNL     1      42.714  28.160  32.035  1.00  0.00     0.096 C
ENDROOT
BRANCH   3   4
HETATM    4  C4  UNL     1      42.394  29.253  31.032  1.00  0.00     0.048 C
BRANCH   4   5
HETATM    5  C5  UNL     1      41.372  30.179  31.663  1.00  0.00     0.062 C
HETATM    6  C6  UNL     1      40.650  30.889  30.551  1.00  0.00     0.044 C
HETATM    7  N1  UNL     1      40.528  29.385  32.485  1.00  0.00    -0.400 N
HETATM    8  C7  UNL     1      39.774  30.060  33.483  1.00  0.00     0.019 C
ATOM      9  H1  UNL     1      40.466  28.374  32.365  1.00  0.00     0.155 HD
HETATM   10  C8  UNL     1      38.502  30.615  32.831  1.00  0.00     0.037 C
HETATM   11  C9  UNL     1      39.296  28.983  34.466  1.00  0.00     0.037 C
HETATM   12  C10 UNL     1      40.492  31.101  34.270  1.00  0.00     0.035 C
HETATM   13  C11 UNL     1      41.961  31.116  33.931  1.00  0.00     0.057 C
HETATM   14  C12 UNL     1      42.085  31.248  32.459  1.00  0.00     0.017 C
HETATM   15  N2  UNL     1      42.728  32.137  31.833  1.00  0.00    -0.330 N
HETATM   16  C13 UNL     1      43.465  33.225  32.296  1.00  0.00     0.244 C
ATOM     17  H2  UNL     1      42.703  32.044  30.818  1.00  0.00     0.168 HD
HETATM   18  O1  UNL     1      43.030  33.900  33.296  1.00  0.00    -0.271 OA
BRANCH  16  19
HETATM   19  C14 UNL     1      44.733  33.668  31.704  1.00  0.00     0.177 C
BRANCH  19  20
HETATM   20  C15 UNL     1      44.897  33.118  30.308  1.00  0.00     0.038 C
BRANCH  20  21
HETATM   21  C16 UNL     1      45.954  32.063  30.160  1.00  0.00    -0.020 C
HETATM   22  C17 UNL     1      47.027  32.593  29.193  1.00  0.00     0.009 C
HETATM   23  C18 UNL     1      45.410  30.819  29.513  1.00  0.00     0.009 C
ENDBRANCH  20  21
ENDBRANCH  19  20
BRANCH  19  24
HETATM   24  N3  UNL     1      45.831  33.017  32.471  1.00  0.00    -0.348 N
HETATM   25  C19 UNL     1      46.756  33.782  33.199  1.00  0.00     0.214 C
HETATM   26  C20 UNL     1      47.841  33.118  33.958  1.00  0.00     0.117 C
HETATM   27  O2  UNL     1      46.631  35.058  33.185  1.00  0.00    -0.274 OA
ATOM     28  H3  UNL     1      45.912  32.001  32.467  1.00  0.00     0.163 HD
ENDBRANCH  19  24
ENDBRANCH  16  19
ENDBRANCH   4   5
ENDBRANCH   3   4
TORSDOF 6
ENDMDL