MODEL 2
REMARK VINA RESULT: -6.999778936      3.682      6.284
REMARK  7 active torsions:
REMARK  status: ('A' for Active; 'I' for Inactive)
REMARK    1  A    between atoms: C2_2  and  C3_3
REMARK    2  A    between atoms: C3_3  and  C4_4
REMARK    3  A    between atoms: C5_5  and  O1_6
REMARK    4  A    between atoms: C7_8  and  C8_9
REMARK    5  A    between atoms: N1_11  and  N2_13
REMARK    6  A    between atoms: C12_19  and  N5_20
REMARK    7  A    between atoms: C16_24  and  C17_25
ROOT
HETATM    1  C4  UNL     1      46.121  32.075  31.454  1.00  0.00    -0.011 A
HETATM    2  C5  UNL     1      44.781  32.356  31.776  1.00  0.00     0.087 A
HETATM    3  C7  UNL     1      43.910  31.371  32.152  1.00  0.00     0.024 A
HETATM    4  C11 UNL     1      44.447  30.076  32.195  1.00  0.00     0.054 A
HETATM    5  C12 UNL     1      45.769  29.736  31.890  1.00  0.00     0.147 A
HETATM    6  C16 UNL     1      46.612  30.764  31.509  1.00  0.00     0.009 A
ENDROOT
BRANCH   3   7
HETATM    7  C8  UNL     1      42.504  31.532  32.519  1.00  0.00     0.035 C
HETATM    8  C9  UNL     1      41.807  31.223  33.748  1.00  0.00     0.070 C
HETATM    9  N1  UNL     1      41.746  32.029  31.567  1.00  0.00    -0.302 N
ATOM     10  H1  UNL     1      42.226  32.240  30.692  1.00  0.00     0.186 HD
BRANCH   9  11
HETATM   11  N2  UNL     1      40.451  32.294  31.584  1.00  0.00    -0.276 N
HETATM   12  C10 UNL     1      39.640  32.305  30.618  1.00  0.00     0.215 C
HETATM   13  N3  UNL     1      40.100  32.004  29.295  1.00  0.00    -0.065 NA
HETATM   14  N4  UNL     1      38.257  32.631  30.812  1.00  0.00    -0.065 NA
ATOM     15  H2  UNL     1      40.056  32.518  32.497  1.00  0.00     0.189 HD
ENDBRANCH   9  11
ENDBRANCH   3   7
BRANCH   2  16
HETATM   16  O1  UNL     1      44.319  33.658  31.717  1.00  0.00    -0.354 OA
HETATM   17  C6  UNL     1      44.345  34.683  32.629  1.00  0.00     0.210 C
ENDBRANCH   2  16
BRANCH   1  18
HETATM   18  C3  UNL     1      46.884  33.226  30.994  1.00  0.00     0.042 C
BRANCH  18  19
HETATM   19  C2  UNL     1      46.749  33.556  29.540  1.00  0.00     0.000 C
HETATM   20  C1  UNL     1      48.087  34.158  29.036  1.00  0.00     0.005 C
ENDBRANCH  18  19
ENDBRANCH   1  18
BRANCH   5  21
HETATM   21  N5  UNL     1      46.188  28.409  32.120  1.00  0.00    -0.048 N
HETATM   22  C13 UNL     1      46.779  27.640  31.092  1.00  0.00     0.278 C
HETATM   23  C14 UNL     1      44.901  27.628  32.316  1.00  0.00     0.278 C
HETATM   24  C15 UNL     1      46.751  28.187  33.458  1.00  0.00     0.278 C
ENDBRANCH   5  21
BRANCH   6  25
HETATM   25  C17 UNL     1      48.007  30.552  31.196  1.00  0.00    -0.074 C
HETATM   26  C18 UNL     1      48.376  30.448  29.723  1.00  0.00     0.044 C
HETATM   27  C19 UNL     1      49.094  31.042  32.083  1.00  0.00     0.044 C
ENDBRANCH   6  25
TORSDOF 7
ENDMDL