MODEL 4
REMARK VINA RESULT: -8.036505506      2.819      3.960
REMARK  7 active torsions:
REMARK  status: ('A' for Active; 'I' for Inactive)
REMARK    1  A    between atoms: S1_2  and  C1_4
REMARK    2  A    between atoms: S1_2  and  N1_11
REMARK    3  A    between atoms: C1_4  and  C2_5
REMARK    4  A    between atoms: N1_11  and  C8_13
REMARK    5  A    between atoms: C8_13  and  C9_14
REMARK    6  A    between atoms: C15_20  and  C16_21
REMARK    7  A    between atoms: C16_21  and  O3_22
ROOT
HETATM    1  C9  UNL     1      42.093  31.874  32.915  1.00  0.00    -0.022 C
HETATM    2  C10 UNL     1      42.878  30.611  33.090  1.00  0.00     0.015 C
HETATM    3  C11 UNL     1      42.122  29.484  32.436  1.00  0.00    -0.013 C
HETATM    4  C12 UNL     1      41.930  29.746  30.975  1.00  0.00     0.009 C
HETATM    5  C13 UNL     1      41.091  30.989  30.817  1.00  0.00    -0.013 C
HETATM    6  C14 UNL     1      39.745  30.828  31.490  1.00  0.00     0.016 C
HETATM    7  C15 UNL     1      39.992  30.565  32.945  1.00  0.00    -0.018 C
HETATM    8  C17 UNL     1      40.774  29.278  33.064  1.00  0.00     0.016 C
HETATM    9  C18 UNL     1      40.753  31.695  33.602  1.00  0.00     0.023 C
HETATM   10  C19 UNL     1      41.794  32.156  31.451  1.00  0.00     0.015 C
ENDROOT
BRANCH   1  11
HETATM   11  C8  UNL     1      42.778  33.087  33.487  1.00  0.00     0.141 C
BRANCH  11  12
HETATM   12  N1  UNL     1      43.243  33.942  32.412  1.00  0.00    -0.319 N
ATOM     13  H1  UNL     1      42.633  34.387  31.728  1.00  0.00     0.172 HD
BRANCH  12  14
HETATM   14  S1  UNL     1      44.962  34.112  32.439  1.00  0.00     0.226 S
HETATM   15  O1  UNL     1      45.287  35.548  32.493  1.00  0.00    -0.206 OA
HETATM   16  O2  UNL     1      45.429  33.490  33.748  1.00  0.00    -0.206 OA
BRANCH  14  17
HETATM   17  C1  UNL     1      45.659  33.246  31.090  1.00  0.00     0.167 C
BRANCH  17  18
HETATM   18  C2  UNL     1      45.497  31.771  31.124  1.00  0.00     0.001 C
HETATM   19  C3  UNL     1      45.220  31.119  29.816  1.00  0.00     0.005 C
HETATM   20  C4  UNL     1      45.266  29.613  30.009  1.00  0.00     0.000 C
HETATM   21  C5  UNL     1      46.620  29.124  30.408  1.00  0.00     0.000 C
HETATM   22  C6  UNL     1      47.491  30.347  30.666  1.00  0.00     0.000 C
HETATM   23  C7  UNL     1      46.755  31.171  31.720  1.00  0.00     0.005 C
ENDBRANCH  17  18
ENDBRANCH  14  17
ENDBRANCH  12  14
ENDBRANCH  11  12
ENDBRANCH   1  11
BRANCH   7  24
HETATM   24  C16 UNL     1      38.707  30.381  33.725  1.00  0.00     0.173 C
BRANCH  24  25
HETATM   25  O3  UNL     1      38.642  29.029  34.084  1.00  0.00    -0.400 OA
ATOM     26  H3  UNL     1      37.733  28.766  34.000  1.00  0.00     0.209 HD
ENDBRANCH  24  25
ENDBRANCH   7  24
TORSDOF 7
ENDMDL