MODEL 1
REMARK VINA RESULT: -7.851350289      0.000      0.000
REMARK  6 active torsions:
REMARK  status: ('A' for Active; 'I' for Inactive)
REMARK    1  A    between atoms: N1_1  and  C1_5
REMARK    2  A    between atoms: C1_5  and  C2_6
REMARK    3  A    between atoms: C2_6  and  N2_7
REMARK       I    between atoms: N2_7  and  C3_9
REMARK    4  A    between atoms: C3_9  and  C4_11
REMARK    5  A    between atoms: C4_11  and  C5_12
REMARK    6  A    between atoms: N3_18  and  C10_19
ROOT
HETATM    1  N2  UNL     1      46.497  29.677  32.302  1.00  0.00    -0.359 N
ATOM      2  H2  UNL     1      46.303  29.897  33.279  1.00  0.00     0.162 HD
HETATM    3  C3  UNL     1      45.420  29.494  31.350  1.00  0.00     0.219 C
HETATM    4  O1  UNL     1      45.751  29.229  30.176  1.00  0.00    -0.274 OA
ENDROOT
BRANCH   3   5
HETATM    5  C4  UNL     1      44.028  29.617  31.754  1.00  0.00     0.128 C
BRANCH   5   6
HETATM    6  C5  UNL     1      43.170  30.590  31.063  1.00  0.00     0.096 C
HETATM    7  C6  UNL     1      41.815  29.981  30.803  1.00  0.00     0.026 C
HETATM    8  C7  UNL     1      40.758  31.011  30.454  1.00  0.00     0.011 C
HETATM    9  C8  UNL     1      40.394  31.692  31.757  1.00  0.00     0.103 C
HETATM   10  C9  UNL     1      41.705  32.146  32.346  1.00  0.00     0.220 C
HETATM   11  O2  UNL     1      41.639  32.793  33.435  1.00  0.00    -0.273 OA
HETATM   12  N3  UNL     1      42.970  31.873  31.723  1.00  0.00    -0.342 N
BRANCH  12  13
HETATM   13  C10 UNL     1      43.957  32.899  31.765  1.00  0.00     0.087 C
HETATM   14  C11 UNL     1      44.875  32.876  32.972  1.00  0.00     0.025 C
HETATM   15  C12 UNL     1      45.469  34.259  33.210  1.00  0.00     0.002 C
HETATM   16  C13 UNL     1      45.844  34.813  31.856  1.00  0.00     0.000 C
HETATM   17  C14 UNL     1      46.129  33.719  30.871  1.00  0.00     0.002 C
HETATM   18  C15 UNL     1      44.885  32.938  30.569  1.00  0.00     0.025 C
ENDBRANCH  12  13
ENDBRANCH   5   6
ENDBRANCH   3   5
BRANCH   1  19
HETATM   19  C2  UNL     1      47.832  29.541  31.833  1.00  0.00     0.161 C
BRANCH  19  20
HETATM   20  C1  UNL     1      48.766  30.597  32.362  1.00  0.00     0.139 C
HETATM   21  C16 UNL     1      49.318  31.451  31.251  1.00  0.00     0.040 C
HETATM   22  C17 UNL     1      50.070  32.636  31.771  1.00  0.00     0.002 C
HETATM   23  C18 UNL     1      49.293  33.408  32.814  1.00  0.00     0.000 C
HETATM   24  C19 UNL     1      48.836  32.482  33.940  1.00  0.00     0.002 C
HETATM   25  C20 UNL     1      47.953  31.448  33.319  1.00  0.00     0.040 C
BRANCH  20  26
HETATM   26  N1  UNL     1      49.838  29.981  33.118  1.00  0.00    -0.069 N
ATOM     27  H13 UNL     1      49.770  28.964  33.117  1.00  0.00     0.275 HD
ATOM     28  H12 UNL     1      50.738  30.072  32.645  1.00  0.00     0.275 HD
ATOM     29  H11 UNL     1      49.864  30.362  34.065  1.00  0.00     0.275 HD
ENDBRANCH  20  26
ENDBRANCH  19  20
ENDBRANCH   1  19
TORSDOF 6
ENDMDL