MODEL 2
REMARK VINA RESULT: -7.226617298      2.060      4.122
REMARK  8 active torsions:
REMARK  status: ('A' for Active; 'I' for Inactive)
REMARK    1  A    between atoms: C2_2  and  C3_3
REMARK    2  A    between atoms: C3_3  and  C4_4
REMARK    3  A    between atoms: C4_4  and  N1_5
REMARK    4  A    between atoms: N1_5  and  C5_6
REMARK    5  A    between atoms: C6_9  and  C7_10
REMARK    6  A    between atoms: C17_21  and  N4_22
REMARK    7  A    between atoms: N4_22  and  C18_24
REMARK    8  A    between atoms: C18_24  and  C19_25
ROOT
HETATM    1  C5  UNL     1      41.760  31.006  33.287  1.00  0.00     0.255 A
HETATM    2  N2  UNL     1      43.031  31.433  32.971  1.00  0.00    -0.318 N
ATOM      3  H2  UNL     1      43.778  31.208  33.627  1.00  0.00     0.170 HD
HETATM    4  C6  UNL     1      43.360  32.114  31.879  1.00  0.00     0.055 A
HETATM    5  C16 UNL     1      42.332  32.414  31.007  1.00  0.00     0.076 A
HETATM    6  C17 UNL     1      41.025  31.997  31.299  1.00  0.00     0.106 A
HETATM    7  N5  UNL     1      40.798  31.316  32.416  1.00  0.00    -0.303 N
ATOM      8  H5  UNL     1      39.845  31.018  32.619  1.00  0.00     0.171 HD
ENDROOT
BRANCH   4   9
HETATM    9  C7  UNL     1      44.766  32.469  31.531  1.00  0.00     0.201 C
HETATM   10  C8  UNL     1      45.072  33.926  31.490  1.00  0.00     0.048 C
HETATM   11  C9  UNL     1      45.408  34.584  32.783  1.00  0.00     0.003 C
HETATM   12  C10 UNL     1      46.935  34.591  32.976  1.00  0.00     0.002 C
HETATM   13  C11 UNL     1      47.222  33.168  33.481  1.00  0.00     0.030 C
HETATM   14  C12 UNL     1      47.048  32.269  32.319  1.00  0.00     0.274 C
HETATM   15  N3  UNL     1      45.738  31.662  32.173  1.00  0.00     0.104 N
HETATM   16  C13 UNL     1      45.965  30.449  31.380  1.00  0.00     0.274 C
HETATM   17  C14 UNL     1      45.051  30.542  30.205  1.00  0.00     0.033 C
HETATM   18  C15 UNL     1      44.868  32.029  30.033  1.00  0.00     0.050 C
ENDBRANCH   4   9
BRANCH   1  19
HETATM   19  N1  UNL     1      41.620  30.343  34.286  1.00  0.00    -0.416 NA
BRANCH  19  20
HETATM   20  C4  UNL     1      41.053  29.567  35.219  1.00  0.00     0.222 C
BRANCH  20  21
HETATM   21  C3  UNL     1      39.519  29.396  35.023  1.00  0.00     0.033 C
BRANCH  21  22
HETATM   22  C2  UNL     1      39.063  28.046  35.484  1.00  0.00    -0.002 C
HETATM   23  C1  UNL     1      38.645  28.093  36.953  1.00  0.00     0.005 C
ENDBRANCH  21  22
ENDBRANCH  20  21
ENDBRANCH  19  20
ENDBRANCH   1  19
BRANCH   6  24
HETATM   24  N4  UNL     1      40.109  32.292  30.453  1.00  0.00    -0.376 N
ATOM     25  H4  UNL     1      40.438  32.583  29.533  1.00  0.00     0.161 HD
BRANCH  24  26
HETATM   26  C18 UNL     1      38.704  32.271  30.618  1.00  0.00     0.121 C
BRANCH  26  27
HETATM   27  C19 UNL     1      38.221  30.811  30.662  1.00  0.00     0.015 C
HETATM   28  C20 UNL     1      37.633  30.526  32.035  1.00  0.00     0.006 C
ENDBRANCH  26  27
ENDBRANCH  24  26
ENDBRANCH   6  24
TORSDOF 8
ENDMDL