MODEL 4
REMARK VINA RESULT: -7.673864182      2.092      3.198
REMARK  6 active torsions:
REMARK  status: ('A' for Active; 'I' for Inactive)
REMARK    1  A    between atoms: C2_2  and  C4_4
REMARK    2  A    between atoms: C11_15  and  N3_16
REMARK    3  A    between atoms: N3_16  and  C13_18
REMARK    4  A    between atoms: C13_18  and  C14_19
REMARK    5  A    between atoms: C14_19  and  C15_20
REMARK    6  A    between atoms: C15_20  and  N4_21
ROOT
HETATM    1  C4  UNL     1      47.509  32.642  31.922  1.00  0.00    -0.035 C
HETATM    2  C5  UNL     1      47.274  33.025  33.379  1.00  0.00     0.016 C
HETATM    3  C6  UNL     1      48.987  32.477  31.734  1.00  0.00     0.012 C
HETATM    4  C7  UNL     1      49.426  31.052  31.614  1.00  0.00     0.036 C
HETATM    5  C8  UNL     1      48.770  30.155  32.655  1.00  0.00     0.211 C
HETATM    6  N1  UNL     1      48.886  28.769  32.314  1.00  0.00    -0.053 N
ATOM      7  H11 UNL     1      49.747  28.344  32.658  1.00  0.00     0.279 HD
ATOM      8  H12 UNL     1      49.052  28.615  31.320  1.00  0.00     0.279 HD
HETATM    9  C9  UNL     1      47.685  28.103  32.802  1.00  0.00     0.357 C
HETATM   10  N2  UNL     1      46.666  29.079  32.531  1.00  0.00    -0.358 N
HETATM   11  C10 UNL     1      45.297  29.103  32.150  1.00  0.00     0.112 C
HETATM   12  C11 UNL     1      44.661  30.163  31.686  1.00  0.00     0.022 C
HETATM   13  C20 UNL     1      45.352  31.436  31.536  1.00  0.00     0.066 C
HETATM   14  C21 UNL     1      46.835  31.324  31.630  1.00  0.00     0.024 C
HETATM   15  C22 UNL     1      47.299  30.370  32.726  1.00  0.00     0.121 C
ENDROOT
BRANCH  12  16
HETATM   16  N3  UNL     1      43.266  30.000  31.350  1.00  0.00    -0.387 N
HETATM   17  C12 UNL     1      42.649  28.684  31.518  1.00  0.00     0.149 C
BRANCH  16  18
HETATM   18  C13 UNL     1      42.431  31.051  30.868  1.00  0.00     0.127 C
BRANCH  18  19
HETATM   19  C14 UNL     1      40.950  30.672  30.997  1.00  0.00     0.064 C
BRANCH  19  20
HETATM   20  C15 UNL     1      40.288  31.448  32.112  1.00  0.00     0.064 C
BRANCH  20  21
HETATM   21  N4  UNL     1      40.066  30.736  33.283  1.00  0.00    -0.374 N
HETATM   22  C16 UNL     1      41.075  30.590  34.239  1.00  0.00     0.063 C
HETATM   23  C17 UNL     1      40.470  29.652  35.265  1.00  0.00     0.046 C
HETATM   24  C18 UNL     1      39.358  28.942  34.494  1.00  0.00     0.025 C
HETATM   25  C19 UNL     1      38.890  30.078  33.581  1.00  0.00     0.127 C
ENDBRANCH  20  21
ENDBRANCH  19  20
ENDBRANCH  18  19
ENDBRANCH  16  18
ENDBRANCH  12  16
BRANCH   1  26
HETATM   26  C2  UNL     1      46.996  33.765  31.075  1.00  0.00    -0.014 C
HETATM   27  C1  UNL     1      46.463  34.848  32.014  1.00  0.00     0.010 C
HETATM   28  C3  UNL     1      48.038  34.413  30.217  1.00  0.00     0.010 C
ENDBRANCH   1  26
TORSDOF 6
ENDMDL