MODEL 3
REMARK VINA RESULT: -8.601136054      2.408      2.950
REMARK  5 active torsions:
REMARK  status: ('A' for Active; 'I' for Inactive)
REMARK    1  A    between atoms: C4_4  and  C5_5
REMARK    2  A    between atoms: C5_5  and  C6_6
REMARK    3  A    between atoms: N2_15  and  C13_16
REMARK    4  A    between atoms: C13_16  and  C14_17
REMARK    5  A    between atoms: C14_17  and  C15_18
ROOT
HETATM    1  C6  UNL     1      45.267  30.167  30.755  1.00  0.00     0.207 C
HETATM    2  C7  UNL     1      45.367  31.395  29.939  1.00  0.00     0.147 C
HETATM    3  N1  UNL     1      45.074  32.611  30.661  1.00  0.00    -0.419 N
ATOM      4  H1  UNL     1      45.589  33.477  30.500  1.00  0.00     0.153 HD
HETATM    5  C8  UNL     1      44.017  32.519  31.614  1.00  0.00     0.114 C
HETATM    6  C9  UNL     1      42.761  31.909  31.107  1.00  0.00     0.030 C
HETATM    7  C10 UNL     1      42.271  30.714  31.890  1.00  0.00    -0.012 C
HETATM    8  C11 UNL     1      42.262  30.946  33.365  1.00  0.00     0.031 C
HETATM    9  C12 UNL     1      41.245  29.955  33.956  1.00  0.00     0.122 C
HETATM   10  N2  UNL     1      39.973  30.522  33.683  1.00  0.00    -0.393 N
HETATM   11  C18 UNL     1      39.782  30.838  32.317  1.00  0.00     0.122 C
HETATM   12  C19 UNL     1      40.894  30.381  31.412  1.00  0.00     0.031 C
HETATM   13  C20 UNL     1      43.134  29.483  31.649  1.00  0.00     0.242 C
HETATM   14  N3  UNL     1      43.963  29.575  30.489  1.00  0.00    -0.068 N
ATOM     15  H31 UNL     1      44.064  28.663  30.044  1.00  0.00     0.277 HD
ATOM     16  H32 UNL     1      43.484  30.077  29.741  1.00  0.00     0.277 HD
ENDROOT
BRANCH  10  17
HETATM   17  C13 UNL     1      38.916  29.929  34.397  1.00  0.00     0.058 C
BRANCH  17  18
HETATM   18  C14 UNL     1      39.429  28.754  35.200  1.00  0.00     0.049 C
BRANCH  18  19
HETATM   19  C15 UNL     1      38.317  28.040  35.932  1.00  0.00    -0.010 A
HETATM   20  C16 UNL     1      38.444  27.605  37.331  1.00  0.00     0.005 A
HETATM   21  C17 UNL     1      38.541  26.553  36.297  1.00  0.00     0.005 A
ENDBRANCH  18  19
ENDBRANCH  17  18
ENDBRANCH  10  17
BRANCH   1  22
HETATM   22  C5  UNL     1      46.304  29.110  30.516  1.00  0.00     0.073 C
BRANCH  22  23
HETATM   23  C4  UNL     1      46.606  28.255  31.667  1.00  0.00    -0.056 A
HETATM   24  C3  UNL     1      46.348  28.616  32.971  1.00  0.00     0.007 A
HETATM   25  C2  UNL     1      46.637  27.770  34.020  1.00  0.00     0.001 A
HETATM   26  C1  UNL     1      47.196  26.535  33.784  1.00  0.00     0.000 A
HETATM   27  C22 UNL     1      47.456  26.166  32.493  1.00  0.00     0.001 A
HETATM   28  C21 UNL     1      47.164  27.014  31.457  1.00  0.00     0.007 A
ENDBRANCH  22  23
ENDBRANCH   1  22
TORSDOF 5
ENDMDL