MODEL 3
REMARK VINA RESULT: -7.479183756      0.982      1.795
REMARK  6 active torsions:
REMARK  status: ('A' for Active; 'I' for Inactive)
REMARK    1  A    between atoms: C2_3  and  N2_4
REMARK       I    between atoms: N2_4  and  C3_6
REMARK    2  A    between atoms: C3_6  and  C4_8
REMARK    3  A    between atoms: C4_8  and  C5_9
REMARK    4  A    between atoms: C5_9  and  C6_10
REMARK    5  A    between atoms: C6_10  and  N3_11
REMARK       I    between atoms: N3_11  and  C7_13
REMARK    6  A    between atoms: C7_13  and  C8_15
ROOT
HETATM    1  N1  UNL     1      49.716  30.025  29.415  1.00  0.00    -0.195 NA
HETATM    2  C1  UNL     1      48.660  30.407  29.705  1.00  0.00     0.091 C
HETATM    3  C2  UNL     1      47.320  30.871  30.061  1.00  0.00     0.122 C
HETATM    4  C18 UNL     1      46.501  31.138  28.808  1.00  0.00     0.047 C
HETATM    5  C19 UNL     1      45.330  30.475  29.520  1.00  0.00     0.007 C
HETATM    6  C20 UNL     1      46.347  29.738  30.367  1.00  0.00     0.047 C
ENDROOT
BRANCH   3   7
HETATM    7  N2  UNL     1      47.283  31.885  31.054  1.00  0.00    -0.339 N
HETATM    8  C3  UNL     1      47.907  33.139  30.829  1.00  0.00     0.219 C
HETATM    9  O1  UNL     1      48.488  33.317  29.734  1.00  0.00    -0.274 OA
ATOM     10  H2  UNL     1      46.802  31.710  31.937  1.00  0.00     0.164 HD
BRANCH   8  11
HETATM   11  C4  UNL     1      47.893  34.222  31.833  1.00  0.00     0.104 C
BRANCH  11  12
HETATM   12  C5  UNL     1      47.181  33.909  33.105  1.00  0.00     0.029 C
BRANCH  12  13
HETATM   13  C6  UNL     1      45.851  34.561  33.222  1.00  0.00     0.123 C
BRANCH  13  14
HETATM   14  N3  UNL     1      44.755  33.606  33.316  1.00  0.00    -0.360 N
HETATM   15  C7  UNL     1      44.116  33.041  32.183  1.00  0.00     0.226 C
HETATM   16  O2  UNL     1      44.463  33.336  30.999  1.00  0.00    -0.273 OA
ATOM     17  H3  UNL     1      44.431  33.330  34.243  1.00  0.00     0.162 HD
BRANCH  15  18
HETATM   18  C8  UNL     1      43.009  32.076  32.350  1.00  0.00     0.042 C
HETATM   19  C9  UNL     1      42.056  32.550  33.393  1.00  0.00     0.024 C
HETATM   20  C10 UNL     1      40.985  31.533  33.669  1.00  0.00    -0.013 C
HETATM   21  C11 UNL     1      40.180  31.355  32.407  1.00  0.00     0.009 C
HETATM   22  C15 UNL     1      41.647  30.248  34.087  1.00  0.00     0.009 C
HETATM   23  C12 UNL     1      41.117  30.939  31.311  1.00  0.00    -0.013 C
HETATM   24  C13 UNL     1      41.660  29.565  31.685  1.00  0.00     0.009 C
HETATM   25  C17 UNL     1      42.217  31.922  31.052  1.00  0.00     0.024 C
HETATM   26  C14 UNL     1      42.473  29.733  32.932  1.00  0.00    -0.013 C
HETATM   27  C16 UNL     1      43.578  30.704  32.655  1.00  0.00     0.024 C
ENDBRANCH  15  18
ENDBRANCH  13  14
ENDBRANCH  12  13
ENDBRANCH  11  12
ENDBRANCH   8  11
ENDBRANCH   3   7
TORSDOF 6
ENDMDL