MODEL 2
REMARK VINA RESULT: -7.270313087      1.997      6.555
REMARK  7 active torsions:
REMARK  status: ('A' for Active; 'I' for Inactive)
REMARK    1  A    between atoms: C2_2  and  C3_3
REMARK    2  A    between atoms: C3_3  and  C4_4
REMARK    3  A    between atoms: C4_4  and  N1_5
REMARK    4  A    between atoms: C12_13  and  C13_14
REMARK    5  A    between atoms: C13_14  and  C14_15
REMARK    6  A    between atoms: C14_15  and  N2_16
REMARK    7  A    between atoms: N2_16  and  C15_19
ROOT
HETATM    1  N1  UNL     1      40.705  29.788  33.655  1.00  0.00    -0.373 N
HETATM    2  C5  UNL     1      39.866  30.915  33.586  1.00  0.00     0.068 C
HETATM    3  C6  UNL     1      39.622  31.553  32.270  1.00  0.00     0.029 C
HETATM    4  C7  UNL     1      39.264  30.634  31.150  1.00  0.00     0.021 C
HETATM    5  C8  UNL     1      40.529  30.768  30.269  1.00  0.00     0.033 C
HETATM    6  C9  UNL     1      40.656  32.273  30.298  1.00  0.00     0.016 C
HETATM    7  C10 UNL     1      40.659  32.528  31.803  1.00  0.00    -0.004 C
HETATM    8  C11 UNL     1      42.055  32.270  32.306  1.00  0.00     0.022 C
HETATM    9  C12 UNL     1      42.602  30.957  31.857  1.00  0.00     0.017 C
HETATM   10  C18 UNL     1      41.594  30.158  31.115  1.00  0.00     0.004 C
HETATM   11  N3  UNL     1      41.818  28.917  31.337  1.00  0.00    -0.333 N
ATOM     12  H3  UNL     1      41.266  28.160  30.935  1.00  0.00     0.168 HD
HETATM   13  C19 UNL     1      42.925  28.714  32.208  1.00  0.00     0.232 C
HETATM   14  O1  UNL     1      43.642  27.701  32.300  1.00  0.00    -0.272 OA
HETATM   15  C20 UNL     1      42.999  30.018  32.969  1.00  0.00     0.131 C
HETATM   16  C21 UNL     1      42.028  29.923  34.106  1.00  0.00     0.078 C
ENDROOT
BRANCH   9  17
HETATM   17  C13 UNL     1      43.819  31.087  30.962  1.00  0.00     0.044 C
BRANCH  17  18
HETATM   18  C14 UNL     1      44.307  32.486  30.793  1.00  0.00     0.233 C
BRANCH  18  19
HETATM   19  N2  UNL     1      45.612  32.546  31.471  1.00  0.00    -0.072 N
ATOM     20  H22 UNL     1      45.994  31.621  31.667  1.00  0.00     0.277 HD
ATOM     21  H21 UNL     1      46.357  32.878  30.857  1.00  0.00     0.277 HD
BRANCH  19  22
HETATM   22  C15 UNL     1      45.473  33.359  32.670  1.00  0.00     0.177 C
HETATM   23  C16 UNL     1      44.918  34.711  32.360  1.00  0.00     0.039 C
HETATM   24  C17 UNL     1      46.863  33.556  33.253  1.00  0.00     0.039 C
ENDBRANCH  19  22
ENDBRANCH  18  19
ENDBRANCH  17  18
ENDBRANCH   9  17
BRANCH   1  25
HETATM   25  C4  UNL     1      40.103  28.550  34.044  1.00  0.00     0.127 C
BRANCH  25  26
HETATM   26  C3  UNL     1      39.091  28.601  35.131  1.00  0.00     0.020 C
BRANCH  26  27
HETATM   27  C2  UNL     1      38.832  27.314  35.860  1.00  0.00    -0.003 C
HETATM   28  C1  UNL     1      38.418  27.652  37.304  1.00  0.00     0.005 C
ENDBRANCH  26  27
ENDBRANCH  25  26
ENDBRANCH   1  25
TORSDOF 7
ENDMDL