MODEL 3
REMARK VINA RESULT: -8.852177112      0.952      1.239
REMARK  13 active torsions:
REMARK  status: ('A' for Active; 'I' for Inactive)
REMARK    1  A    between atoms: C1_2  and  C2_3
REMARK    2  A    between atoms: C2_3  and  C3_4
REMARK    3  A    between atoms: C3_4  and  N1_5
REMARK       I    between atoms: C4_7  and  N2_8
REMARK       I    between atoms: C4_7  and  N4_23
REMARK    4  A    between atoms: N2_8  and  C5_10
REMARK    5  A    between atoms: C5_10  and  C6_11
REMARK    6  A    between atoms: C6_11  and  C7_12
REMARK    7  A    between atoms: C7_12  and  C8_13
REMARK    8  A    between atoms: C8_13  and  C9_14
REMARK    9  A    between atoms: C9_14  and  C10_15
REMARK   10  A    between atoms: C10_15  and  C11_16
REMARK   11  A    between atoms: C11_16  and  C12_17
REMARK   12  A    between atoms: C12_17  and  N3_18
REMARK   13  A    between atoms: N4_23  and  C17_25
ROOT
HETATM    1  N1  UNL     1      40.829  17.614  -7.789  1.00  0.00    -0.226 N
ATOM      2  H1  UNL     1      41.829  17.594  -7.986  1.00  0.00     0.177 HD
HETATM    3  C4  UNL     1      40.444  16.731  -6.975  1.00  0.00     0.674 C
HETATM    4  N2  UNL     1      41.377  15.840  -6.437  1.00  0.00    -0.226 N
ATOM      5  H2  UNL     1      41.548  15.882  -5.433  1.00  0.00     0.177 HD
HETATM    6  N4  UNL     1      39.096  16.636  -6.592  1.00  0.00    -0.189 N
ATOM      7  H4  UNL     1      38.421  17.166  -7.141  1.00  0.00     0.184 HD
ENDROOT
BRANCH   1   8
HETATM    8  C3  UNL     1      40.125  18.626  -8.477  1.00  0.00     0.139 C
BRANCH   8   9
HETATM    9  C2  UNL     1      40.161  18.524  -9.981  1.00  0.00     0.035 C
BRANCH   9  10
HETATM   10  C1  UNL     1      38.781  18.518 -10.589  1.00  0.00     0.116 C
HETATM   11 CL1  UNL     1      37.666  17.442  -9.768  1.00  0.00    -0.130 Cl
ENDBRANCH   9  10
ENDBRANCH   8   9
ENDBRANCH   1   8
BRANCH   4  12
HETATM   12  C5  UNL     1      42.105  14.876  -7.198  1.00  0.00     0.138 C
BRANCH  12  13
HETATM   13  C6  UNL     1      42.936  13.955  -6.376  1.00  0.00     0.020 C
BRANCH  13  14
HETATM   14  C7  UNL     1      43.275  14.462  -5.000  1.00  0.00     0.002 C
BRANCH  14  15
HETATM   15  C8  UNL     1      44.667  14.982  -4.923  1.00  0.00     0.000 C
BRANCH  15  16
HETATM   16  C9  UNL     1      44.885  15.905  -3.743  1.00  0.00     0.000 C
BRANCH  16  17
HETATM   17  C10 UNL     1      45.116  17.327  -4.108  1.00  0.00     0.002 C
BRANCH  17  18
HETATM   18  C11 UNL     1      46.393  17.864  -3.517  1.00  0.00     0.030 C
BRANCH  18  19
HETATM   19  C12 UNL     1      47.540  17.764  -4.495  1.00  0.00     0.272 C
BRANCH  19  20
HETATM   20  N3  UNL     1      48.584  16.906  -4.047  1.00  0.00     0.088 N
HETATM   21  C13 UNL     1      48.706  16.913  -2.623  1.00  0.00     0.272 C
HETATM   22  C14 UNL     1      49.153  15.512  -2.235  1.00  0.00     0.032 C
HETATM   23  C15 UNL     1      48.454  14.696  -3.301  1.00  0.00     0.032 C
HETATM   24  C16 UNL     1      48.574  15.572  -4.523  1.00  0.00     0.272 C
ENDBRANCH  19  20
ENDBRANCH  18  19
ENDBRANCH  17  18
ENDBRANCH  16  17
ENDBRANCH  15  16
ENDBRANCH  14  15
ENDBRANCH  13  14
ENDBRANCH  12  13
ENDBRANCH   4  12
BRANCH   6  25
HETATM   25  C17 UNL     1      38.593  15.878  -5.520  1.00  0.00     0.088 A
HETATM   26  C18 UNL     1      38.372  14.526  -5.656  1.00  0.00     0.064 A
HETATM   27 CL2  UNL     1      38.743  13.814  -7.209  1.00  0.00    -0.082 Cl
HETATM   28  C19 UNL     1      37.876  13.760  -4.598  1.00  0.00     0.045 A
HETATM   29  C20 UNL     1      37.596  14.356  -3.385  1.00  0.00     0.014 A
HETATM   30 BR1  UNL     1      36.916  13.263  -1.966  1.00  0.00    -0.051 Br
HETATM   31  C21 UNL     1      37.813  15.704  -3.241  1.00  0.00     0.040 A
HETATM   32  C22 UNL     1      38.311  16.461  -4.309  1.00  0.00     0.041 A
HETATM   33 BR2  UNL     1      38.609  18.326  -4.043  1.00  0.00    -0.049 Br
ENDBRANCH   6  25
TORSDOF 13
ENDMDL