MODEL 5
REMARK VINA RESULT: -8.022765537      1.376      1.703
REMARK  14 active torsions:
REMARK  status: ('A' for Active; 'I' for Inactive)
REMARK    1  A    between atoms: C2_2  and  N1_3
REMARK    2  A    between atoms: C6_8  and  N2_9
REMARK       I    between atoms: N2_9  and  C7_11
REMARK    3  A    between atoms: C7_11  and  C8_13
REMARK    4  A    between atoms: C8_13  and  C9_14
REMARK    5  A    between atoms: C9_14  and  C10_15
REMARK    6  A    between atoms: C10_15  and  C11_16
REMARK    7  A    between atoms: C11_16  and  C12_17
REMARK    8  A    between atoms: C12_17  and  C13_18
REMARK    9  A    between atoms: C13_18  and  C14_19
REMARK       I    between atoms: C14_19  and  N3_21
REMARK   10  A    between atoms: N3_21  and  C15_23
REMARK   11  A    between atoms: C15_23  and  C16_24
REMARK   12  A    between atoms: C19_28  and  N4_29
REMARK   13  A    between atoms: N4_29  and  C22_32
REMARK   14  A    between atoms: C22_32  and  C23_33
ROOT
HETATM    1  C13 UNL     1      43.953  16.429  -4.621  1.00  0.00     0.103 C
ENDROOT
BRANCH   1   2
HETATM    2  C12 UNL     1      45.006  15.951  -3.671  1.00  0.00     0.009 C
BRANCH   2   3
HETATM    3  C11 UNL     1      46.374  16.223  -4.166  1.00  0.00     0.000 C
BRANCH   3   4
HETATM    4  C10 UNL     1      47.346  15.125  -4.047  1.00  0.00     0.000 C
BRANCH   4   5
HETATM    5  C9  UNL     1      48.757  15.392  -4.281  1.00  0.00     0.009 C
BRANCH   5   6
HETATM    6  C8  UNL     1      49.541  16.094  -3.254  1.00  0.00     0.103 C
BRANCH   6   7
HETATM    7  C7  UNL     1      50.973  16.301  -3.776  1.00  0.00     0.222 C
HETATM    8  N2  UNL     1      51.986  16.137  -2.816  1.00  0.00    -0.326 N
ATOM      9  H2  UNL     1      51.702  15.904  -1.864  1.00  0.00     0.169 HD
HETATM   10  O1  UNL     1      51.101  16.585  -4.966  1.00  0.00    -0.273 OA
BRANCH   8  11
HETATM   11  C6  UNL     1      53.358  16.270  -3.071  1.00  0.00     0.052 A
HETATM   12  C5  UNL     1      54.196  15.209  -3.215  1.00  0.00     0.056 A
HETATM   13  C4  UNL     1      55.551  15.402  -3.486  1.00  0.00     0.051 A
HETATM   14  C3  UNL     1      56.038  16.674  -3.608  1.00  0.00     0.114 A
HETATM   15 CL1  UNL     1      56.609  14.008  -3.668  1.00  0.00    -0.083 Cl
HETATM   16  N1  UNL     1      55.206  17.717  -3.465  1.00  0.00    -0.363 N
HETATM   17  C26 UNL     1      53.906  17.551  -3.205  1.00  0.00     0.119 A
BRANCH  16  18
HETATM   18  C2  UNL     1      55.691  19.098  -3.585  1.00  0.00     0.123 C
HETATM   19  C1  UNL     1      55.822  19.449  -5.035  1.00  0.00     0.027 C
ENDBRANCH  16  18
ENDBRANCH   8  11
ENDBRANCH   6   7
ENDBRANCH   5   6
ENDBRANCH   4   5
ENDBRANCH   3   4
ENDBRANCH   2   3
ENDBRANCH   1   2
BRANCH   1  20
HETATM   20  C14 UNL     1      42.796  15.456  -4.616  1.00  0.00     0.218 C
HETATM   21  O2  UNL     1      43.104  14.254  -4.599  1.00  0.00    -0.274 OA
HETATM   22  N3  UNL     1      41.483  15.937  -4.630  1.00  0.00    -0.349 N
ATOM     23  H3  UNL     1      41.407  16.954  -4.626  1.00  0.00     0.163 HD
BRANCH  22  24
HETATM   24  C15 UNL     1      40.226  15.251  -4.648  1.00  0.00     0.062 C
HETATM   25  C17 UNL     1      39.941  14.886  -3.192  1.00  0.00     0.036 C
HETATM   26  C18 UNL     1      38.533  14.491  -2.926  1.00  0.00     0.036 C
HETATM   27  C19 UNL     1      37.516  15.322  -3.624  1.00  0.00     0.191 C
HETATM   28  C24 UNL     1      37.817  15.594  -5.061  1.00  0.00     0.056 C
HETATM   29  C25 UNL     1      39.176  16.209  -5.174  1.00  0.00     0.113 C
HETATM   30 CL4  UNL     1      39.173  17.723  -4.243  1.00  0.00    -0.122 Cl
BRANCH  24  31
HETATM   31  C16 UNL     1      40.230  14.036  -5.479  1.00  0.00     0.147 C
HETATM   32 CL2  UNL     1      40.414  14.346  -7.194  1.00  0.00    -0.128 Cl
ENDBRANCH  24  31
BRANCH  27  33
HETATM   33  N4  UNL     1      36.198  14.720  -3.512  1.00  0.00    -0.069 N
HETATM   34  C20 UNL     1      36.198  13.799  -2.385  1.00  0.00     0.272 C
HETATM   35  C21 UNL     1      35.168  15.700  -3.228  1.00  0.00     0.272 C
BRANCH  33  36
HETATM   36  C22 UNL     1      35.982  13.969  -4.708  1.00  0.00     0.252 C
BRANCH  36  37
HETATM   37  C23 UNL     1      36.086  12.485  -4.569  1.00  0.00     0.142 C
HETATM   38 CL3  UNL     1      37.450  11.803  -5.474  1.00  0.00    -0.129 Cl
ENDBRANCH  36  37
ENDBRANCH  33  36
ENDBRANCH  27  33
ENDBRANCH  22  24
ENDBRANCH   1  20
TORSDOF 14
ENDMDL