MODEL 2
REMARK VINA RESULT: -10.537562227      0.757      1.345
REMARK  14 active torsions:
REMARK  status: ('A' for Active; 'I' for Inactive)
REMARK    1  A    between atoms: N1_2  and  C2_3
REMARK    2  A    between atoms: C2_3  and  C3_4
REMARK       I    between atoms: C3_4  and  N2_6
REMARK    3  A    between atoms: N2_6  and  C4_8
REMARK    4  A    between atoms: C7_12  and  C8_13
REMARK       I    between atoms: C8_13  and  N3_15
REMARK    5  A    between atoms: N3_15  and  C9_17
REMARK    6  A    between atoms: C9_17  and  C10_18
REMARK    7  A    between atoms: C10_18  and  C11_19
REMARK    8  A    between atoms: C11_19  and  C12_20
REMARK    9  A    between atoms: C12_20  and  C13_21
REMARK   10  A    between atoms: C13_21  and  C14_22
REMARK   11  A    between atoms: C14_22  and  C15_23
REMARK   12  A    between atoms: C15_23  and  C16_24
REMARK   13  A    between atoms: C16_24  and  N4_25
REMARK   14  A    between atoms: N4_25  and  C19_28
ROOT
HETATM    1  C8  UNL     1      45.279  16.850  -4.185  1.00  0.00     0.254 C
HETATM    2  O2  UNL     1      44.938  18.056  -4.296  1.00  0.00    -0.268 OA
HETATM    3  N3  UNL     1      44.379  15.814  -4.384  1.00  0.00    -0.357 N
ATOM      4  H3  UNL     1      44.761  14.870  -4.322  1.00  0.00     0.162 HD
ENDROOT
BRANCH   1   5
HETATM    5  C7  UNL     1      46.706  16.603  -3.830  1.00  0.00     0.073 A
HETATM    6  C6  UNL     1      47.380  15.455  -4.105  1.00  0.00     0.134 A
HETATM    7  C5  UNL     1      48.717  15.271  -3.805  1.00  0.00     0.076 A
HETATM    8  F1  UNL     1      46.673  14.417  -4.681  1.00  0.00    -0.205 F
HETATM    9  C4  UNL     1      49.436  16.254  -3.206  1.00  0.00     0.076 A
HETATM   10  C25 UNL     1      48.752  17.445  -2.915  1.00  0.00     0.144 A
HETATM   11  C24 UNL     1      47.424  17.622  -3.216  1.00  0.00     0.065 A
HETATM   12  F4  UNL     1      49.419  18.484  -2.307  1.00  0.00    -0.204 F
BRANCH   9  13
HETATM   13  N2  UNL     1      50.807  16.182  -2.873  1.00  0.00    -0.320 N
HETATM   14  C3  UNL     1      51.925  16.359  -3.697  1.00  0.00     0.269 C
HETATM   15  O1  UNL     1      51.671  16.617  -4.939  1.00  0.00    -0.267 OA
ATOM     16  H2  UNL     1      51.011  15.971  -1.896  1.00  0.00     0.169 HD
BRANCH  14  17
HETATM   17  C2  UNL     1      53.321  16.296  -3.370  1.00  0.00     0.276 C
BRANCH  17  18
HETATM   18  N1  UNL     1      54.268  17.202  -3.951  1.00  0.00    -0.046 N
HETATM   19  C1  UNL     1      55.528  16.366  -3.870  1.00  0.00     0.278 C
HETATM   20  C26 UNL     1      54.588  18.333  -3.191  1.00  0.00     0.243 C
HETATM   21  C27 UNL     1      54.950  19.614  -3.778  1.00  0.00     0.028 C
HETATM   22  C28 UNL     1      56.028  19.599  -4.839  1.00  0.00     0.002 C
HETATM   23  C29 UNL     1      55.599  19.034  -6.146  1.00  0.00     0.002 C
HETATM   24  C30 UNL     1      54.184  18.579  -6.051  1.00  0.00     0.028 C
HETATM   25  C31 UNL     1      54.061  17.300  -5.344  1.00  0.00     0.243 C
ENDBRANCH  17  18
ENDBRANCH  14  17
ENDBRANCH   9  13
ENDBRANCH   1   5
BRANCH   3  26
HETATM   26  C9  UNL     1      42.997  15.907  -4.661  1.00  0.00     0.123 C
BRANCH  26  27
HETATM   27  C10 UNL     1      42.233  14.682  -4.936  1.00  0.00     0.020 C
BRANCH  27  28
HETATM   28  C11 UNL     1      42.414  14.009  -6.225  1.00  0.00     0.002 C
BRANCH  28  29
HETATM   29  C12 UNL     1      41.516  14.680  -7.292  1.00  0.00     0.000 C
BRANCH  29  30
HETATM   30  C13 UNL     1      40.081  14.326  -7.173  1.00  0.00     0.000 C
BRANCH  30  31
HETATM   31  C14 UNL     1      39.174  15.512  -7.122  1.00  0.00     0.002 C
BRANCH  31  32
HETATM   32  C15 UNL     1      38.655  15.841  -5.742  1.00  0.00     0.028 C
BRANCH  32  33
HETATM   33  C16 UNL     1      37.923  14.595  -5.271  1.00  0.00     0.237 C
BRANCH  33  34
HETATM   34  N4  UNL     1      38.157  14.251  -3.910  1.00  0.00    -0.070 N
HETATM   35  C17 UNL     1      39.001  13.063  -3.910  1.00  0.00     0.272 C
HETATM   36  C18 UNL     1      38.917  15.297  -3.248  1.00  0.00     0.272 C
BRANCH  34  37
HETATM   37  C19 UNL     1      36.927  14.063  -3.187  1.00  0.00     0.195 C
HETATM   38  C20 UNL     1      35.956  13.189  -3.952  1.00  0.00     0.039 C
HETATM   39  C21 UNL     1      34.780  14.101  -4.265  1.00  0.00     0.081 C
HETATM   40  C22 UNL     1      34.745  14.992  -3.019  1.00  0.00     0.245 C
HETATM   41  F2  UNL     1      34.014  16.135  -3.254  1.00  0.00    -0.206 F
HETATM   42  F3  UNL     1      34.248  14.340  -1.929  1.00  0.00    -0.206 F
HETATM   43  C23 UNL     1      36.214  15.348  -2.893  1.00  0.00     0.112 C
ENDBRANCH  34  37
ENDBRANCH  33  34
ENDBRANCH  32  33
ENDBRANCH  31  32
ENDBRANCH  30  31
ENDBRANCH  29  30
ENDBRANCH  28  29
ENDBRANCH  27  28
ENDBRANCH  26  27
ENDBRANCH   3  26
TORSDOF 14
ENDMDL