MODEL 1
REMARK VINA RESULT: -7.835035604      0.000      0.000
REMARK  14 active torsions:
REMARK  status: ('A' for Active; 'I' for Inactive)
REMARK    1  A    between atoms: C5_10  and  C6_11
REMARK    2  A    between atoms: C6_11  and  C7_12
REMARK    3  A    between atoms: C7_12  and  C8_13
REMARK    4  A    between atoms: C8_13  and  C9_14
REMARK    5  A    between atoms: C9_14  and  C10_15
REMARK    6  A    between atoms: C10_15  and  C11_16
REMARK    7  A    between atoms: C11_16  and  N3_17
REMARK    8  A    between atoms: N3_17  and  C14_20
REMARK    9  A    between atoms: C14_20  and  C15_21
REMARK   10  A    between atoms: C15_21  and  C16_22
REMARK   11  A    between atoms: C16_22  and  C17_23
REMARK   12  A    between atoms: C17_23  and  C18_24
REMARK   13  A    between atoms: C18_24  and  N4_25
REMARK   14  A    between atoms: C26_36  and  O2_37
ROOT
HETATM    1  C1  UNL     1      35.101  14.734  -2.307  1.00  0.00     0.155 C
HETATM    2  N1  UNL     1      36.334  14.569  -3.060  1.00  0.00    -0.323 N
HETATM    3  C2  UNL     1      36.405  13.518  -3.998  1.00  0.00     0.259 C
HETATM    4  O1  UNL     1      35.650  12.551  -3.761  1.00  0.00    -0.270 OA
HETATM    5  C3  UNL     1      37.225  13.361  -5.224  1.00  0.00     0.272 C
HETATM    6 CL1  UNL     1      38.689  12.416  -4.958  1.00  0.00    -0.092 Cl
HETATM    7  N2  UNL     1      37.563  14.660  -5.795  1.00  0.00    -0.364 N
ATOM      8  H2  UNL     1      37.433  14.718  -6.805  1.00  0.00     0.161 HD
HETATM    9  C4  UNL     1      38.034  15.849  -5.209  1.00  0.00     0.050 A
HETATM   10  C5  UNL     1      38.642  16.667  -6.167  1.00  0.00    -0.007 A
HETATM   11  C22 UNL     1      39.141  17.880  -5.672  1.00  0.00     0.066 A
HETATM   12 CL2  UNL     1      39.912  18.946  -6.827  1.00  0.00    -0.082 Cl
HETATM   13  C23 UNL     1      39.057  18.257  -4.372  1.00  0.00     0.078 A
HETATM   14 CL3  UNL     1      39.722  19.800  -3.882  1.00  0.00    -0.081 Cl
HETATM   15  C24 UNL     1      38.463  17.447  -3.459  1.00  0.00     0.070 A
HETATM   16 CL4  UNL     1      38.323  17.876  -1.764  1.00  0.00    -0.082 Cl
HETATM   17  C25 UNL     1      37.947  16.226  -3.891  1.00  0.00     0.041 A
HETATM   18  C26 UNL     1      37.361  15.507  -2.761  1.00  0.00     0.260 C
ENDROOT
BRANCH  10  19
HETATM   19  C6  UNL     1      38.741  16.270  -7.574  1.00  0.00     0.043 C
BRANCH  19  20
HETATM   20  C7  UNL     1      40.110  15.864  -8.010  1.00  0.00     0.005 C
BRANCH  20  21
HETATM   21  C8  UNL     1      40.477  14.557  -7.352  1.00  0.00     0.000 C
BRANCH  21  22
HETATM   22  C9  UNL     1      41.926  14.177  -7.578  1.00  0.00     0.002 C
BRANCH  22  23
HETATM   23  C10 UNL     1      42.599  13.808  -6.303  1.00  0.00     0.028 C
BRANCH  23  24
HETATM   24  C11 UNL     1      43.483  14.802  -5.669  1.00  0.00     0.236 C
BRANCH  24  25
HETATM   25  N3  UNL     1      42.955  15.831  -4.882  1.00  0.00    -0.075 N
HETATM   26  C12 UNL     1      41.809  15.390  -4.096  1.00  0.00     0.272 C
HETATM   27  C13 UNL     1      42.615  17.075  -5.499  1.00  0.00     0.272 C
BRANCH  25  28
HETATM   28  C14 UNL     1      43.979  16.170  -3.868  1.00  0.00     0.236 C
BRANCH  28  29
HETATM   29  C15 UNL     1      44.281  17.650  -3.908  1.00  0.00     0.028 C
BRANCH  29  30
HETATM   30  C16 UNL     1      45.772  17.903  -3.915  1.00  0.00     0.003 C
BRANCH  30  31
HETATM   31  C17 UNL     1      46.605  16.667  -3.873  1.00  0.00     0.028 C
BRANCH  31  32
HETATM   32  C18 UNL     1      48.075  16.963  -3.732  1.00  0.00     0.236 C
BRANCH  32  33
HETATM   33  N4  UNL     1      48.865  15.748  -3.654  1.00  0.00    -0.079 N
HETATM   34  C19 UNL     1      48.203  14.604  -4.198  1.00  0.00     0.271 C
HETATM   35  C20 UNL     1      49.197  15.570  -2.240  1.00  0.00     0.271 C
HETATM   36  C21 UNL     1      50.089  15.978  -4.375  1.00  0.00     0.271 C
ENDBRANCH  32  33
ENDBRANCH  31  32
ENDBRANCH  30  31
ENDBRANCH  29  30
ENDBRANCH  28  29
ENDBRANCH  25  28
ENDBRANCH  24  25
ENDBRANCH  23  24
ENDBRANCH  22  23
ENDBRANCH  21  22
ENDBRANCH  20  21
ENDBRANCH  19  20
ENDBRANCH  10  19
BRANCH  18  37
HETATM   37  O2  UNL     1      38.351  14.862  -1.982  1.00  0.00    -0.372 OA
ATOM     38  H2  UNL     1      38.380  15.273  -1.126  1.00  0.00     0.212 HD
ENDBRANCH  18  37
TORSDOF 14
ENDMDL