MODEL 2
REMARK VINA RESULT: -9.064059298      8.866     12.425
REMARK  14 active torsions:
REMARK  status: ('A' for Active; 'I' for Inactive)
REMARK    1  A    between atoms: C2_2  and  C4_4
REMARK    2  A    between atoms: C4_4  and  C5_5
REMARK    3  A    between atoms: C5_5  and  C7_8
REMARK       I    between atoms: C7_8  and  N1_10
REMARK       I    between atoms: N1_10  and  C9_12
REMARK    4  A    between atoms: N3_14  and  C10_16
REMARK    5  A    between atoms: C10_16  and  C11_17
REMARK    6  A    between atoms: C11_17  and  C12_18
REMARK    7  A    between atoms: C12_18  and  C13_19
REMARK    8  A    between atoms: C13_19  and  C14_20
REMARK    9  A    between atoms: C14_20  and  C15_21
REMARK   10  A    between atoms: C15_21  and  N4_22
REMARK       I    between atoms: N4_22  and  C16_24
REMARK   11  A    between atoms: C16_24  and  C17_26
REMARK   12  A    between atoms: C17_26  and  C18_27
REMARK   13  A    between atoms: C18_27  and  C19_28
REMARK   14  A    between atoms: C23_32  and  C24_33
ROOT
HETATM    1  C13 UNL     1      43.597  16.183  -4.116  1.00  0.00     0.002 C
ENDROOT
BRANCH   1   2
HETATM    2  C12 UNL     1      44.098  15.128  -5.043  1.00  0.00     0.002 C
BRANCH   2   3
HETATM    3  C11 UNL     1      43.107  14.000  -5.151  1.00  0.00     0.020 C
BRANCH   3   4
HETATM    4  C10 UNL     1      42.730  13.758  -6.591  1.00  0.00     0.122 C
BRANCH   4   5
HETATM    5  N3  UNL     1      42.007  14.944  -7.042  1.00  0.00    -0.364 N
HETATM    6  C9  UNL     1      40.732  14.943  -6.975  1.00  0.00     0.192 C
HETATM    7  N1  UNL     1      39.910  16.058  -7.391  1.00  0.00    -0.295 N
HETATM    8  N2  UNL     1      40.073  13.798  -6.471  1.00  0.00    -0.063 NA
HETATM    9  C7  UNL     1      40.541  17.216  -7.899  1.00  0.00     0.245 C
HETATM   10  C8  UNL     1      38.490  15.866  -7.246  1.00  0.00     0.162 C
HETATM   11  O1  UNL     1      41.839  17.164  -7.938  1.00  0.00    -0.271 OA
ATOM     12  H3  UNL     1      42.509  15.755  -7.401  1.00  0.00     0.162 HD
BRANCH   9  13
HETATM   13  C5  UNL     1      39.892  18.458  -8.383  1.00  0.00     0.096 C
HETATM   14  C6  UNL     1      40.707  18.905  -9.592  1.00  0.00     0.038 C
HETATM   15 BR1  UNL     1      40.119  19.866  -7.063  1.00  0.00    -0.075 Br
BRANCH  13  16
HETATM   16  C4  UNL     1      38.465  18.199  -8.683  1.00  0.00     0.034 C
BRANCH  16  17
HETATM   17  C2  UNL     1      38.113  17.765 -10.063  1.00  0.00    -0.021 C
HETATM   18  C1  UNL     1      36.841  17.036 -10.261  1.00  0.00     0.009 C
HETATM   19  C3  UNL     1      38.056  19.053 -10.908  1.00  0.00     0.009 C
ENDBRANCH  16  17
ENDBRANCH  13  16
ENDBRANCH   9  13
ENDBRANCH   4   5
ENDBRANCH   3   4
ENDBRANCH   2   3
ENDBRANCH   1   2
BRANCH   1  20
HETATM   20  C14 UNL     1      43.135  17.393  -4.914  1.00  0.00     0.020 C
BRANCH  20  21
HETATM   21  C15 UNL     1      41.883  18.003  -4.396  1.00  0.00     0.122 C
BRANCH  21  22
HETATM   22  N4  UNL     1      40.811  17.062  -4.367  1.00  0.00    -0.361 N
HETATM   23  C16 UNL     1      39.495  17.416  -4.040  1.00  0.00     0.217 C
HETATM   24  O2  UNL     1      39.183  18.614  -3.755  1.00  0.00    -0.274 OA
ATOM     25  H4  UNL     1      41.012  16.088  -4.594  1.00  0.00     0.162 HD
BRANCH  23  26
HETATM   26  C17 UNL     1      38.389  16.415  -4.008  1.00  0.00     0.103 C
BRANCH  26  27
HETATM   27  C18 UNL     1      37.390  16.823  -2.951  1.00  0.00     0.014 C
BRANCH  27  28
HETATM   28  C19 UNL     1      36.826  15.573  -2.327  1.00  0.00    -0.014 C
HETATM   29  C20 UNL     1      35.408  15.364  -2.770  1.00  0.00     0.005 C
HETATM   30  C21 UNL     1      35.430  14.839  -4.174  1.00  0.00     0.001 C
HETATM   31  C22 UNL     1      35.214  13.349  -4.243  1.00  0.00     0.013 C
HETATM   32  C23 UNL     1      36.393  12.556  -3.776  1.00  0.00     0.093 C
HETATM   33  C25 UNL     1      37.093  13.080  -2.575  1.00  0.00     0.014 C
HETATM   34  C26 UNL     1      37.729  14.417  -2.698  1.00  0.00     0.005 C
BRANCH  32  35
HETATM   35  C24 UNL     1      37.325  12.180  -4.909  1.00  0.00     0.391 C
HETATM   36  F1  UNL     1      38.643  12.175  -4.425  1.00  0.00    -0.171 F
HETATM   37  F2  UNL     1      37.125  10.896  -5.376  1.00  0.00    -0.171 F
HETATM   38  F3  UNL     1      37.288  13.134  -5.903  1.00  0.00    -0.171 F
ENDBRANCH  32  35
ENDBRANCH  27  28
ENDBRANCH  26  27
ENDBRANCH  23  26
ENDBRANCH  21  22
ENDBRANCH  20  21
ENDBRANCH   1  20
TORSDOF 14
ENDMDL