MODEL 4
REMARK VINA RESULT: -8.778457926      1.102      1.272
REMARK  13 active torsions:
REMARK  status: ('A' for Active; 'I' for Inactive)
REMARK    1  A    between atoms: C1_2  and  C2_3
REMARK    2  A    between atoms: C2_3  and  C3_6
REMARK    3  A    between atoms: C3_6  and  C4_7
REMARK    4  A    between atoms: C4_7  and  C5_8
REMARK    5  A    between atoms: C5_8  and  C6_9
REMARK    6  A    between atoms: C6_9  and  C7_10
REMARK    7  A    between atoms: C7_10  and  C8_11
REMARK    8  A    between atoms: C8_11  and  C9_12
REMARK    9  A    between atoms: C9_12  and  C10_13
REMARK   10  A    between atoms: C10_13  and  C11_14
REMARK   11  A    between atoms: C12_15  and  C13_16
REMARK   12  A    between atoms: C15_20  and  C16_21
REMARK   13  A    between atoms: C16_21  and  C17_22
ROOT
HETATM    1  C13 UNL     1      41.578  17.707  -7.007  1.00  0.00     0.104 A
HETATM    2  N1  UNL     1      41.384  18.545  -5.919  1.00  0.00    -0.350 N
ATOM      3  H1  UNL     1      40.993  19.486  -5.960  1.00  0.00     0.166 HD
HETATM    4  C14 UNL     1      41.785  17.933  -4.825  1.00  0.00     0.115 A
HETATM    5  C15 UNL     1      42.253  16.691  -5.140  1.00  0.00     0.032 A
HETATM    6  N3  UNL     1      42.104  16.601  -6.497  1.00  0.00    -0.344 N
ATOM      7  H3  UNL     1      42.364  15.783  -7.049  1.00  0.00     0.167 HD
ENDROOT
BRANCH   1   8
HETATM    8  C12 UNL     1      41.257  18.110  -8.368  1.00  0.00     0.044 C
HETATM    9  C11 UNL     1      40.153  18.273  -8.950  1.00  0.00    -0.023 C
BRANCH   9  10
HETATM   10  C10 UNL     1      38.781  18.128  -8.495  1.00  0.00     0.027 C
BRANCH  10  11
HETATM   11  C9  UNL     1      38.431  16.675  -8.380  1.00  0.00     0.004 C
BRANCH  11  12
HETATM   12  C8  UNL     1      38.388  16.202  -6.968  1.00  0.00     0.000 C
BRANCH  12  13
HETATM   13  C7  UNL     1      39.056  14.884  -6.791  1.00  0.00     0.000 C
BRANCH  13  14
HETATM   14  C6  UNL     1      39.278  14.600  -5.337  1.00  0.00     0.000 C
BRANCH  14  15
HETATM   15  C5  UNL     1      38.868  15.721  -4.465  1.00  0.00     0.000 C
BRANCH  15  16
HETATM   16  C4  UNL     1      38.426  15.278  -3.111  1.00  0.00     0.004 C
BRANCH  16  17
HETATM   17  C3  UNL     1      36.912  15.335  -3.014  1.00  0.00     0.063 C
BRANCH  17  18
HETATM   18  C2  UNL     1      36.370  13.973  -2.613  1.00  0.00     0.212 C
HETATM   19  F1  UNL     1      37.303  13.332  -1.810  1.00  0.00    -0.223 F
HETATM   20 BR1  UNL     1      36.097  12.972  -4.256  1.00  0.00    -0.041 Br
BRANCH  18  21
HETATM   21  C1  UNL     1      35.082  14.154  -1.908  1.00  0.00     0.286 C
HETATM   22  O1  UNL     1      34.726  15.275  -1.539  1.00  0.00    -0.302 OA
ENDBRANCH  18  21
ENDBRANCH  17  18
ENDBRANCH  16  17
ENDBRANCH  15  16
ENDBRANCH  14  15
ENDBRANCH  13  14
ENDBRANCH  12  13
ENDBRANCH  11  12
ENDBRANCH  10  11
ENDBRANCH   9  10
ENDBRANCH   1   8
BRANCH   5  23
HETATM   23  C16 UNL     1      42.806  15.652  -4.227  1.00  0.00     0.115 C
BRANCH  23  24
HETATM   24  C17 UNL     1      44.281  15.929  -4.132  1.00  0.00     0.017 A
HETATM   25  C18 UNL     1      44.819  17.194  -3.920  1.00  0.00     0.047 A
HETATM   26  C19 UNL     1      46.173  17.035  -3.897  1.00  0.00     0.046 A
HETATM   27 BR2  UNL     1      47.472  18.429  -3.637  1.00  0.00    -0.048 Br
HETATM   28  C20 UNL     1      46.482  15.700  -4.091  1.00  0.00     0.097 A
HETATM   29 BR3  UNL     1      48.236  14.946  -4.145  1.00  0.00    -0.030 Br
HETATM   30  N2  UNL     1      45.295  15.084  -4.227  1.00  0.00    -0.352 N
ATOM     31  H2  UNL     1      45.188  14.082  -4.384  1.00  0.00     0.166 HD
ENDBRANCH  23  24
ENDBRANCH   5  23
TORSDOF 13
ENDMDL