MODEL 2
REMARK VINA RESULT: -8.783208021      1.561      2.048
REMARK  15 active torsions:
REMARK  status: ('A' for Active; 'I' for Inactive)
REMARK    1  A    between atoms: C2_2  and  N1_3
REMARK    2  A    between atoms: C2_2  and  N4_26
REMARK    3  A    between atoms: C3_5  and  C4_6
REMARK    4  A    between atoms: C4_6  and  C5_7
REMARK    5  A    between atoms: C5_7  and  C6_8
REMARK    6  A    between atoms: C6_8  and  C7_9
REMARK    7  A    between atoms: C7_9  and  C8_10
REMARK    8  A    between atoms: C8_10  and  C9_11
REMARK    9  A    between atoms: C9_11  and  N2_12
REMARK   10  A    between atoms: N2_12  and  C10_15
REMARK   11  A    between atoms: C10_15  and  C11_16
REMARK   12  A    between atoms: C11_16  and  C12_17
REMARK   13  A    between atoms: C12_17  and  C13_18
REMARK   14  A    between atoms: C13_18  and  N3_19
REMARK       I    between atoms: N3_19  and  C14_20
REMARK   15  A    between atoms: C14_20  and  C15_22
ROOT
HETATM    1  C6  UNL     1      42.166  14.039  -6.920  1.00  0.00     0.000 C
ENDROOT
BRANCH   1   2
HETATM    2  C5  UNL     1      41.343  15.284  -6.990  1.00  0.00     0.005 C
BRANCH   2   3
HETATM    3  C4  UNL     1      39.897  15.001  -7.244  1.00  0.00     0.044 C
BRANCH   3   4
HETATM    4  C3  UNL     1      39.089  16.216  -7.594  1.00  0.00     0.062 C
HETATM    5  N1  UNL     1      38.911  17.052  -6.558  1.00  0.00    -0.360 N
ATOM      6  H1  UNL     1      38.956  17.982  -6.975  1.00  0.00     0.166 HD
BRANCH   5   7
HETATM    7  C2  UNL     1      38.725  17.262  -5.379  1.00  0.00     0.075 C
HETATM    8  C1  UNL     1      38.788  18.678  -4.820  1.00  0.00     0.089 C
BRANCH   7   9
HETATM    9  N4  UNL     1      38.438  16.223  -4.415  1.00  0.00    -0.356 N
HETATM   10  C16 UNL     1      39.404  15.342  -3.832  1.00  0.00     0.091 C
HETATM   11  C17 UNL     1      39.115  15.636  -2.344  1.00  0.00     0.028 C
HETATM   12  C22 UNL     1      39.086  13.893  -4.019  1.00  0.00     0.073 C
HETATM   13  C18 UNL     1      37.580  15.538  -2.366  1.00  0.00     0.033 C
HETATM   14  C19 UNL     1      37.191  15.843  -3.833  1.00  0.00     0.127 C
HETATM   15  C20 UNL     1      36.808  14.545  -4.489  1.00  0.00     0.025 C
HETATM   16 BR1  UNL     1      35.043  14.252  -5.154  1.00  0.00    -0.052 Br
HETATM   17  C21 UNL     1      37.742  13.612  -4.576  1.00  0.00     0.006 C
HETATM   18 BR2  UNL     1      37.359  11.905  -5.395  1.00  0.00    -0.054 Br
ENDBRANCH   7   9
ENDBRANCH   5   7
ENDBRANCH   3   4
ENDBRANCH   2   3
ENDBRANCH   1   2
BRANCH   1  19
HETATM   19  C7  UNL     1      43.328  14.315  -5.967  1.00  0.00     0.002 C
BRANCH  19  20
HETATM   20  C8  UNL     1      42.895  15.118  -4.806  1.00  0.00     0.027 C
BRANCH  20  21
HETATM   21  C9  UNL     1      43.925  16.090  -4.329  1.00  0.00     0.232 C
BRANCH  21  22
HETATM   22  N2  UNL     1      43.551  17.450  -4.526  1.00  0.00    -0.075 N
ATOM     23  H22 UNL     1      43.467  17.696  -5.513  1.00  0.00     0.277 HD
ATOM     24  H21 UNL     1      42.585  17.636  -4.256  1.00  0.00     0.277 HD
BRANCH  22  25
HETATM   25  C10 UNL     1      44.529  18.314  -3.798  1.00  0.00     0.232 C
BRANCH  25  26
HETATM   26  C11 UNL     1      45.913  17.943  -4.190  1.00  0.00     0.033 C
BRANCH  26  27
HETATM   27  C12 UNL     1      47.007  18.880  -3.802  1.00  0.00     0.061 C
BRANCH  27  28
HETATM   28  C13 UNL     1      48.155  18.349  -3.053  1.00  0.00     0.159 C
BRANCH  28  29
HETATM   29  N3  UNL     1      48.426  17.039  -2.869  1.00  0.00    -0.380 NA
HETATM   30  C14 UNL     1      48.701  15.713  -2.679  1.00  0.00     0.399 C
HETATM   31  O1  UNL     1      49.247  15.128  -1.723  1.00  0.00    -0.247 OA
BRANCH  30  32
HETATM   32  C15 UNL     1      48.301  14.736  -3.795  1.00  0.00     0.486 C
HETATM   33  F1  UNL     1      47.026  14.918  -4.204  1.00  0.00    -0.161 F
HETATM   34  F2  UNL     1      49.209  14.986  -4.844  1.00  0.00    -0.161 F
HETATM   35  F3  UNL     1      48.502  13.433  -3.428  1.00  0.00    -0.161 F
ENDBRANCH  30  32
ENDBRANCH  28  29
ENDBRANCH  27  28
ENDBRANCH  26  27
ENDBRANCH  25  26
ENDBRANCH  22  25
ENDBRANCH  21  22
ENDBRANCH  20  21
ENDBRANCH  19  20
ENDBRANCH   1  19
TORSDOF 15
ENDMDL