MODEL 4
REMARK VINA RESULT: -8.434158859      1.093      1.470
REMARK  15 active torsions:
REMARK  status: ('A' for Active; 'I' for Inactive)
REMARK    1  A    between atoms: C7_14  and  N5_15
REMARK    2  A    between atoms: N5_15  and  C8_16
REMARK    3  A    between atoms: C8_16  and  C9_17
REMARK    4  A    between atoms: C9_17  and  C10_18
REMARK    5  A    between atoms: C10_18  and  C11_19
REMARK    6  A    between atoms: C11_19  and  C12_20
REMARK    7  A    between atoms: C12_20  and  C13_21
REMARK    8  A    between atoms: C13_21  and  C14_22
REMARK    9  A    between atoms: C14_22  and  C15_23
REMARK   10  A    between atoms: C15_23  and  C16_24
REMARK   11  A    between atoms: C16_24  and  C17_25
REMARK   12  A    between atoms: C17_25  and  C18_26
REMARK   13  A    between atoms: C18_26  and  C19_27
REMARK   14  A    between atoms: C19_27  and  C20_28
REMARK   15  A    between atoms: C20_28  and  C21_31
ROOT
HETATM    1  N5  UNL     1      37.205  15.267  -4.570  1.00  0.00    -0.428 NA
ENDROOT
BRANCH   1   2
HETATM    2  C7  UNL     1      37.788  16.214  -4.150  1.00  0.00     0.205 A
HETATM    3  N4  UNL     1      37.927  16.606  -2.851  1.00  0.00    -0.272 N
HETATM    4  N3  UNL     1      38.640  17.698  -2.792  1.00  0.00    -0.282 N
ATOM      5  H4  UNL     1      37.534  16.118  -2.047  1.00  0.00     0.189 HD
HETATM    6  C6  UNL     1      39.012  18.091  -4.026  1.00  0.00     0.145 A
ATOM      7  H3  UNL     1      38.882  18.187  -1.930  1.00  0.00     0.188 HD
HETATM    8  N2  UNL     1      39.782  19.193  -4.510  1.00  0.00    -0.287 N
HETATM    9  C22 UNL     1      38.488  17.172  -4.903  1.00  0.00     0.113 A
HETATM   10  C4  UNL     1      40.011  19.344  -5.902  1.00  0.00     0.331 A
HETATM   11  C5  UNL     1      40.317  20.137  -3.567  1.00  0.00     0.163 C
HETATM   12  N1  UNL     1      39.485  18.414  -6.856  1.00  0.00    -0.282 N
HETATM   13  O1  UNL     1      40.688  20.312  -6.336  1.00  0.00    -0.246 OA
HETATM   14  C3  UNL     1      39.570  18.341  -8.300  1.00  0.00     0.160 A
HETATM   15  C23 UNL     1      38.723  17.325  -6.357  1.00  0.00     0.127 A
HETATM   16  C2  UNL     1      38.794  17.116  -8.623  1.00  0.00     0.097 A
HETATM   17  C1  UNL     1      37.624  17.380  -9.545  1.00  0.00     0.034 C
HETATM   18  N6  UNL     1      38.353  16.623  -7.345  1.00  0.00    -0.369 N
ATOM     19  H6  UNL     1      37.790  15.779  -7.243  1.00  0.00     0.161 HD
ENDBRANCH   1   2
BRANCH   1  20
HETATM   20  C8  UNL     1      36.586  14.205  -5.079  1.00  0.00     0.220 C
BRANCH  20  21
HETATM   21  C9  UNL     1      37.011  12.881  -4.438  1.00  0.00     0.033 C
BRANCH  21  22
HETATM   22  C10 UNL     1      38.491  12.904  -4.156  1.00  0.00     0.002 C
BRANCH  22  23
HETATM   23  C11 UNL     1      39.201  13.151  -5.484  1.00  0.00     0.000 C
BRANCH  23  24
HETATM   24  C12 UNL     1      40.387  14.043  -5.330  1.00  0.00     0.000 C
BRANCH  24  25
HETATM   25  C13 UNL     1      41.043  14.362  -6.651  1.00  0.00     0.000 C
BRANCH  25  26
HETATM   26  C14 UNL     1      41.861  15.596  -6.531  1.00  0.00     0.000 C
BRANCH  26  27
HETATM   27  C15 UNL     1      42.670  15.686  -5.279  1.00  0.00     0.000 C
BRANCH  27  28
HETATM   28  C16 UNL     1      43.540  14.438  -5.102  1.00  0.00     0.000 C
BRANCH  28  29
HETATM   29  C17 UNL     1      45.013  14.774  -5.129  1.00  0.00     0.000 C
BRANCH  29  30
HETATM   30  C18 UNL     1      45.360  15.832  -4.169  1.00  0.00     0.003 C
BRANCH  30  31
HETATM   31  C19 UNL     1      46.704  15.740  -3.547  1.00  0.00     0.040 C
BRANCH  31  32
HETATM   32  C20 UNL     1      47.691  16.803  -3.825  1.00  0.00     0.124 C
HETATM   33 CL1  UNL     1      48.852  16.276  -5.103  1.00  0.00    -0.104 Cl
HETATM   34 BR1  UNL     1      46.969  18.503  -4.246  1.00  0.00    -0.065 Br
BRANCH  32  35
HETATM   35  C21 UNL     1      48.607  17.013  -2.590  1.00  0.00     0.212 C
HETATM   36 CL2  UNL     1      50.263  16.519  -2.919  1.00  0.00    -0.105 Cl
HETATM   37 CL3  UNL     1      48.587  18.713  -2.120  1.00  0.00    -0.105 Cl
ENDBRANCH  32  35
ENDBRANCH  31  32
ENDBRANCH  30  31
ENDBRANCH  29  30
ENDBRANCH  28  29
ENDBRANCH  27  28
ENDBRANCH  26  27
ENDBRANCH  25  26
ENDBRANCH  24  25
ENDBRANCH  23  24
ENDBRANCH  22  23
ENDBRANCH  21  22
ENDBRANCH  20  21
ENDBRANCH   1  20
TORSDOF 15
ENDMDL