MODEL 3
REMARK VINA RESULT: -8.448826919      1.873      4.140
REMARK  14 active torsions:
REMARK  status: ('A' for Active; 'I' for Inactive)
REMARK    1  A    between atoms: N1_5  and  C5_6
REMARK    2  A    between atoms: C5_6  and  C6_7
REMARK       I    between atoms: C6_7  and  N2_9
REMARK    3  A    between atoms: N2_9  and  C7_11
REMARK       I    between atoms: N5_26  and  C16_27
REMARK    4  A    between atoms: C16_27  and  C17_29
REMARK    5  A    between atoms: C17_29  and  C18_30
REMARK    6  A    between atoms: C18_30  and  C19_31
REMARK    7  A    between atoms: C19_31  and  C20_32
REMARK    8  A    between atoms: C20_32  and  C21_33
REMARK    9  A    between atoms: C21_33  and  C22_34
REMARK   10  A    between atoms: C22_34  and  C23_35
REMARK   11  A    between atoms: C23_35  and  C24_36
REMARK   12  A    between atoms: C24_36  and  C25_37
REMARK   13  A    between atoms: C25_37  and  C26_38
REMARK   14  A    between atoms: C26_38  and  C27_39
ROOT
HETATM    1  C1  UNL     1      35.233  15.894  -2.487  1.00  0.00     0.033 C
HETATM    2  C2  UNL     1      36.192  15.410  -3.575  1.00  0.00     0.089 C
HETATM    3  C3  UNL     1      35.851  14.199  -4.279  1.00  0.00     0.040 C
HETATM    4  C4  UNL     1      35.960  12.820  -4.670  1.00  0.00     0.097 C
HETATM    5  N1  UNL     1      37.181  12.223  -4.067  1.00  0.00    -0.283 NA
HETATM    6  C14 UNL     1      37.429  12.707  -2.731  1.00  0.00     0.140 C
HETATM    7  C15 UNL     1      38.064  13.995  -2.483  1.00  0.00     0.082 C
HETATM    8  N5  UNL     1      37.491  15.226  -2.930  1.00  0.00    -0.326 N
HETATM    9  C16 UNL     1      38.275  16.361  -2.737  1.00  0.00     0.227 C
HETATM   10  O2  UNL     1      39.406  16.211  -2.196  1.00  0.00    -0.273 OA
ENDROOT
BRANCH   5  11
HETATM   11  C5  UNL     1      38.346  12.352  -4.845  1.00  0.00     0.135 C
BRANCH  11  12
HETATM   12  C6  UNL     1      38.421  13.394  -5.851  1.00  0.00     0.269 C
HETATM   13  O1  UNL     1      37.372  14.087  -6.144  1.00  0.00    -0.267 OA
HETATM   14  N2  UNL     1      39.573  13.759  -6.586  1.00  0.00    -0.155 N
ATOM     15  H2  UNL     1      39.583  13.546  -7.584  1.00  0.00     0.187 HD
BRANCH  14  16
HETATM   16  C7  UNL     1      40.605  14.336  -6.093  1.00  0.00     0.686 A
HETATM   17  N3  UNL     1      41.809  13.762  -5.984  1.00  0.00    -0.189 N
HETATM   18  C8  UNL     1      42.656  14.623  -5.434  1.00  0.00     0.078 A
ATOM     19  H3  UNL     1      42.040  12.813  -6.277  1.00  0.00     0.184 HD
HETATM   20  C9  UNL     1      44.016  14.528  -5.107  1.00  0.00     0.058 A
HETATM   21  C13 UNL     1      41.954  15.783  -5.186  1.00  0.00     0.078 A
HETATM   22  C10 UNL     1      44.646  15.610  -4.535  1.00  0.00     0.058 A
HETATM   23 CL1  UNL     1      46.352  15.536  -4.111  1.00  0.00    -0.082 Cl
HETATM   24  C11 UNL     1      43.959  16.774  -4.282  1.00  0.00     0.058 A
HETATM   25 CL2  UNL     1      44.759  18.126  -3.561  1.00  0.00    -0.082 Cl
HETATM   26  C12 UNL     1      42.600  16.858  -4.612  1.00  0.00     0.058 A
HETATM   27  N4  UNL     1      40.703  15.566  -5.604  1.00  0.00    -0.189 N
ATOM     28  H4  UNL     1      39.940  16.242  -5.554  1.00  0.00     0.184 HD
ENDBRANCH  14  16
ENDBRANCH  11  12
ENDBRANCH   5  11
BRANCH   9  29
HETATM   29  C17 UNL     1      37.881  17.730  -3.118  1.00  0.00     0.130 C
BRANCH  29  30
HETATM   30  C18 UNL     1      38.577  18.319  -4.278  1.00  0.00    -0.022 C
BRANCH  30  31
HETATM   31  C19 UNL     1      39.608  19.336  -4.158  1.00  0.00    -0.030 C
BRANCH  31  32
HETATM   32  C20 UNL     1      40.438  19.813  -5.266  1.00  0.00     0.027 C
BRANCH  32  33
HETATM   33  C21 UNL     1      39.960  19.530  -6.627  1.00  0.00     0.004 C
BRANCH  33  34
HETATM   34  C22 UNL     1      40.937  18.781  -7.522  1.00  0.00     0.000 C
BRANCH  34  35
HETATM   35  C23 UNL     1      40.331  17.518  -8.055  1.00  0.00     0.000 C
BRANCH  35  36
HETATM   36  C24 UNL     1      38.857  17.538  -7.856  1.00  0.00     0.000 C
BRANCH  36  37
HETATM   37  C25 UNL     1      37.985  17.196  -8.971  1.00  0.00     0.001 C
BRANCH  37  38
HETATM   38  C26 UNL     1      37.478  18.181  -9.935  1.00  0.00     0.015 C
BRANCH  38  39
HETATM   39  C27 UNL     1      38.109  18.353 -11.259  1.00  0.00     0.114 C
HETATM   40 CL3  UNL     1      39.758  19.074 -10.975  1.00  0.00    -0.130 Cl
ENDBRANCH  38  39
ENDBRANCH  37  38
ENDBRANCH  36  37
ENDBRANCH  35  36
ENDBRANCH  34  35
ENDBRANCH  33  34
ENDBRANCH  32  33
ENDBRANCH  31  32
ENDBRANCH  30  31
ENDBRANCH  29  30
ENDBRANCH   9  29
TORSDOF 14
ENDMDL