MODEL 1
REMARK VINA RESULT: -11.344928757      0.000      0.000
REMARK  13 active torsions:
REMARK  status: ('A' for Active; 'I' for Inactive)
REMARK    1  A    between atoms: C1_2  and  C2_3
REMARK       I    between atoms: C1_2  and  N1_7
REMARK    2  A    between atoms: C2_3  and  C3_4
REMARK    3  A    between atoms: C3_4  and  C4_5
REMARK    4  A    between atoms: N1_7  and  C5_9
REMARK    5  A    between atoms: C5_9  and  C6_10
REMARK    6  A    between atoms: C6_10  and  C7_11
REMARK    7  A    between atoms: C7_11  and  C8_12
REMARK    8  A    between atoms: C8_12  and  C9_13
REMARK    9  A    between atoms: C9_13  and  N2_14
REMARK       I    between atoms: N2_14  and  C10_16
REMARK   10  A    between atoms: C10_16  and  C11_18
REMARK   11  A    between atoms: C11_18  and  C12_19
REMARK   12  A    between atoms: C12_19  and  C13_20
REMARK   13  A    between atoms: C17_24  and  C18_25
ROOT
HETATM    1  C11 UNL     1      40.312  15.236  -5.447  1.00  0.00     0.046 C
HETATM    2  C16 UNL     1      40.075  15.443  -6.931  1.00  0.00     0.029 C
HETATM    3  C17 UNL     1      40.479  16.880  -7.176  1.00  0.00     0.024 C
HETATM    4  C24 UNL     1      40.380  17.604  -5.895  1.00  0.00    -0.001 C
HETATM    5  C25 UNL     1      39.460  18.774  -5.825  1.00  0.00     0.005 C
HETATM    6  C26 UNL     1      39.381  19.128  -4.324  1.00  0.00     0.000 C
HETATM    7  C27 UNL     1      38.419  18.112  -3.738  1.00  0.00     0.000 C
HETATM    8  C28 UNL     1      38.614  16.741  -4.343  1.00  0.00     0.006 C
HETATM    9  C29 UNL     1      40.028  16.584  -4.813  1.00  0.00     0.008 C
ENDROOT
BRANCH   1  10
HETATM   10  C10 UNL     1      41.734  14.913  -5.257  1.00  0.00     0.226 C
HETATM   11  N2  UNL     1      42.656  15.528  -4.399  1.00  0.00    -0.360 N
ATOM     12  H2  UNL     1      42.341  16.299  -3.810  1.00  0.00     0.162 HD
HETATM   13  O2  UNL     1      42.158  13.933  -5.985  1.00  0.00    -0.273 OA
BRANCH  11  14
HETATM   14  C9  UNL     1      44.036  15.111  -4.318  1.00  0.00     0.122 C
BRANCH  14  15
HETATM   15  C8  UNL     1      44.989  16.153  -3.847  1.00  0.00     0.020 C
BRANCH  15  16
HETATM   16  C7  UNL     1      44.599  17.560  -4.242  1.00  0.00     0.003 C
BRANCH  16  17
HETATM   17  C6  UNL     1      45.371  18.580  -3.447  1.00  0.00     0.020 C
BRANCH  17  18
HETATM   18  C5  UNL     1      46.572  19.049  -4.197  1.00  0.00     0.122 C
BRANCH  18  19
HETATM   19  N1  UNL     1      47.606  18.037  -4.221  1.00  0.00    -0.361 N
HETATM   20  C1  UNL     1      48.490  17.863  -3.117  1.00  0.00     0.217 C
HETATM   21  O1  UNL     1      48.345  18.612  -2.129  1.00  0.00    -0.274 OA
ATOM     22  H1  UNL     1      47.703  17.438  -5.040  1.00  0.00     0.162 HD
BRANCH  20  23
HETATM   23  C2  UNL     1      49.540  16.834  -3.138  1.00  0.00     0.103 C
BRANCH  23  24
HETATM   24  C3  UNL     1      49.298  15.698  -2.219  1.00  0.00     0.020 C
BRANCH  24  25
HETATM   25  C4  UNL     1      48.157  14.813  -2.605  1.00  0.00     0.085 C
HETATM   26 BR1  UNL     1      48.353  14.433  -4.512  1.00  0.00    -0.097 Br
ENDBRANCH  24  25
ENDBRANCH  23  24
ENDBRANCH  20  23
ENDBRANCH  18  19
ENDBRANCH  17  18
ENDBRANCH  16  17
ENDBRANCH  15  16
ENDBRANCH  14  15
ENDBRANCH  11  14
ENDBRANCH   1  10
BRANCH   1  27
HETATM   27  C12 UNL     1      39.438  14.160  -4.953  1.00  0.00     0.024 C
BRANCH  27  28
HETATM   28  C13 UNL     1      38.332  13.738  -5.880  1.00  0.00    -0.013 A
HETATM   29  C14 UNL     1      37.645  12.432  -5.649  1.00  0.00     0.005 A
HETATM   30  C15 UNL     1      36.903  13.679  -5.345  1.00  0.00     0.005 A
ENDBRANCH  27  28
ENDBRANCH   1  27
BRANCH   3  31
HETATM   31  C18 UNL     1      39.719  17.375  -8.314  1.00  0.00    -0.048 A
HETATM   32  C19 UNL     1      40.280  18.275  -9.198  1.00  0.00     0.053 A
HETATM   33  C20 UNL     1      39.572  18.747 -10.299  1.00  0.00     0.158 A
HETATM   34  F1  UNL     1      40.117  19.634 -11.174  1.00  0.00    -0.203 F
HETATM   35  C21 UNL     1      38.287  18.330 -10.540  1.00  0.00     0.193 A
HETATM   36  F2  UNL     1      37.606  18.808 -11.632  1.00  0.00    -0.200 F
HETATM   37  C22 UNL     1      37.715  17.435  -9.671  1.00  0.00     0.158 A
HETATM   38  F3  UNL     1      36.431  16.997  -9.884  1.00  0.00    -0.203 F
HETATM   39  C23 UNL     1      38.433  16.979  -8.588  1.00  0.00     0.053 A
ENDBRANCH   3  31
TORSDOF 13
ENDMDL