MODEL 2
REMARK VINA RESULT: -9.037193015      0.979      1.402
REMARK  13 active torsions:
REMARK  status: ('A' for Active; 'I' for Inactive)
REMARK    1  A    between atoms: C2_2  and  C3_3
REMARK    2  A    between atoms: C2_2  and  C20_29
REMARK    3  A    between atoms: C3_3  and  C4_5
REMARK    4  A    between atoms: C4_5  and  C5_6
REMARK    5  A    between atoms: C5_6  and  C6_7
REMARK    6  A    between atoms: C6_7  and  C7_8
REMARK    7  A    between atoms: C7_8  and  O2_9
REMARK    8  A    between atoms: C7_8  and  C8_11
REMARK    9  A    between atoms: C8_11  and  O3_13
REMARK   10  A    between atoms: C8_11  and  S1_15
REMARK   11  A    between atoms: S1_15  and  C10_16
REMARK   12  A    between atoms: C11_17  and  C12_18
REMARK   13  A    between atoms: N1_24  and  C18_26
ROOT
HETATM    1  C8  UNL     1      23.378 -19.697  17.900  1.00  0.00     0.132 C
HETATM    2  C9  UNL     1      23.494 -20.228  16.498  1.00  0.00     0.061 C
ENDROOT
BRANCH   1   3
HETATM    3  C7  UNL     1      22.655 -18.357  17.930  1.00  0.00     0.163 C
BRANCH   3   4
HETATM    4  C6  UNL     1      21.621 -18.337  19.032  1.00  0.00     0.036 C
BRANCH   4   5
HETATM    5  C5  UNL     1      21.266 -16.933  19.466  1.00  0.00     0.010 C
BRANCH   5   6
HETATM    6  C4  UNL     1      19.963 -16.944  20.176  1.00  0.00     0.079 C
BRANCH   6   7
HETATM    7  C3  UNL     1      18.778 -17.237  19.370  1.00  0.00     0.135 C
HETATM    8  O1  UNL     1      18.616 -16.504  18.382  1.00  0.00    -0.297 OA
BRANCH   7   9
HETATM    9  C2  UNL     1      17.781 -18.308  19.628  1.00  0.00     0.105 C
HETATM   10  C1  UNL     1      17.723 -19.350  18.538  1.00  0.00     0.022 C
BRANCH   9  11
HETATM   11  C20 UNL     1      16.391 -17.706  19.737  1.00  0.00     0.198 C
HETATM   12 CL1  UNL     1      15.643 -17.870  18.119  1.00  0.00    -0.083 Cl
HETATM   13 CL2  UNL     1      15.467 -18.704  20.875  1.00  0.00    -0.083 Cl
HETATM   14 CL3  UNL     1      16.456 -16.007  20.239  1.00  0.00    -0.083 Cl
ENDBRANCH   9  11
ENDBRANCH   7   9
ENDBRANCH   6   7
ENDBRANCH   5   6
ENDBRANCH   4   5
ENDBRANCH   3   4
BRANCH   3  15
HETATM   15  O2  UNL     1      22.072 -18.208  16.676  1.00  0.00    -0.392 OA
ATOM     16  H2  UNL     1      21.223 -18.631  16.631  1.00  0.00     0.210 HD
ENDBRANCH   3  15
ENDBRANCH   1   3
BRANCH   1  17
HETATM   17  O3  UNL     1      22.592 -20.570  18.668  1.00  0.00    -0.377 OA
ATOM     18  H3  UNL     1      22.745 -20.324  19.573  1.00  0.00     0.211 HD
ENDBRANCH   1  17
BRANCH   1  19
HETATM   19  S1  UNL     1      25.014 -19.478  18.591  1.00  0.00    -0.102 SA
BRANCH  19  20
HETATM   20  C10 UNL     1      25.506 -17.790  18.718  1.00  0.00     0.044 C
HETATM   21  C11 UNL     1      25.681 -17.195  19.880  1.00  0.00    -0.015 C
BRANCH  21  22
HETATM   22  C12 UNL     1      26.093 -15.776  19.970  1.00  0.00     0.014 C
HETATM   23  C13 UNL     1      25.114 -14.823  19.323  1.00  0.00     0.009 C
HETATM   24  C14 UNL     1      25.513 -13.416  19.707  1.00  0.00     0.001 C
HETATM   25  C15 UNL     1      26.357 -12.736  18.654  1.00  0.00     0.006 C
HETATM   26  C16 UNL     1      27.833 -13.040  18.851  1.00  0.00     0.052 C
HETATM   27  C17 UNL     1      27.985 -14.323  19.586  1.00  0.00    -0.011 C
HETATM   28  N1  UNL     1      28.701 -14.243  20.641  1.00  0.00    -0.342 N
HETATM   29  C19 UNL     1      27.406 -15.622  19.218  1.00  0.00     0.061 C
ATOM     30  H1  UNL     1      29.097 -13.335  20.885  1.00  0.00     0.167 HD
BRANCH  28  31
HETATM   31  C18 UNL     1      28.976 -15.338  21.491  1.00  0.00     0.352 C
HETATM   32  O4  UNL     1      29.996 -16.082  21.304  1.00  0.00    -0.283 OA
ENDBRANCH  28  31
ENDBRANCH  21  22
ENDBRANCH  19  20
ENDBRANCH   1  19
TORSDOF 13
ENDMDL