MODEL 3
REMARK VINA RESULT: -8.630436757      3.784      8.322
REMARK  13 active torsions:
REMARK  status: ('A' for Active; 'I' for Inactive)
REMARK    1  A    between atoms: C2_2  and  O1_3
REMARK    2  A    between atoms: O1_3  and  C3_4
REMARK    3  A    between atoms: C3_4  and  C4_5
REMARK    4  A    between atoms: C3_4  and  C8_9
REMARK    5  A    between atoms: C4_5  and  C5_6
REMARK    6  A    between atoms: C8_9  and  O2_10
REMARK    7  A    between atoms: C8_9  and  N1_12
REMARK    8  A    between atoms: N1_12  and  C9_14
REMARK    9  A    between atoms: C10_17  and  N3_18
REMARK   10  A    between atoms: N3_18  and  C11_20
REMARK   11  A    between atoms: C11_20  and  C12_21
REMARK   12  A    between atoms: C12_21  and  C13_22
REMARK   13  A    between atoms: C20_29  and  C21_30
ROOT
HETATM    1  C9  UNL     1      20.351 -16.180  18.336  1.00  0.00     0.148 A
HETATM    2  N2  UNL     1      21.274 -15.268  18.626  1.00  0.00    -0.322 N
ATOM      3  H2  UNL     1      20.954 -14.300  18.625  1.00  0.00     0.169 HD
HETATM    4  C10 UNL     1      22.552 -15.447  18.914  1.00  0.00     0.114 A
HETATM    5  C18 UNL     1      23.213 -16.669  18.977  1.00  0.00     0.026 A
HETATM    6  C19 UNL     1      24.574 -16.737  19.296  1.00  0.00     0.029 A
HETATM    7  C20 UNL     1      25.259 -17.932  19.367  1.00  0.00     0.007 A
HETATM    8  C22 UNL     1      24.619 -19.127  19.122  1.00  0.00     0.014 A
HETATM    9  C23 UNL     1      23.278 -19.095  18.805  1.00  0.00     0.021 A
HETATM   10  C24 UNL     1      22.606 -17.876  18.738  1.00  0.00     0.022 A
HETATM   11  S1  UNL     1      20.940 -17.800  18.350  1.00  0.00    -0.053 SA
ENDROOT
BRANCH   1  12
HETATM   12  N1  UNL     1      19.128 -15.944  18.071  1.00  0.00    -0.342 N
ATOM     13  H1  UNL     1      18.861 -15.939  17.086  1.00  0.00     0.164 HD
BRANCH  12  14
HETATM   14  C8  UNL     1      18.100 -15.688  19.017  1.00  0.00     0.248 C
BRANCH  14  15
HETATM   15  C3  UNL     1      16.797 -16.488  18.646  1.00  0.00     0.170 C
BRANCH  15  16
HETATM   16  O1  UNL     1      15.964 -15.513  18.172  1.00  0.00    -0.382 OA
BRANCH  16  17
HETATM   17  C2  UNL     1      14.639 -15.589  18.405  1.00  0.00     0.164 C
HETATM   18  C1  UNL     1      13.751 -16.296  17.456  1.00  0.00     0.033 C
ENDBRANCH  16  17
ENDBRANCH  15  16
BRANCH  15  19
HETATM   19  C4  UNL     1      16.302 -17.166  19.856  1.00  0.00     0.040 C
BRANCH  19  20
HETATM   20  C5  UNL     1      16.127 -18.644  19.788  1.00  0.00    -0.020 C
HETATM   21  C6  UNL     1      14.707 -19.015  20.152  1.00  0.00     0.009 C
HETATM   22  C7  UNL     1      16.352 -19.103  18.344  1.00  0.00     0.009 C
ENDBRANCH  19  20
ENDBRANCH  15  19
ENDBRANCH  14  15
BRANCH  14  23
HETATM   23  O2  UNL     1      18.432 -16.096  20.284  1.00  0.00    -0.374 OA
ATOM     24  H2  UNL     1      18.537 -17.038  20.228  1.00  0.00     0.212 HD
ENDBRANCH  14  23
ENDBRANCH  12  14
ENDBRANCH   1  12
BRANCH   4  25
HETATM   25  N3  UNL     1      23.319 -14.427  19.167  1.00  0.00    -0.376 N
ATOM     26  H3  UNL     1      23.051 -13.744  19.876  1.00  0.00     0.161 HD
BRANCH  25  27
HETATM   27  C11 UNL     1      24.548 -14.273  18.439  1.00  0.00     0.121 C
BRANCH  27  28
HETATM   28  C12 UNL     1      25.439 -13.217  19.088  1.00  0.00     0.024 C
BRANCH  28  29
HETATM   29  C13 UNL     1      26.762 -13.888  19.386  1.00  0.00    -0.013 C
HETATM   30  C14 UNL     1      26.906 -14.188  20.871  1.00  0.00     0.005 C
HETATM   31  C15 UNL     1      28.389 -14.554  20.946  1.00  0.00     0.000 C
HETATM   32  C16 UNL     1      29.040 -13.603  19.984  1.00  0.00     0.000 C
HETATM   33  C17 UNL     1      27.945 -13.013  19.123  1.00  0.00     0.005 C
ENDBRANCH  28  29
ENDBRANCH  27  28
ENDBRANCH  25  27
ENDBRANCH   4  25
BRANCH   7  34
HETATM   34  C21 UNL     1      26.724 -17.947  19.715  1.00  0.00     0.386 C
HETATM   35  F1  UNL     1      26.909 -17.560  21.031  1.00  0.00    -0.209 F
HETATM   36  F2  UNL     1      27.436 -17.125  18.866  1.00  0.00    -0.209 F
ENDBRANCH   7  34
TORSDOF 13
ENDMDL