MODEL 3
REMARK VINA RESULT: -8.594446320      1.305      1.368
REMARK  11 active torsions:
REMARK  status: ('A' for Active; 'I' for Inactive)
REMARK    1  A    between atoms: C2_2  and  N1_4
REMARK    2  A    between atoms: N1_4  and  N2_5
REMARK       I    between atoms: N2_5  and  C3_7
REMARK    3  A    between atoms: C3_7  and  C4_9
REMARK    4  A    between atoms: C4_9  and  C5_10
REMARK    5  A    between atoms: C5_10  and  C6_11
REMARK    6  A    between atoms: C6_11  and  C7_12
REMARK    7  A    between atoms: C7_12  and  C8_13
REMARK    8  A    between atoms: C8_13  and  C9_14
REMARK    9  A    between atoms: C9_14  and  C10_15
REMARK   10  A    between atoms: C10_15  and  N3_16
REMARK   11  A    between atoms: N3_16  and  C11_18
ROOT
HETATM    1  C9  UNL     1      22.311 -17.163  17.199  1.00  0.00     0.020 C
ENDROOT
BRANCH   1   2
HETATM    2  C8  UNL     1      23.571 -17.688  16.588  1.00  0.00     0.002 C
BRANCH   2   3
HETATM    3  C7  UNL     1      23.747 -19.155  16.783  1.00  0.00     0.000 C
BRANCH   3   4
HETATM    4  C6  UNL     1      24.806 -19.545  17.770  1.00  0.00     0.000 C
BRANCH   4   5
HETATM    5  C5  UNL     1      25.810 -18.435  17.918  1.00  0.00     0.009 C
BRANCH   5   6
HETATM    6  C4  UNL     1      25.999 -17.963  19.320  1.00  0.00     0.104 C
BRANCH   6   7
HETATM    7  C3  UNL     1      26.266 -16.524  19.407  1.00  0.00     0.233 C
HETATM    8  N2  UNL     1      27.022 -16.026  20.511  1.00  0.00    -0.273 N
ATOM      9  H2  UNL     1      27.365 -16.673  21.220  1.00  0.00     0.185 HD
HETATM   10  O1  UNL     1      25.862 -15.704  18.558  1.00  0.00    -0.272 OA
BRANCH   8  11
HETATM   11  N1  UNL     1      27.301 -14.643  20.630  1.00  0.00    -0.118 NA
BRANCH  11  12
HETATM   12  C2  UNL     1      28.757 -14.475  20.588  1.00  0.00     0.191 C
HETATM   13  C1  UNL     1      29.408 -15.442  21.522  1.00  0.00     0.046 C
HETATM   14 CL1  UNL     1      29.411 -14.630  18.965  1.00  0.00    -0.105 Cl
ENDBRANCH  11  12
ENDBRANCH   8  11
ENDBRANCH   6   7
ENDBRANCH   5   6
ENDBRANCH   4   5
ENDBRANCH   3   4
ENDBRANCH   2   3
ENDBRANCH   1   2
BRANCH   1  15
HETATM   15  C10 UNL     1      22.473 -16.948  18.699  1.00  0.00     0.122 C
BRANCH  15  16
HETATM   16  N3  UNL     1      21.651 -17.903  19.426  1.00  0.00    -0.365 N
ATOM     17  H3  UNL     1      22.062 -18.641  19.998  1.00  0.00     0.162 HD
BRANCH  16  18
HETATM   18  C11 UNL     1      20.345 -17.763  19.306  1.00  0.00     0.188 A
HETATM   19  O2  UNL     1      19.475 -18.658  19.005  1.00  0.00    -0.286 OA
HETATM   20  C12 UNL     1      18.247 -18.383  18.923  1.00  0.00     0.097 A
HETATM   21  C13 UNL     1      17.206 -19.281  18.601  1.00  0.00     0.040 A
HETATM   22  C17 UNL     1      17.850 -17.095  19.166  1.00  0.00     0.066 A
HETATM   23  C14 UNL     1      15.901 -18.862  18.544  1.00  0.00     0.024 A
HETATM   24  C15 UNL     1      15.532 -17.557  18.794  1.00  0.00     0.034 A
HETATM   25 BR1  UNL     1      13.695 -16.993  18.707  1.00  0.00    -0.049 Br
HETATM   26  C16 UNL     1      16.532 -16.669  19.108  1.00  0.00     0.071 A
HETATM   27 CL2  UNL     1      16.205 -14.988  19.450  1.00  0.00    -0.081 Cl
HETATM   28  S1  UNL     1      19.377 -16.369  19.505  1.00  0.00    -0.042 SA
ENDBRANCH  16  18
ENDBRANCH  15  16
ENDBRANCH   1  15
TORSDOF 11
ENDMDL