MODEL 4
REMARK VINA RESULT: -7.504050490      1.958      3.104
REMARK  10 active torsions:
REMARK  status: ('A' for Active; 'I' for Inactive)
REMARK    1  A    between atoms: C5_6  and  N1_7
REMARK    2  A    between atoms: N1_7  and  C6_9
REMARK    3  A    between atoms: C6_9  and  C7_10
REMARK    4  A    between atoms: C7_10  and  C8_11
REMARK    5  A    between atoms: C8_11  and  C9_12
REMARK    6  A    between atoms: C9_12  and  C10_13
REMARK    7  A    between atoms: C10_13  and  C11_14
REMARK    8  A    between atoms: C11_14  and  N2_15
REMARK    9  A    between atoms: N2_15  and  S1_17
REMARK   10  A    between atoms: N4_28  and  C18_29
ROOT
HETATM    1  C1  UNL     1      29.333 -16.367  20.392  1.00  0.00     0.070 C
HETATM    2  C2  UNL     1      28.008 -15.903  19.945  1.00  0.00     0.032 A
HETATM    3  C3  UNL     1      26.811 -16.603  20.043  1.00  0.00     0.071 A
HETATM    4 CL1  UNL     1      26.688 -18.221  20.703  1.00  0.00    -0.081 Cl
HETATM    5  C4  UNL     1      25.779 -15.836  19.561  1.00  0.00     0.044 A
HETATM    6  C5  UNL     1      24.417 -16.075  19.459  1.00  0.00     0.064 A
HETATM    7  C13 UNL     1      23.627 -15.085  18.947  1.00  0.00     0.062 A
HETATM    8 CL2  UNL     1      21.905 -15.314  18.796  1.00  0.00    -0.082 Cl
HETATM    9  C14 UNL     1      24.191 -13.899  18.551  1.00  0.00     0.051 A
HETATM   10  C15 UNL     1      25.571 -13.631  18.643  1.00  0.00     0.074 A
HETATM   11  C16 UNL     1      26.041 -12.338  18.239  1.00  0.00     0.102 C
HETATM   12  N3  UNL     1      26.383 -11.282  17.918  1.00  0.00    -0.191 NA
HETATM   13  C17 UNL     1      26.363 -14.624  19.155  1.00  0.00     0.071 A
HETATM   14  N4  UNL     1      27.709 -14.698  19.397  1.00  0.00    -0.329 N
ENDROOT
BRANCH  14  15
HETATM   15  C18 UNL     1      28.650 -13.670  19.076  1.00  0.00     0.182 C
HETATM   16  C19 UNL     1      30.025 -14.198  18.613  1.00  0.00     0.050 C
HETATM   17 CL3  UNL     1      29.042 -12.643  20.471  1.00  0.00    -0.102 Cl
ENDBRANCH  14  15
BRANCH   6  18
HETATM   18  N1  UNL     1      23.902 -17.339  19.874  1.00  0.00    -0.388 N
ATOM     19  H1  UNL     1      23.738 -17.536  20.861  1.00  0.00     0.159 HD
BRANCH  18  20
HETATM   20  C6  UNL     1      23.615 -18.338  18.860  1.00  0.00     0.120 C
BRANCH  20  21
HETATM   21  C7  UNL     1      22.310 -19.030  19.043  1.00  0.00     0.020 C
BRANCH  21  22
HETATM   22  C8  UNL     1      21.114 -18.328  18.486  1.00  0.00     0.002 C
BRANCH  22  23
HETATM   23  C9  UNL     1      19.958 -18.330  19.461  1.00  0.00     0.002 C
BRANCH  23  24
HETATM   24  C10 UNL     1      18.756 -17.675  18.837  1.00  0.00     0.020 C
BRANCH  24  25
HETATM   25  C11 UNL     1      18.349 -16.429  19.569  1.00  0.00     0.132 C
BRANCH  25  26
HETATM   26  N2  UNL     1      17.545 -15.642  18.615  1.00  0.00    -0.320 N
ATOM     27  H2  UNL     1      17.863 -15.235  17.735  1.00  0.00     0.172 HD
BRANCH  26  28
HETATM   28  S1  UNL     1      15.951 -15.548  19.289  1.00  0.00     0.222 S
HETATM   29  C12 UNL     1      14.780 -16.150  18.096  1.00  0.00     0.185 C
HETATM   30  O1  UNL     1      15.887 -16.425  20.520  1.00  0.00    -0.206 OA
HETATM   31  O2  UNL     1      15.600 -14.157  19.684  1.00  0.00    -0.206 OA
ENDBRANCH  26  28
ENDBRANCH  25  26
ENDBRANCH  24  25
ENDBRANCH  23  24
ENDBRANCH  22  23
ENDBRANCH  21  22
ENDBRANCH  20  21
ENDBRANCH  18  20
ENDBRANCH   6  18
TORSDOF 10
ENDMDL