MODEL 5
REMARK VINA RESULT: -7.985096640      0.579      1.377
REMARK  10 active torsions:
REMARK  status: ('A' for Active; 'I' for Inactive)
REMARK    1  A    between atoms: C2_2  and  C3_3
REMARK    2  A    between atoms: C3_3  and  C4_4
REMARK    3  A    between atoms: C3_3  and  C24_34
REMARK    4  A    between atoms: N1_6  and  C6_7
REMARK    5  A    between atoms: C6_7  and  O1_8
REMARK    6  A    between atoms: C6_7  and  C7_10
REMARK    7  A    between atoms: C7_10  and  C8_11
REMARK    8  A    between atoms: N2_23  and  C16_24
REMARK    9  A    between atoms: C16_24  and  C17_25
REMARK   10  A    between atoms: C17_25  and  C18_26
ROOT
HETATM    1  C4  UNL     1       9.092 -13.701  17.547  1.00  0.00    -0.009 A
HETATM    2  C5  UNL     1      10.373 -14.068  17.454  1.00  0.00     0.104 A
HETATM    3  N1  UNL     1      10.546 -15.434  17.514  1.00  0.00    -0.319 N
HETATM    4  C14 UNL     1       9.268 -15.911  17.655  1.00  0.00     0.133 A
HETATM    5  C15 UNL     1       8.723 -17.166  17.776  1.00  0.00     0.278 A
HETATM    6  O2  UNL     1       9.480 -18.156  17.782  1.00  0.00    -0.265 OA
HETATM    7  N2  UNL     1       7.381 -17.383  17.901  1.00  0.00    -0.302 N
HETATM    8  C21 UNL     1       6.523 -16.332  17.914  1.00  0.00     0.082 A
HETATM    9  C22 UNL     1       5.040 -16.477  18.032  1.00  0.00     0.089 C
HETATM   10  N3  UNL     1       7.054 -15.106  17.800  1.00  0.00    -0.344 N
ATOM     11  H3  UNL     1       6.419 -14.308  17.809  1.00  0.00     0.167 HD
HETATM   12  C23 UNL     1       8.365 -14.860  17.674  1.00  0.00     0.074 A
ENDROOT
BRANCH   3  13
HETATM   13  C6  UNL     1      11.769 -16.168  17.473  1.00  0.00     0.249 C
BRANCH  13  14
HETATM   14  O1  UNL     1      11.779 -17.022  16.318  1.00  0.00    -0.373 OA
ATOM     15  H1  UNL     1      10.941 -17.464  16.241  1.00  0.00     0.212 HD
ENDBRANCH  13  14
BRANCH  13  16
HETATM   16  C7  UNL     1      13.064 -15.559  17.688  1.00  0.00     0.041 C
BRANCH  16  17
HETATM   17  C8  UNL     1      14.174 -16.266  18.329  1.00  0.00     0.006 A
HETATM   18  C9  UNL     1      14.120 -17.450  18.976  1.00  0.00     0.059 A
HETATM   19  C10 UNL     1      15.215 -18.090  19.557  1.00  0.00     0.155 A
HETATM   20  F1  UNL     1      15.099 -19.267  20.196  1.00  0.00    -0.203 F
HETATM   21  C11 UNL     1      16.436 -17.474  19.460  1.00  0.00     0.157 A
HETATM   22  F2  UNL     1      17.538 -18.049  20.006  1.00  0.00    -0.203 F
HETATM   23  C12 UNL     1      16.546 -16.255  18.803  1.00  0.00     0.088 A
HETATM   24  C13 UNL     1      15.460 -15.657  18.250  1.00  0.00     0.129 A
HETATM   25  F3  UNL     1      15.587 -14.480  17.616  1.00  0.00    -0.205 F
ENDBRANCH  16  17
ENDBRANCH  13  16
ENDBRANCH   3  13
BRANCH   1  26
HETATM   26  C3  UNL     1       8.500 -12.354  17.531  1.00  0.00     0.026 C
BRANCH  26  27
HETATM   27  C2  UNL     1       8.315 -11.755  18.907  1.00  0.00     0.005 C
HETATM   28  C1  UNL     1       8.643 -10.297  18.983  1.00  0.00     0.006 C
ENDBRANCH  26  27
BRANCH  26  29
HETATM   29  C24 UNL     1       7.180 -12.339  16.769  1.00  0.00    -0.006 A
HETATM   30  C25 UNL     1       6.831 -11.024  16.143  1.00  0.00     0.005 A
HETATM   31  C26 UNL     1       7.192 -12.141  15.264  1.00  0.00     0.005 A
ENDBRANCH  26  29
ENDBRANCH   1  26
BRANCH   7  32
HETATM   32  C16 UNL     1       6.826 -18.700  17.980  1.00  0.00     0.134 C
BRANCH  32  33
HETATM   33  C17 UNL     1       6.682 -19.371  19.263  1.00  0.00     0.024 C
BRANCH  33  34
HETATM   34  C18 UNL     1       7.580 -20.395  19.785  1.00  0.00    -0.021 C
HETATM   35  C19 UNL     1       7.186 -21.104  21.044  1.00  0.00     0.009 C
HETATM   36  C20 UNL     1       8.014 -21.432  18.765  1.00  0.00     0.009 C
ENDBRANCH  33  34
ENDBRANCH  32  33
ENDBRANCH   7  32
TORSDOF 10
ENDMDL