MODEL 5
REMARK VINA RESULT: -9.488088238      1.036      2.059
REMARK  10 active torsions:
REMARK  status: ('A' for Active; 'I' for Inactive)
REMARK    1  A    between atoms: C4_4  and  O1_5
REMARK    2  A    between atoms: C4_4  and  C12_14
REMARK    3  A    between atoms: O1_5  and  C5_6
REMARK    4  A    between atoms: C12_14  and  O2_15
REMARK    5  A    between atoms: C12_14  and  C13_17
REMARK    6  A    between atoms: C13_17  and  O3_18
REMARK    7  A    between atoms: O3_18  and  C14_19
REMARK    8  A    between atoms: C17_23  and  O4_24
REMARK    9  A    between atoms: O4_24  and  C18_25
REMARK   10  A    between atoms: C18_25  and  C19_26
ROOT
HETATM    1  C12 UNL     1      22.732 -16.981  18.720  1.00  0.00     0.199 C
ENDROOT
BRANCH   1   2
HETATM    2  C4  UNL     1      23.891 -17.862  18.553  1.00  0.00     0.079 C
HETATM    3  C2  UNL     1      24.040 -19.124  18.645  1.00  0.00    -0.056 C
HETATM    4  C1  UNL     1      23.103 -20.210  18.957  1.00  0.00     0.046 C
HETATM    5  C3  UNL     1      25.472 -19.642  18.389  1.00  0.00     0.046 C
BRANCH   2   6
HETATM    6  O1  UNL     1      25.100 -17.134  18.213  1.00  0.00    -0.347 OA
BRANCH   6   7
HETATM    7  C5  UNL     1      25.477 -16.085  19.078  1.00  0.00     0.130 C
HETATM    8  C6  UNL     1      25.595 -14.825  18.294  1.00  0.00     0.032 C
HETATM    9  C7  UNL     1      25.994 -13.637  19.138  1.00  0.00     0.004 C
HETATM   10  C8  UNL     1      26.926 -14.021  20.258  1.00  0.00     0.025 C
HETATM   11  C9  UNL     1      27.677 -15.305  19.989  1.00  0.00     0.036 C
HETATM   12  C10 UNL     1      28.665 -15.152  18.856  1.00  0.00     0.033 C
HETATM   13 CL1  UNL     1      28.629 -15.663  21.458  1.00  0.00    -0.119 Cl
HETATM   14  C11 UNL     1      26.753 -16.483  19.773  1.00  0.00     0.057 C
ENDBRANCH   6   7
ENDBRANCH   2   6
ENDBRANCH   1   2
BRANCH   1  15
HETATM   15  O2  UNL     1      22.442 -17.059  20.134  1.00  0.00    -0.387 OA
ATOM     16  H2  UNL     1      22.441 -17.992  20.311  1.00  0.00     0.210 HD
ENDBRANCH   1  15
BRANCH   1  17
HETATM   17  C13 UNL     1      21.539 -17.413  17.979  1.00  0.00     0.214 C
BRANCH  17  18
HETATM   18  O3  UNL     1      20.411 -17.795  18.736  1.00  0.00    -0.345 OA
BRANCH  18  19
HETATM   19  C14 UNL     1      19.171 -17.296  18.789  1.00  0.00     0.112 A
HETATM   20  C15 UNL     1      18.911 -16.038  18.284  1.00  0.00     0.071 A
HETATM   21 CL2  UNL     1      20.196 -15.064  17.557  1.00  0.00    -0.081 Cl
HETATM   22  C16 UNL     1      17.663 -15.465  18.310  1.00  0.00     0.063 A
HETATM   23  C17 UNL     1      16.584 -16.168  18.869  1.00  0.00     0.072 A
HETATM   24  C20 UNL     1      16.829 -17.411  19.372  1.00  0.00     0.063 A
HETATM   25  C21 UNL     1      18.116 -17.972  19.333  1.00  0.00     0.071 A
HETATM   26 CL3  UNL     1      18.256 -19.550  20.078  1.00  0.00    -0.081 Cl
BRANCH  23  27
HETATM   27  O4  UNL     1      15.352 -15.534  18.861  1.00  0.00    -0.341 OA
BRANCH  27  28
HETATM   28  C18 UNL     1      14.308 -15.699  17.976  1.00  0.00     0.288 C
BRANCH  28  29
HETATM   29  C19 UNL     1      13.252 -16.625  18.386  1.00  0.00     0.198 C
HETATM   30  O5  UNL     1      13.242 -17.093  19.552  1.00  0.00    -0.646 OA
HETATM   31  O6  UNL     1      12.225 -17.037  17.552  1.00  0.00    -0.646 OA
ENDBRANCH  28  29
ENDBRANCH  27  28
ENDBRANCH  23  27
ENDBRANCH  18  19
ENDBRANCH  17  18
ENDBRANCH   1  17
TORSDOF 10
ENDMDL