MODEL 4
REMARK VINA RESULT: -10.126071500      2.052      2.788
REMARK  9 active torsions:
REMARK  status: ('A' for Active; 'I' for Inactive)
REMARK    1  A    between atoms: C2_2  and  C3_3
REMARK    2  A    between atoms: C3_3  and  C4_4
REMARK    3  A    between atoms: C3_3  and  S1_31
REMARK    4  A    between atoms: C4_4  and  N1_5
REMARK       I    between atoms: N1_5  and  C5_7
REMARK    5  A    between atoms: C5_7  and  C6_9
REMARK    6  A    between atoms: C9_14  and  N3_15
REMARK    7  A    between atoms: C12_18  and  N4_19
REMARK    8  A    between atoms: N4_19  and  C13_21
REMARK    9  A    between atoms: S1_31  and  C22_32
ROOT
HETATM    1  C6  UNL     1      24.376 -17.714  18.135  1.00  0.00     0.058 A
HETATM    2  C7  UNL     1      24.427 -18.554  17.054  1.00  0.00     0.036 A
HETATM    3  C8  UNL     1      23.257 -19.031  16.463  1.00  0.00     0.091 A
HETATM    4  N2  UNL     1      22.106 -18.626  17.007  1.00  0.00    -0.351 N
ATOM      5  H2  UNL     1      21.244 -18.969  16.582  1.00  0.00     0.166 HD
HETATM    6  C9  UNL     1      21.984 -17.807  18.064  1.00  0.00     0.126 A
HETATM    7  C21 UNL     1      23.161 -17.347  18.635  1.00  0.00     0.093 A
HETATM    8 CL1  UNL     1      23.088 -16.276  20.001  1.00  0.00    -0.079 Cl
ENDROOT
BRANCH   6   9
HETATM    9  N3  UNL     1      20.726 -17.415  18.599  1.00  0.00    -0.365 N
HETATM   10  C10 UNL     1      20.060 -18.309  19.530  1.00  0.00     0.130 C
HETATM   11  C11 UNL     1      18.591 -18.315  19.048  1.00  0.00     0.072 C
HETATM   12  C12 UNL     1      18.054 -16.948  19.310  1.00  0.00    -0.015 C
HETATM   13  C19 UNL     1      18.778 -15.884  18.589  1.00  0.00     0.072 C
HETATM   14  C20 UNL     1      20.187 -16.153  18.194  1.00  0.00     0.130 C
BRANCH  12  15
HETATM   15  N4  UNL     1      16.629 -16.817  19.333  1.00  0.00    -0.392 N
ATOM     16  H4  UNL     1      16.082 -17.177  20.115  1.00  0.00     0.159 HD
BRANCH  15  17
HETATM   17  C13 UNL     1      16.005 -16.179  18.248  1.00  0.00     0.081 C
HETATM   18  C14 UNL     1      14.864 -17.113  17.786  1.00  0.00     0.025 C
HETATM   19  C15 UNL     1      13.590 -16.614  18.455  1.00  0.00     0.002 C
HETATM   20  C16 UNL     1      13.177 -15.341  17.746  1.00  0.00     0.000 C
HETATM   21  C17 UNL     1      14.337 -14.396  17.690  1.00  0.00     0.002 C
HETATM   22  C18 UNL     1      15.498 -14.827  18.587  1.00  0.00     0.025 C
ENDBRANCH  15  17
ENDBRANCH  12  15
ENDBRANCH   6   9
BRANCH   1  23
HETATM   23  C5  UNL     1      25.668 -17.221  18.723  1.00  0.00     0.253 C
HETATM   24  N1  UNL     1      26.060 -15.911  18.485  1.00  0.00    -0.356 N
ATOM     25  H1  UNL     1      25.387 -15.394  17.918  1.00  0.00     0.162 HD
HETATM   26  O1  UNL     1      26.253 -18.084  19.378  1.00  0.00    -0.268 OA
BRANCH  24  27
HETATM   27  C4  UNL     1      27.179 -15.131  18.852  1.00  0.00     0.138 C
BRANCH  27  28
HETATM   28  C3  UNL     1      26.984 -13.858  19.575  1.00  0.00     0.073 C
BRANCH  28  29
HETATM   29  C2  UNL     1      27.604 -12.663  18.815  1.00  0.00     0.012 C
HETATM   30  C1  UNL     1      26.559 -11.931  18.042  1.00  0.00     0.006 C
ENDBRANCH  28  29
BRANCH  28  31
HETATM   31  S1  UNL     1      27.823 -13.804  21.207  1.00  0.00    -0.049 SA
BRANCH  31  32
HETATM   32  C22 UNL     1      29.067 -15.094  21.372  1.00  0.00     0.443 C
HETATM   33  F1  UNL     1      29.993 -15.138  20.355  1.00  0.00    -0.160 F
HETATM   34  F2  UNL     1      29.682 -15.128  22.616  1.00  0.00    -0.160 F
HETATM   35  F3  UNL     1      28.362 -16.310  21.309  1.00  0.00    -0.160 F
ENDBRANCH  31  32
ENDBRANCH  28  31
ENDBRANCH  27  28
ENDBRANCH  24  27
ENDBRANCH   1  23
TORSDOF 9
ENDMDL