MODEL 3
REMARK VINA RESULT: -9.548324968      0.867      1.327
REMARK  11 active torsions:
REMARK  status: ('A' for Active; 'I' for Inactive)
REMARK    1  A    between atoms: C4_4  and  O1_5
REMARK    2  A    between atoms: C4_4  and  C5_7
REMARK    3  A    between atoms: C5_7  and  O2_8
REMARK    4  A    between atoms: O2_8  and  C6_9
REMARK    5  A    between atoms: C6_9  and  C7_10
REMARK    6  A    between atoms: C7_10  and  N1_11
REMARK    7  A    between atoms: N1_11  and  C8_14
REMARK    8  A    between atoms: C8_14  and  C9_15
REMARK    9  A    between atoms: C9_15  and  C12_18
REMARK   10  A    between atoms: C12_18  and  C13_19
REMARK   11  A    between atoms: C20_28  and  C21_29
ROOT
HETATM    1  O2  UNL     1      22.040 -15.259  18.753  1.00  0.00    -0.385 OA
ENDROOT
BRANCH   1   2
HETATM    2  C5  UNL     1      22.931 -16.261  19.037  1.00  0.00     0.224 C
BRANCH   2   3
HETATM    3  C4  UNL     1      24.370 -15.846  18.807  1.00  0.00     0.157 C
HETATM    4  C3  UNL     1      24.516 -14.323  18.925  1.00  0.00     0.066 C
HETATM    5  C2  UNL     1      25.885 -13.988  19.482  1.00  0.00     0.021 C
HETATM    6  C1  UNL     1      25.737 -13.656  20.925  1.00  0.00     0.013 C
HETATM    7  C20 UNL     1      26.855 -15.087  19.167  1.00  0.00     0.203 C
HETATM    8  O3  UNL     1      26.464 -16.313  19.693  1.00  0.00    -0.291 OA
HETATM    9  N2  UNL     1      25.136 -16.361  19.936  1.00  0.00    -0.164 NA
HETATM   10  C19 UNL     1      24.811 -17.761  20.179  1.00  0.00     0.147 C
BRANCH   7  11
HETATM   11  C21 UNL     1      28.252 -14.814  19.612  1.00  0.00     0.216 C
HETATM   12 CL1  UNL     1      28.567 -15.204  21.310  1.00  0.00    -0.081 Cl
HETATM   13 CL2  UNL     1      28.789 -13.171  19.206  1.00  0.00    -0.081 Cl
HETATM   14 CL3  UNL     1      29.306 -15.917  18.651  1.00  0.00    -0.081 Cl
ENDBRANCH   7  11
BRANCH   3  15
HETATM   15  O1  UNL     1      24.776 -16.329  17.587  1.00  0.00    -0.371 OA
ATOM     16  H1  UNL     1      24.469 -17.212  17.418  1.00  0.00     0.212 HD
ENDBRANCH   3  15
ENDBRANCH   2   3
ENDBRANCH   1   2
BRANCH   1  17
HETATM   17  C6  UNL     1      20.724 -15.610  18.867  1.00  0.00     0.195 C
BRANCH  17  18
HETATM   18  C7  UNL     1      20.420 -16.727  19.828  1.00  0.00     0.258 C
BRANCH  18  19
HETATM   19  N1  UNL     1      18.955 -16.809  20.010  1.00  0.00    -0.072 N
ATOM     20  H12 UNL     1      18.723 -17.290  20.878  1.00  0.00     0.277 HD
ATOM     21  H11 UNL     1      18.562 -15.891  20.217  1.00  0.00     0.277 HD
BRANCH  19  22
HETATM   22  C8  UNL     1      18.289 -17.409  18.901  1.00  0.00     0.241 C
BRANCH  22  23
HETATM   23  C9  UNL     1      17.208 -18.395  19.350  1.00  0.00    -0.020 C
HETATM   24  C10 UNL     1      16.568 -19.026  18.149  1.00  0.00     0.016 C
HETATM   25  C11 UNL     1      17.836 -19.368  20.301  1.00  0.00     0.016 C
BRANCH  23  26
HETATM   26  C12 UNL     1      16.157 -17.594  20.116  1.00  0.00     0.048 C
BRANCH  26  27
HETATM   27  C13 UNL     1      15.347 -16.719  19.266  1.00  0.00    -0.057 A
HETATM   28  C14 UNL     1      15.800 -15.481  18.840  1.00  0.00     0.007 A
HETATM   29  C15 UNL     1      15.031 -14.675  18.047  1.00  0.00     0.001 A
HETATM   30  C16 UNL     1      13.779 -15.121  17.674  1.00  0.00     0.000 A
HETATM   31  C17 UNL     1      13.286 -16.341  18.071  1.00  0.00     0.001 A
HETATM   32  C18 UNL     1      14.084 -17.126  18.867  1.00  0.00     0.007 A
ENDBRANCH  26  27
ENDBRANCH  23  26
ENDBRANCH  22  23
ENDBRANCH  19  22
ENDBRANCH  18  19
ENDBRANCH  17  18
ENDBRANCH   1  17
TORSDOF 11
ENDMDL