MODEL 3
REMARK VINA RESULT: -9.868793098      1.113      1.596
REMARK  11 active torsions:
REMARK  status: ('A' for Active; 'I' for Inactive)
REMARK    1  A    between atoms: C2_2  and  C3_3
REMARK    2  A    between atoms: C3_3  and  C4_4
REMARK    3  A    between atoms: C4_4  and  C5_5
REMARK    4  A    between atoms: C6_7  and  O2_8
REMARK    5  A    between atoms: O2_8  and  C7_9
REMARK    6  A    between atoms: C7_9  and  C8_10
REMARK    7  A    between atoms: C8_10  and  C9_11
REMARK    8  A    between atoms: C9_11  and  C10_12
REMARK    9  A    between atoms: C16_18  and  O3_19
REMARK   10  A    between atoms: C17_21  and  O4_22
REMARK   11  A    between atoms: C18_24  and  C19_25
ROOT
HETATM    1  C5  UNL     1      23.710 -17.350  17.067  1.00  0.00     0.264 C
HETATM    2  O1  UNL     1      22.633 -17.648  17.903  1.00  0.00    -0.329 OA
HETATM    3  C6  UNL     1      21.707 -16.599  17.915  1.00  0.00     0.293 C
HETATM    4  C16 UNL     1      21.936 -15.627  19.038  1.00  0.00     0.205 C
HETATM    5  C17 UNL     1      23.400 -15.766  19.478  1.00  0.00     0.185 C
HETATM    6  C18 UNL     1      24.273 -15.493  18.311  1.00  0.00     0.191 C
HETATM    7  O5  UNL     1      24.689 -16.750  17.795  1.00  0.00    -0.349 OA
ENDROOT
BRANCH   3   8
HETATM    8  O2  UNL     1      20.453 -17.195  17.949  1.00  0.00    -0.358 OA
BRANCH   8   9
HETATM    9  C7  UNL     1      20.442 -18.189  18.918  1.00  0.00     0.171 C
BRANCH   9  10
HETATM   10  C8  UNL     1      19.225 -18.051  19.828  1.00  0.00     0.027 C
BRANCH  10  11
HETATM   11  C9  UNL     1      18.005 -18.529  19.083  1.00  0.00     0.007 C
BRANCH  11  12
HETATM   12  C10 UNL     1      16.848 -17.634  19.383  1.00  0.00    -0.014 C
HETATM   13  C11 UNL     1      17.323 -16.200  19.485  1.00  0.00     0.004 C
HETATM   14  C12 UNL     1      16.782 -15.439  18.316  1.00  0.00     0.000 C
HETATM   15  C13 UNL     1      15.260 -15.365  18.377  1.00  0.00     0.000 C
HETATM   16  C14 UNL     1      14.669 -16.713  18.737  1.00  0.00     0.000 C
HETATM   17  C15 UNL     1      15.753 -17.741  18.374  1.00  0.00     0.004 C
ENDBRANCH  11  12
ENDBRANCH  10  11
ENDBRANCH   9  10
ENDBRANCH   8   9
ENDBRANCH   3   8
BRANCH   4  18
HETATM   18  O3  UNL     1      21.773 -14.336  18.533  1.00  0.00    -0.388 OA
ATOM     19  H3  UNL     1      21.547 -13.763  19.257  1.00  0.00     0.210 HD
ENDBRANCH   4  18
BRANCH   1  20
HETATM   20  C4  UNL     1      24.223 -18.572  16.381  1.00  0.00     0.061 C
BRANCH  20  21
HETATM   21  C3  UNL     1      23.957 -19.877  17.023  1.00  0.00     0.004 C
BRANCH  21  22
HETATM   22  C2  UNL     1      24.613 -20.154  18.326  1.00  0.00    -0.004 C
HETATM   23  C1  UNL     1      23.520 -20.438  19.374  1.00  0.00     0.005 C
ENDBRANCH  21  22
ENDBRANCH  20  21
ENDBRANCH   1  20
BRANCH   5  24
HETATM   24  O4  UNL     1      23.507 -17.021  20.028  1.00  0.00    -0.390 OA
ATOM     25  H4  UNL     1      24.418 -17.272  19.925  1.00  0.00     0.210 HD
ENDBRANCH   5  24
BRANCH   6  26
HETATM   26  C19 UNL     1      25.535 -14.775  18.599  1.00  0.00    -0.002 A
HETATM   27  C20 UNL     1      25.669 -13.409  18.522  1.00  0.00     0.015 A
HETATM   28  C21 UNL     1      26.880 -12.774  18.809  1.00  0.00     0.046 A
HETATM   29  C22 UNL     1      27.962 -13.509  19.176  1.00  0.00     0.156 A
HETATM   30  F1  UNL     1      29.139 -12.860  19.453  1.00  0.00    -0.203 F
HETATM   31  C23 UNL     1      27.859 -14.865  19.262  1.00  0.00     0.177 A
HETATM   32  F2  UNL     1      28.945 -15.575  19.629  1.00  0.00    -0.201 F
HETATM   33  C24 UNL     1      26.657 -15.481  18.976  1.00  0.00     0.084 A
HETATM   34 CL1  UNL     1      26.600 -17.215  19.107  1.00  0.00    -0.080 Cl
ENDBRANCH   6  26
TORSDOF 11
ENDMDL