MODEL 3
REMARK VINA RESULT: -9.865317582      1.216      3.451
REMARK  10 active torsions:
REMARK  status: ('A' for Active; 'I' for Inactive)
REMARK    1  A    between atoms: C6_8  and  O1_9
REMARK    2  A    between atoms: O1_9  and  C7_10
REMARK    3  A    between atoms: C9_12  and  O2_13
REMARK    4  A    between atoms: O2_13  and  C10_14
REMARK    5  A    between atoms: C10_14  and  C13_17
REMARK    6  A    between atoms: C13_17  and  C14_18
REMARK    7  A    between atoms: C14_18  and  N1_19
REMARK    8  A    between atoms: C18_25  and  N3_26
REMARK    9  A    between atoms: C19_31  and  C20_32
REMARK   10  A    between atoms: C20_32  and  C21_33
ROOT
HETATM    1  C7  UNL     1      20.671 -17.247  18.518  1.00  0.00     0.167 A
HETATM    2  C8  UNL     1      19.780 -16.242  18.193  1.00  0.00     0.113 A
HETATM    3  C9  UNL     1      18.441 -16.279  18.507  1.00  0.00     0.162 A
HETATM    4  N2  UNL     1      18.009 -17.356  19.165  1.00  0.00    -0.171 N
ATOM      5  H2  UNL     1      17.023 -17.422  19.419  1.00  0.00     0.186 HD
HETATM    6  C18 UNL     1      18.852 -18.370  19.505  1.00  0.00     0.679 A
HETATM    7  N4  UNL     1      20.147 -18.319  19.191  1.00  0.00    -0.170 N
ATOM      8  H4  UNL     1      20.757 -19.091  19.455  1.00  0.00     0.186 HD
ENDROOT
BRANCH   1   9
HETATM    9  O1  UNL     1      22.000 -17.236  18.215  1.00  0.00    -0.289 OA
BRANCH   9  10
HETATM   10  C6  UNL     1      23.009 -16.540  18.830  1.00  0.00     0.123 A
HETATM   11  C5  UNL     1      23.059 -15.178  18.756  1.00  0.00     0.153 A
HETATM   12  C4  UNL     1      24.105 -14.523  19.397  1.00  0.00     0.088 A
HETATM   13  F2  UNL     1      22.121 -14.444  18.070  1.00  0.00    -0.203 F
HETATM   14  C3  UNL     1      25.034 -15.271  20.068  1.00  0.00     0.126 A
HETATM   15  C2  UNL     1      24.985 -16.670  20.142  1.00  0.00    -0.014 A
HETATM   16  F1  UNL     1      26.061 -14.654  20.698  1.00  0.00    -0.205 F
HETATM   17  C1  UNL     1      26.088 -17.383  20.831  1.00  0.00     0.052 C
HETATM   18  C19 UNL     1      23.966 -17.306  19.522  1.00  0.00    -0.012 A
BRANCH  18  19
HETATM   19  C20 UNL     1      23.750 -18.748  19.561  1.00  0.00     0.047 C
BRANCH  19  20
HETATM   20  C21 UNL     1      24.549 -19.635  18.699  1.00  0.00    -0.007 C
HETATM   21  C22 UNL     1      25.532 -19.096  17.755  1.00  0.00     0.008 C
HETATM   22  C23 UNL     1      24.797 -18.780  16.465  1.00  0.00     0.037 C
HETATM   23  C24 UNL     1      23.453 -19.467  16.565  1.00  0.00     0.170 C
HETATM   24  F3  UNL     1      23.156 -20.142  15.414  1.00  0.00    -0.249 F
HETATM   25  C25 UNL     1      23.538 -20.366  17.778  1.00  0.00     0.042 C
ENDBRANCH  19  20
ENDBRANCH  18  19
ENDBRANCH   9  10
ENDBRANCH   1   9
BRANCH   3  26
HETATM   26  O2  UNL     1      17.544 -15.280  18.180  1.00  0.00    -0.325 OA
BRANCH  26  27
HETATM   27  C10 UNL     1      16.169 -15.361  18.494  1.00  0.00     0.064 C
HETATM   28  C11 UNL     1      15.989 -14.728  19.922  1.00  0.00     0.046 C
HETATM   29  C12 UNL     1      15.266 -14.549  17.632  1.00  0.00     0.046 C
BRANCH  27  30
HETATM   30  C13 UNL     1      15.785 -16.786  18.677  1.00  0.00     0.068 C
BRANCH  30  31
HETATM   31  C14 UNL     1      14.367 -17.057  18.907  1.00  0.00     0.275 C
BRANCH  31  32
HETATM   32  N1  UNL     1      14.053 -17.983  19.942  1.00  0.00     0.088 N
HETATM   33  C15 UNL     1      15.023 -17.814  21.098  1.00  0.00     0.274 C
HETATM   34  C16 UNL     1      14.805 -19.290  21.331  1.00  0.00     0.060 C
HETATM   35  C17 UNL     1      14.785 -19.281  19.786  1.00  0.00     0.274 C
ENDBRANCH  31  32
ENDBRANCH  30  31
ENDBRANCH  27  30
ENDBRANCH  26  27
ENDBRANCH   3  26
BRANCH   6  36
HETATM   36  N3  UNL     1      18.385 -19.398  20.153  1.00  0.00    -0.234 N
ATOM     37  H32 UNL     1      17.860 -20.115  19.651  1.00  0.00     0.174 HD
ATOM     38  H31 UNL     1      18.555 -19.477  21.155  1.00  0.00     0.174 HD
ENDBRANCH   6  36
TORSDOF 10
ENDMDL