MODEL 1
REMARK VINA RESULT: -7.105659388      0.000      0.000
REMARK  5 active torsions:
REMARK  status: ('A' for Active; 'I' for Inactive)
REMARK    1  A    between atoms: O1_1  and  C1_3
REMARK    2  A    between atoms: C1_3  and  C2_4
REMARK    3  A    between atoms: C2_4  and  N1_5
REMARK    4  A    between atoms: C9_12  and  N2_13
REMARK    5  A    between atoms: C12_16  and  O2_17
ROOT
HETATM    1  C2  UNL     1      13.903   8.636   1.331  1.00  0.00     0.182 C
HETATM    2  C7  UNL     1      12.528   9.050   1.770  1.00  0.00     0.046 C
HETATM    3  C8  UNL     1      12.665   9.081   3.277  1.00  0.00     0.038 C
HETATM    4  C9  UNL     1      14.007   9.707   3.437  1.00  0.00     0.225 C
HETATM    5  C15 UNL     1      14.846   8.895   2.485  1.00  0.00     0.079 C
ENDROOT
BRANCH   1   6
HETATM    6  C1  UNL     1      13.880   7.143   1.085  1.00  0.00     0.206 C
BRANCH   6   7
HETATM    7  O1  UNL     1      14.403   6.771  -0.146  1.00  0.00    -0.398 OA
ATOM      8  H1  UNL     1      13.742   6.618  -0.811  1.00  0.00     0.209 HD
ENDBRANCH   6   7
ENDBRANCH   1   6
BRANCH   1   9
HETATM    9  N1  UNL     1      14.362   9.296   0.153  1.00  0.00     0.100 N
HETATM   10  C3  UNL     1      13.361  10.024  -0.558  1.00  0.00     0.273 C
HETATM   11  C4  UNL     1      14.091  11.225  -1.173  1.00  0.00     0.032 C
HETATM   12  C5  UNL     1      15.552  10.867  -1.018  1.00  0.00     0.032 C
HETATM   13  C6  UNL     1      15.493  10.159   0.346  1.00  0.00     0.273 C
ENDBRANCH   1   9
BRANCH   4  14
HETATM   14  N2  UNL     1      14.512   9.716   4.771  1.00  0.00     0.093 N
HETATM   15  C10 UNL     1      13.766   8.864   5.630  1.00  0.00     0.275 C
HETATM   16  C11 UNL     1      14.001   9.381   7.055  1.00  0.00     0.062 C
HETATM   17  C12 UNL     1      15.466   9.374   7.333  1.00  0.00     0.121 C
HETATM   18  C13 UNL     1      16.315   8.943   6.176  1.00  0.00     0.062 C
HETATM   19  C14 UNL     1      15.935   9.567   4.873  1.00  0.00     0.275 C
BRANCH  17  20
HETATM   20  O2  UNL     1      15.688   8.446   8.371  1.00  0.00    -0.395 OA
ATOM     21  H2  UNL     1      16.609   8.213   8.347  1.00  0.00     0.210 HD
ENDBRANCH  17  20
ENDBRANCH   4  14
TORSDOF 5
ENDMDL