MODEL 3
REMARK VINA RESULT: -7.562810534      2.161      3.729
REMARK  4 active torsions:
REMARK  status: ('A' for Active; 'I' for Inactive)
REMARK       I    between atoms: C1_2  and  N1_3
REMARK    1  A    between atoms: C1_2  and  C8_11
REMARK    2  A    between atoms: N1_3  and  C2_5
REMARK    3  A    between atoms: C8_11  and  O2_12
REMARK    4  A    between atoms: C8_11  and  C9_14
ROOT
HETATM    1  C8  UNL     1      16.823  10.603   2.000  1.00  0.00     0.241 C
ENDROOT
BRANCH   1   2
HETATM    2  C1  UNL     1      16.204  10.966   0.702  1.00  0.00     0.249 C
HETATM    3  O1  UNL     1      16.369  12.123   0.216  1.00  0.00    -0.271 OA
HETATM    4  N1  UNL     1      15.410  10.060  -0.052  1.00  0.00    -0.354 N
ATOM      5  H1  UNL     1      15.260   9.121   0.315  1.00  0.00     0.162 HD
BRANCH   4   6
HETATM    6  C2  UNL     1      14.805  10.414  -1.317  1.00  0.00     0.084 C
HETATM    7  C3  UNL     1      15.806  10.137  -2.405  1.00  0.00     0.025 C
HETATM    8  C4  UNL     1      15.241  10.190  -3.780  1.00  0.00     0.002 C
HETATM    9  C5  UNL     1      13.858   9.670  -3.922  1.00  0.00     0.000 C
HETATM   10  C6  UNL     1      12.923  10.074  -2.820  1.00  0.00     0.002 C
HETATM   11  C7  UNL     1      13.540   9.574  -1.513  1.00  0.00     0.025 C
ENDBRANCH   4   6
ENDBRANCH   1   2
BRANCH   1  12
HETATM   12  O2  UNL     1      17.935   9.808   1.816  1.00  0.00    -0.383 OA
ATOM     13  H2  UNL     1      17.693   8.893   1.734  1.00  0.00     0.210 HD
ENDBRANCH   1  12
BRANCH   1  14
HETATM   14  C9  UNL     1      15.803   9.794   2.770  1.00  0.00     0.188 C
HETATM   15  O3  UNL     1      14.552  10.455   2.786  1.00  0.00    -0.378 OA
HETATM   16  C10 UNL     1      13.650   9.494   3.299  1.00  0.00     0.200 C
HETATM   17  C11 UNL     1      14.108   9.099   4.682  1.00  0.00     0.145 C
HETATM   18  C12 UNL     1      14.341  10.371   5.461  1.00  0.00     0.036 C
HETATM   19  O4  UNL     1      15.374   8.523   4.685  1.00  0.00    -0.376 OA
HETATM   20  C13 UNL     1      15.765  10.708   5.099  1.00  0.00     0.037 C
HETATM   21  C14 UNL     1      16.187   9.567   4.199  1.00  0.00     0.154 C
ENDBRANCH   1  14
TORSDOF 4
ENDMDL