MODEL 4
REMARK VINA RESULT: -7.030816157      3.482      5.412
REMARK  5 active torsions:
REMARK  status: ('A' for Active; 'I' for Inactive)
REMARK    1  A    between atoms: C4_4  and  O1_5
REMARK    2  A    between atoms: N1_8  and  C6_9
REMARK    3  A    between atoms: C6_9  and  C7_10
REMARK    4  A    between atoms: C7_10  and  C8_11
REMARK    5  A    between atoms: C8_11  and  O2_12
ROOT
HETATM    1  C7  UNL     1      19.190   9.900  -0.663  1.00  0.00     0.069 C
ENDROOT
BRANCH   1   2
HETATM    2  C6  UNL     1      18.080  10.530  -1.384  1.00  0.00     0.275 C
BRANCH   2   3
HETATM    3  N1  UNL     1      16.743  10.294  -1.070  1.00  0.00     0.091 N
HETATM    4  C5  UNL     1      15.796  10.153  -2.118  1.00  0.00     0.303 C
HETATM    5  C4  UNL     1      14.557   9.440  -1.627  1.00  0.00     0.146 C
HETATM    6  C3  UNL     1      14.475   9.391  -0.126  1.00  0.00     0.039 C
HETATM    7  C2  UNL     1      15.040  10.576   0.573  1.00  0.00     0.012 C
HETATM    8  C1  UNL     1      15.462  10.113   1.976  1.00  0.00     0.012 C
HETATM    9  C15 UNL     1      16.198  11.230  -0.102  1.00  0.00     0.277 C
BRANCH   5  10
HETATM   10  O1  UNL     1      13.397  10.058  -2.115  1.00  0.00    -0.394 OA
ATOM     11  H1  UNL     1      12.684   9.432  -2.079  1.00  0.00     0.210 HD
ENDBRANCH   5  10
ENDBRANCH   2   3
ENDBRANCH   1   2
BRANCH   1  12
HETATM   12  C8  UNL     1      19.938  10.685   0.347  1.00  0.00     0.069 C
HETATM   13  C9  UNL     1      19.325  10.890   1.670  1.00  0.00     0.039 C
HETATM   14  C10 UNL     1      19.167   9.717   2.566  1.00  0.00     0.010 C
HETATM   15  C11 UNL     1      20.324   8.765   2.624  1.00  0.00     0.079 C
HETATM   16  C12 UNL     1      21.177   8.835   1.410  1.00  0.00     0.133 C
HETATM   17  O3  UNL     1      21.770   7.817   1.101  1.00  0.00    -0.297 OA
HETATM   18  C13 UNL     1      21.334  10.036   0.589  1.00  0.00     0.085 C
HETATM   19  C14 UNL     1      22.209  11.097   1.181  1.00  0.00     0.021 C
BRANCH  12  20
HETATM   20  O2  UNL     1      20.234  11.982  -0.188  1.00  0.00    -0.389 OA
ATOM     21  H2  UNL     1      21.047  12.298   0.190  1.00  0.00     0.210 HD
ENDBRANCH  12  20
ENDBRANCH   1  12
TORSDOF 5
ENDMDL