MODEL 3
REMARK VINA RESULT: -7.863039121      1.094      1.265
REMARK  3 active torsions:
REMARK  status: ('A' for Active; 'I' for Inactive)
REMARK    1  A    between atoms: C2_3  and  N2_4
REMARK    2  A    between atoms: C8_11  and  N4_12
REMARK       I    between atoms: N4_12  and  C9_14
REMARK       I    between atoms: C9_14  and  N5_16
REMARK    3  A    between atoms: N5_16  and  C10_18
ROOT
HETATM    1  N1  UNL     1      13.510   7.882   2.431  1.00  0.00    -0.191 NA
HETATM    2  C1  UNL     1      13.711   9.013   2.603  1.00  0.00     0.105 C
HETATM    3  C2  UNL     1      13.942  10.461   2.826  1.00  0.00     0.186 C
ENDROOT
BRANCH   3   4
HETATM    4  N2  UNL     1      15.321  10.687   2.933  1.00  0.00    -0.338 N
HETATM    5  C3  UNL     1      15.935  10.689   4.198  1.00  0.00     0.066 C
HETATM    6  C4  UNL     1      16.923   9.544   4.253  1.00  0.00     0.046 C
HETATM    7  C5  UNL     1      17.902   9.575   3.138  1.00  0.00     0.028 C
HETATM    8  C6  UNL     1      17.556  10.394   1.952  1.00  0.00     0.136 C
HETATM    9  C7  UNL     1      18.453  11.568   1.830  1.00  0.00     0.068 C
HETATM   10  C8  UNL     1      16.121  10.761   1.779  1.00  0.00     0.210 C
HETATM   11  N3  UNL     1      19.151  12.496   1.731  1.00  0.00    -0.197 NA
BRANCH  10  12
HETATM   12  N4  UNL     1      15.492   9.943   0.730  1.00  0.00    -0.320 N
HETATM   13  C9  UNL     1      15.003  10.557  -0.449  1.00  0.00     0.318 C
HETATM   14  O1  UNL     1      15.108  11.803  -0.594  1.00  0.00    -0.247 OA
HETATM   15  N5  UNL     1      14.387   9.833  -1.498  1.00  0.00    -0.338 N
ATOM     16  H5  UNL     1      14.292   8.823  -1.398  1.00  0.00     0.164 HD
ATOM     17  H4  UNL     1      15.409   8.934   0.852  1.00  0.00     0.166 HD
BRANCH  15  18
HETATM   18  C10 UNL     1      13.889  10.451  -2.696  1.00  0.00     0.086 C
HETATM   19  C11 UNL     1      12.568   9.923  -3.136  1.00  0.00     0.025 C
HETATM   20  C12 UNL     1      12.762   9.440  -4.545  1.00  0.00     0.002 C
HETATM   21  C13 UNL     1      14.239   9.184  -4.720  1.00  0.00     0.002 C
HETATM   22  C14 UNL     1      14.838  10.297  -3.864  1.00  0.00     0.025 C
ENDBRANCH  15  18
ENDBRANCH  10  12
ENDBRANCH   3   4
TORSDOF 3
ENDMDL