MODEL 2
REMARK VINA RESULT: -6.852637253      2.056      5.028
REMARK  6 active torsions:
REMARK  status: ('A' for Active; 'I' for Inactive)
REMARK    1  A    between atoms: N1_1  and  N2_4
REMARK    2  A    between atoms: C5_9  and  N3_10
REMARK    3  A    between atoms: N3_10  and  C6_12
REMARK    4  A    between atoms: C6_12  and  C7_13
REMARK    5  A    between atoms: C7_13  and  C8_14
REMARK    6  A    between atoms: C8_14  and  O1_15
ROOT
HETATM    1  N2  UNL     1      16.728  10.608  -0.525  1.00  0.00    -0.250 N
HETATM    2  C1  UNL     1      15.549  10.250  -1.112  1.00  0.00     0.042 A
HETATM    3  C2  UNL     1      14.383  10.150  -0.405  1.00  0.00    -0.026 A
HETATM    4  C3  UNL     1      14.431  10.426   0.942  1.00  0.00    -0.040 A
HETATM    5  C4  UNL     1      15.607  10.782   1.520  1.00  0.00    -0.006 A
HETATM    6  C5  UNL     1      16.816  10.883   0.773  1.00  0.00     0.129 A
HETATM    7  C9  UNL     1      15.342  11.018   2.983  1.00  0.00     0.043 C
HETATM    8  C10 UNL     1      14.155  10.111   3.221  1.00  0.00     0.009 C
HETATM    9  C11 UNL     1      13.335  10.402   1.957  1.00  0.00     0.040 C
HETATM   10  C12 UNL     1      13.086   9.763  -1.023  1.00  0.00     0.041 C
HETATM   11  C13 UNL     1      12.987  10.102  -2.471  1.00  0.00     0.005 C
HETATM   12  C14 UNL     1      14.233  10.637  -3.085  1.00  0.00     0.006 C
HETATM   13  C15 UNL     1      15.487   9.950  -2.563  1.00  0.00     0.060 C
ENDROOT
BRANCH   6  14
HETATM   14  N3  UNL     1      17.823  11.216   1.415  1.00  0.00    -0.374 N
ATOM     15  H3  UNL     1      17.994  12.221   1.370  1.00  0.00     0.161 HD
BRANCH  14  16
HETATM   16  C6  UNL     1      18.771  10.559   2.177  1.00  0.00     0.123 C
BRANCH  16  17
HETATM   17  C7  UNL     1      20.142  11.260   2.155  1.00  0.00     0.045 C
BRANCH  17  18
HETATM   18  C8  UNL     1      20.769  10.936   0.832  1.00  0.00     0.165 C
BRANCH  18  19
HETATM   19  O1  UNL     1      20.354  11.832  -0.147  1.00  0.00    -0.401 OA
ATOM     20  H1  UNL     1      19.660  11.458  -0.677  1.00  0.00     0.209 HD
ENDBRANCH  18  19
ENDBRANCH  17  18
ENDBRANCH  16  17
ENDBRANCH  14  16
ENDBRANCH   6  14
BRANCH   1  21
HETATM   21  N1  UNL     1      17.879  10.684  -1.327  1.00  0.00    -0.337 N
ATOM     22  H12 UNL     1      17.947  10.103  -2.163  1.00  0.00     0.177 HD
ATOM     23  H11 UNL     1      18.623  11.324  -1.049  1.00  0.00     0.177 HD
ENDBRANCH   1  21
TORSDOF 6
ENDMDL