MODEL 2
REMARK VINA RESULT: -6.553550394      4.293      4.946
REMARK  4 active torsions:
REMARK  status: ('A' for Active; 'I' for Inactive)
REMARK    1  A    between atoms: C1_2  and  C2_3
REMARK       I    between atoms: C1_2  and  N2_10
REMARK    2  A    between atoms: C2_3  and  N1_4
REMARK    3  A    between atoms: N2_10  and  C8_12
REMARK    4  A    between atoms: C13_18  and  O2_19
ROOT
HETATM    1  O1  UNL     1      13.529   7.701   0.312  1.00  0.00    -0.272 OA
HETATM    2  C1  UNL     1      14.406   8.612   0.054  1.00  0.00     0.246 C
HETATM    3  N2  UNL     1      14.982   9.313   1.144  1.00  0.00    -0.352 N
ATOM      4  H2  UNL     1      15.674  10.045   0.980  1.00  0.00     0.163 HD
ENDROOT
BRANCH   3   5
HETATM    5  C8  UNL     1      14.573   8.975   2.498  1.00  0.00     0.114 C
HETATM    6  C9  UNL     1      13.405   9.824   2.918  1.00  0.00     0.038 C
HETATM    7  C10 UNL     1      13.695  11.257   3.156  1.00  0.00     0.076 C
HETATM    8  S1  UNL     1      15.327  11.637   3.783  1.00  0.00    -0.169 SA
HETATM    9  C11 UNL     1      15.697  10.615   5.235  1.00  0.00     0.076 C
HETATM   10  C12 UNL     1      15.371   9.181   4.860  1.00  0.00     0.044 C
HETATM   11  C13 UNL     1      15.749   9.011   3.413  1.00  0.00     0.141 C
BRANCH  11  12
HETATM   12  O2  UNL     1      16.422   7.781   3.303  1.00  0.00    -0.393 OA
ATOM     13  H2  UNL     1      15.959   7.145   3.835  1.00  0.00     0.210 HD
ENDBRANCH  11  12
ENDBRANCH   3   5
BRANCH   2  14
HETATM   14  C2  UNL     1      14.683   8.797  -1.368  1.00  0.00     0.374 C
BRANCH  14  15
HETATM   15  N1  UNL     1      14.575  10.113  -1.899  1.00  0.00     0.097 N
HETATM   16  C3  UNL     1      13.147  10.408  -2.042  1.00  0.00     0.273 C
HETATM   17  C4  UNL     1      12.459   9.623  -3.101  1.00  0.00     0.030 C
HETATM   18  C5  UNL     1      13.117   9.984  -4.430  1.00  0.00     0.003 C
HETATM   19  C6  UNL     1      14.542   9.514  -4.306  1.00  0.00     0.030 C
HETATM   20  C7  UNL     1      15.220  10.252  -3.201  1.00  0.00     0.273 C
ENDBRANCH  14  15
ENDBRANCH   2  14
TORSDOF 4
ENDMDL