MODEL 1
REMARK VINA RESULT: -7.449505193      0.000      0.000
REMARK  4 active torsions:
REMARK  status: ('A' for Active; 'I' for Inactive)
REMARK    1  A    between atoms: N1_4  and  C4_5
REMARK    2  A    between atoms: C4_5  and  C5_6
REMARK    3  A    between atoms: C5_6  and  N2_7
REMARK    4  A    between atoms: N2_7  and  C6_9
ROOT
HETATM    1  C6  UNL     1      19.592  10.616   0.494  1.00  0.00     0.174 A
HETATM    2  O1  UNL     1      20.206  11.561  -0.161  1.00  0.00    -0.219 OA
HETATM    3  N3  UNL     1      21.424  11.713   0.278  1.00  0.00    -0.263 N
ATOM      4  H3  UNL     1      22.094  12.393  -0.082  1.00  0.00     0.194 HD
HETATM    5  C7  UNL     1      21.671  10.844   1.274  1.00  0.00     0.044 A
HETATM    6  C8  UNL     1      20.495  10.136   1.417  1.00  0.00     0.021 A
HETATM    7  C9  UNL     1      20.196   9.030   2.385  1.00  0.00     0.064 C
HETATM    8  C10 UNL     1      21.180   9.092   3.529  1.00  0.00     0.118 C
HETATM    9  N4  UNL     1      22.454   8.541   3.217  1.00  0.00    -0.421 N
ATOM     10  H4  UNL     1      22.791   7.688   3.663  1.00  0.00     0.153 HD
HETATM   11  C11 UNL     1      23.237   9.234   2.255  1.00  0.00     0.120 C
HETATM   12  C12 UNL     1      22.920  10.675   2.055  1.00  0.00     0.079 C
ENDROOT
BRANCH   1  13
HETATM   13  N2  UNL     1      18.378  10.236   0.287  1.00  0.00    -0.367 N
ATOM     14  H2  UNL     1      18.097   9.331   0.664  1.00  0.00     0.161 HD
BRANCH  13  15
HETATM   15  C5  UNL     1      17.386  10.994  -0.440  1.00  0.00     0.141 C
BRANCH  15  16
HETATM   16  C4  UNL     1      16.959  10.268  -1.694  1.00  0.00     0.136 C
BRANCH  16  17
HETATM   17  N1  UNL     1      15.560  10.126  -1.854  1.00  0.00    -0.411 N
HETATM   18  C3  UNL     1      15.041  10.251  -3.177  1.00  0.00     0.117 C
HETATM   19  C2  UNL     1      13.722   9.464  -3.189  1.00  0.00     0.019 C
HETATM   20  C1  UNL     1      12.775  10.136  -2.246  1.00  0.00     0.003 C
HETATM   21  C14 UNL     1      13.429  11.229  -1.425  1.00  0.00     0.019 C
HETATM   22  C13 UNL     1      14.734  10.723  -0.854  1.00  0.00     0.117 C
ENDBRANCH  16  17
ENDBRANCH  15  16
ENDBRANCH  13  15
ENDBRANCH   1  13
TORSDOF 4
ENDMDL