MODEL 1
REMARK VINA RESULT: -7.911133209      0.000      0.000
REMARK  4 active torsions:
REMARK  status: ('A' for Active; 'I' for Inactive)
REMARK    1  A    between atoms: C3_3  and  N1_4
REMARK    2  A    between atoms: C7_8  and  O1_9
REMARK    3  A    between atoms: C7_8  and  C8_11
REMARK    4  A    between atoms: C8_11  and  C9_12
ROOT
HETATM    1  C1  UNL     1      18.733   9.869  -1.112  1.00  0.00     0.098 C
HETATM    2  C2  UNL     1      17.596  10.096  -1.519  1.00  0.00    -0.158 C
HETATM    3  C3  UNL     1      16.259  10.359  -2.037  1.00  0.00     0.355 C
ENDROOT
BRANCH   3   4
HETATM    4  N1  UNL     1      15.272   9.770  -1.214  1.00  0.00     0.133 N
HETATM    5  C4  UNL     1      14.170   9.185  -1.959  1.00  0.00     0.277 C
HETATM    6  C5  UNL     1      12.969  10.047  -1.780  1.00  0.00     0.035 C
HETATM    7  C6  UNL     1      13.593  11.302  -1.198  1.00  0.00     0.073 C
HETATM    8  C7  UNL     1      14.624  10.700  -0.263  1.00  0.00     0.261 C
BRANCH   8   9
HETATM    9  O1  UNL     1      15.493  11.644   0.191  1.00  0.00    -0.363 OA
ATOM     10  H1  UNL     1      15.243  11.969   1.047  1.00  0.00     0.212 HD
ENDBRANCH   8   9
BRANCH   8  11
HETATM   11  C8  UNL     1      14.056   9.828   0.792  1.00  0.00     0.104 C
BRANCH  11  12
HETATM   12  C9  UNL     1      14.515   9.984   2.194  1.00  0.00     0.195 C
HETATM   13  C10 UNL     1      13.684   9.405   3.270  1.00  0.00     0.075 C
HETATM   14  C11 UNL     1      14.462   9.205   4.516  1.00  0.00    -0.017 A
HETATM   15  C12 UNL     1      13.772   8.883   5.681  1.00  0.00     0.098 A
HETATM   16  C14 UNL     1      15.824   9.327   4.596  1.00  0.00     0.043 A
HETATM   17  N2  UNL     1      14.434   8.703   6.831  1.00  0.00    -0.362 N
HETATM   18  C13 UNL     1      15.777   8.825   6.901  1.00  0.00     0.180 A
ATOM     19  H2  UNL     1      13.912   8.467   7.675  1.00  0.00     0.166 HD
HETATM   20  N3  UNL     1      16.430   9.138   5.757  1.00  0.00    -0.354 N
ATOM     21  H3  UNL     1      17.445   9.234   5.792  1.00  0.00     0.166 HD
HETATM   22  C15 UNL     1      16.611   9.664   3.360  1.00  0.00     0.290 C
HETATM   23  N4  UNL     1      15.824   9.285   2.208  1.00  0.00    -0.065 N
ATOM     24  H42 UNL     1      15.708   8.274   2.150  1.00  0.00     0.278 HD
ATOM     25  H41 UNL     1      16.337   9.435   1.339  1.00  0.00     0.278 HD
ENDBRANCH  11  12
ENDBRANCH   8  11
ENDBRANCH   3   4
TORSDOF 4
ENDMDL