MODEL 2
REMARK VINA RESULT: -7.745602894      0.525      1.041
REMARK  5 active torsions:
REMARK  status: ('A' for Active; 'I' for Inactive)
REMARK    1  A    between atoms: C5_8  and  N2_9
REMARK    2  A    between atoms: N2_9  and  C6_11
REMARK    3  A    between atoms: C6_11  and  N3_13
REMARK    4  A    between atoms: N3_13  and  C7_15
REMARK    5  A    between atoms: C7_15  and  C8_16
ROOT
HETATM    1  N1  UNL     1      15.854  12.856   3.659  1.00  0.00    -0.194 NA
HETATM    2  C1  UNL     1      16.528  12.194   2.985  1.00  0.00     0.094 C
HETATM    3  C2  UNL     1      17.350  11.357   2.129  1.00  0.00     0.261 C
HETATM    4  O1  UNL     1      18.444  12.169   1.646  1.00  0.00    -0.299 OA
HETATM    5  C3  UNL     1      18.824  11.705   0.400  1.00  0.00     0.262 C
HETATM    6  O2  UNL     1      19.814  12.106  -0.240  1.00  0.00    -0.265 OA
HETATM    7  C4  UNL     1      17.861  10.659  -0.035  1.00  0.00     0.139 C
HETATM    8  C5  UNL     1      16.680  11.026   0.821  1.00  0.00     0.136 C
ENDROOT
BRANCH   8   9
HETATM    9  N2  UNL     1      15.615  10.100   0.869  1.00  0.00    -0.359 N
ATOM     10  H2  UNL     1      15.887   9.116   0.880  1.00  0.00     0.162 HD
BRANCH   9  11
HETATM   11  C6  UNL     1      14.232  10.346   0.904  1.00  0.00     0.168 C
HETATM   12  S1  UNL     1      13.370  10.299   2.313  1.00  0.00    -0.041 SA
BRANCH  11  13
HETATM   13  N3  UNL     1      13.495  10.652  -0.266  1.00  0.00    -0.367 N
ATOM     14  H3  UNL     1      12.479  10.612  -0.190  1.00  0.00     0.161 HD
BRANCH  13  15
HETATM   15  C7  UNL     1      14.033  11.013  -1.547  1.00  0.00     0.126 C
BRANCH  15  16
HETATM   16  C8  UNL     1      13.975   9.952  -2.598  1.00  0.00     0.003 C
HETATM   17  C9  UNL     1      12.579   9.848  -3.180  1.00  0.00     0.006 C
HETATM   18  C10 UNL     1      12.746   9.532  -4.647  1.00  0.00     0.000 C
HETATM   19  C11 UNL     1      14.241   9.353  -4.856  1.00  0.00     0.000 C
HETATM   20  C12 UNL     1      14.777  10.337  -3.834  1.00  0.00     0.006 C
ENDBRANCH  15  16
ENDBRANCH  13  15
ENDBRANCH  11  13
ENDBRANCH   9  11
ENDBRANCH   8   9
TORSDOF 5
ENDMDL