MODEL 1
REMARK VINA RESULT: -5.092275252      0.000      0.000
REMARK  4 active torsions:
REMARK  status: ('A' for Active; 'I' for Inactive)
REMARK    1  A    between atoms: C2_2  and  O1_3
REMARK    2  A    between atoms: O1_3  and  C3_4
REMARK    3  A    between atoms: C3_4  and  C4_6
REMARK    4  A    between atoms: N1_8  and  C6_9
ROOT
HETATM    1  C4  UNL     1     -60.213 -67.907  20.037  1.00  0.00     0.133 C
HETATM    2  C5  UNL     1     -60.796 -68.845  21.056  1.00  0.00     0.289 C
HETATM    3  N1  UNL     1     -59.743 -69.739  21.494  1.00  0.00     0.095 N
HETATM    4  C10 UNL     1     -58.492 -69.060  21.147  1.00  0.00     0.293 C
HETATM    5  C11 UNL     1     -58.821 -68.435  19.794  1.00  0.00     0.136 C
HETATM    6  C12 UNL     1     -57.872 -67.341  19.493  1.00  0.00     0.066 C
HETATM    7  N2  UNL     1     -57.117 -66.491  19.240  1.00  0.00    -0.197 NA
ENDROOT
BRANCH   1   8
HETATM    8  C3  UNL     1     -61.048 -67.875  18.835  1.00  0.00     0.266 C
HETATM    9  O2  UNL     1     -61.826 -68.816  18.583  1.00  0.00    -0.265 OA
BRANCH   8  10
HETATM   10  O1  UNL     1     -60.984 -66.805  17.968  1.00  0.00    -0.321 OA
BRANCH  10  11
HETATM   11  C2  UNL     1     -60.925 -65.460  18.403  1.00  0.00     0.174 C
HETATM   12  C1  UNL     1     -59.834 -64.670  17.740  1.00  0.00     0.034 C
ENDBRANCH  10  11
ENDBRANCH   8  10
ENDBRANCH   1   8
BRANCH   3  13
HETATM   13  C6  UNL     1     -59.730 -69.919  22.922  1.00  0.00     0.223 C
HETATM   14  C7  UNL     1     -58.320 -70.183  23.408  1.00  0.00     0.036 C
HETATM   15  C8  UNL     1     -58.706 -71.649  23.484  1.00  0.00     0.004 C
HETATM   16  C9  UNL     1     -60.179 -71.238  23.455  1.00  0.00     0.036 C
ENDBRANCH   3  13
TORSDOF 4
ENDMDL