MODEL 4
REMARK VINA RESULT: -5.202405210      1.137      1.714
REMARK  4 active torsions:
REMARK  status: ('A' for Active; 'I' for Inactive)
REMARK    1  A    between atoms: C1_2  and  O2_3
REMARK    2  A    between atoms: C1_2  and  C6_10
REMARK    3  A    between atoms: O2_3  and  C2_4
REMARK    4  A    between atoms: C2_4  and  C3_5
ROOT
HETATM    1  O1  UNL     1     -57.925 -69.365  19.726  1.00  0.00    -0.262 OA
HETATM    2  C1  UNL     1     -58.709 -69.160  20.688  1.00  0.00     0.294 C
ENDROOT
BRANCH   2   3
HETATM    3  O2  UNL     1     -59.402 -67.982  20.728  1.00  0.00    -0.316 OA
BRANCH   3   4
HETATM    4  C2  UNL     1     -60.645 -67.882  20.081  1.00  0.00     0.213 C
BRANCH   4   5
HETATM    5  C3  UNL     1     -60.640 -66.839  18.986  1.00  0.00     0.172 C
HETATM    6  C4  UNL     1     -61.234 -67.357  17.709  1.00  0.00     0.204 C
HETATM    7  O3  UNL     1     -60.132 -67.862  17.037  1.00  0.00    -0.364 OA
HETATM    8  C5  UNL     1     -59.082 -67.024  17.391  1.00  0.00     0.338 C
HETATM    9  O4  UNL     1     -59.374 -66.465  18.608  1.00  0.00    -0.357 OA
ENDBRANCH   4   5
ENDBRANCH   3   4
ENDBRANCH   2   3
BRANCH   2  10
HETATM   10  C6  UNL     1     -58.815 -70.228  21.710  1.00  0.00     0.154 C
HETATM   11  C7  UNL     1     -59.682 -71.338  21.218  1.00  0.00     0.076 C
HETATM   12  C8  UNL     1     -59.605 -72.466  22.214  1.00  0.00    -0.025 C
HETATM   13  C9  UNL     1     -58.932 -72.204  23.322  1.00  0.00     0.001 C
HETATM   14  C10 UNL     1     -58.328 -70.859  23.485  1.00  0.00     0.149 C
HETATM   15  C11 UNL     1     -59.291 -69.772  23.060  1.00  0.00     0.085 C
HETATM   16  O5  UNL     1     -57.630 -70.615  22.279  1.00  0.00    -0.360 OA
ENDBRANCH   2  10
TORSDOF 4
ENDMDL