MODEL 3
REMARK VINA RESULT: -4.641055127      2.276      5.602
REMARK  3 active torsions:
REMARK  status: ('A' for Active; 'I' for Inactive)
REMARK    1  A    between atoms: O1_2  and  C2_3
REMARK    2  A    between atoms: C4_6  and  C5_7
REMARK    3  A    between atoms: C5_7  and  N1_9
ROOT
HETATM    1  C5  UNL     1     -58.829 -67.918  19.674  1.00  0.00     0.258 C
HETATM    2  C6  UNL     1     -57.985 -69.072  19.220  1.00  0.00     0.046 C
ENDROOT
BRANCH   1   3
HETATM    3  C4  UNL     1     -59.788 -68.419  20.717  1.00  0.00     0.219 C
HETATM    4  S1  UNL     1     -60.267 -70.165  20.403  1.00  0.00    -0.130 SA
HETATM    5  C3  UNL     1     -60.248 -70.571  22.199  1.00  0.00     0.137 C
HETATM    6  C2  UNL     1     -59.347 -69.479  22.690  1.00  0.00     0.270 C
HETATM    7  O3  UNL     1     -59.413 -68.369  21.991  1.00  0.00    -0.343 OA
BRANCH   6   8
HETATM    8  O1  UNL     1     -58.073 -70.033  22.824  1.00  0.00    -0.365 OA
HETATM    9  C1  UNL     1     -58.096 -71.318  23.360  1.00  0.00     0.204 C
ENDBRANCH   6   8
ENDBRANCH   1   3
BRANCH   1  10
HETATM   10  N1  UNL     1     -59.551 -67.356  18.585  1.00  0.00     0.100 N
HETATM   11  C7  UNL     1     -60.684 -66.574  18.931  1.00  0.00     0.299 C
HETATM   12  C8  UNL     1     -61.004 -65.461  17.970  1.00  0.00     0.198 C
HETATM   13  O2  UNL     1     -59.944 -64.709  17.582  1.00  0.00    -0.388 OA
HETATM   14  C9  UNL     1     -58.700 -65.267  17.822  1.00  0.00     0.198 C
HETATM   15  C10 UNL     1     -58.795 -66.737  17.556  1.00  0.00     0.299 C
ENDBRANCH   1  10
TORSDOF 3
ENDMDL