MODEL 5
REMARK VINA RESULT: -4.169956629      5.044      7.169
REMARK  4 active torsions:
REMARK  status: ('A' for Active; 'I' for Inactive)
REMARK    1  A    between atoms: O1_2  and  C2_3
REMARK    2  A    between atoms: C2_3  and  C3_5
REMARK    3  A    between atoms: C3_5  and  C4_6
REMARK    4  A    between atoms: C4_6  and  N1_7
ROOT
HETATM    1  C3  UNL     1     -55.990 -66.002  17.110  1.00  0.00     0.123 C
HETATM    2  C9  UNL     1     -54.757 -66.888  16.999  1.00  0.00     0.043 C
HETATM    3  C10 UNL     1     -55.162 -67.808  15.871  1.00  0.00     0.077 C
HETATM    4  S1  UNL     1     -56.863 -67.283  16.109  1.00  0.00    -0.147 SA
ENDROOT
BRANCH   1   5
HETATM    5  C2  UNL     1     -56.531 -66.007  18.462  1.00  0.00     0.279 C
HETATM    6  O2  UNL     1     -55.776 -65.682  19.425  1.00  0.00    -0.263 OA
BRANCH   5   7
HETATM    7  O1  UNL     1     -57.824 -66.342  18.822  1.00  0.00    -0.325 OA
HETATM    8  C1  UNL     1     -58.097 -67.396  19.728  1.00  0.00     0.213 C
ENDBRANCH   5   7
ENDBRANCH   1   5
BRANCH   1   9
HETATM    9  C4  UNL     1     -55.946 -64.761  16.314  1.00  0.00     0.303 C
BRANCH   9  10
HETATM   10  N1  UNL     1     -55.083 -63.706  16.661  1.00  0.00     0.094 N
HETATM   11  C5  UNL     1     -55.627 -62.426  16.931  1.00  0.00     0.298 C
HETATM   12  C6  UNL     1     -54.893 -61.319  16.141  1.00  0.00     0.198 C
HETATM   13  O3  UNL     1     -53.537 -61.381  16.336  1.00  0.00    -0.388 OA
HETATM   14  C7  UNL     1     -53.050 -62.574  15.820  1.00  0.00     0.198 C
HETATM   15  C8  UNL     1     -54.099 -63.597  15.580  1.00  0.00     0.298 C
ENDBRANCH   9  10
ENDBRANCH   1   9
TORSDOF 4
ENDMDL