MODEL 3
REMARK VINA RESULT: -4.289058495      2.313      2.607
REMARK  5 active torsions:
REMARK  status: ('A' for Active; 'I' for Inactive)
REMARK    1  A    between atoms: O1_2  and  C2_3
REMARK    2  A    between atoms: C2_3  and  C3_4
REMARK    3  A    between atoms: C3_4  and  O2_5
REMARK    4  A    between atoms: O2_5  and  C4_6
REMARK    5  A    between atoms: C4_6  and  N1_8
ROOT
HETATM    1  N1  UNL     1     -59.270 -69.477  20.683  1.00  0.00    -0.218 N
HETATM    2  O3  UNL     1     -59.051 -70.808  20.754  1.00  0.00    -0.249 OA
HETATM    3  C5  UNL     1     -57.867 -70.985  21.469  1.00  0.00     0.370 C
HETATM    4  O4  UNL     1     -57.770 -70.155  22.570  1.00  0.00    -0.362 OA
HETATM    5  C6  UNL     1     -59.050 -69.785  23.029  1.00  0.00     0.198 C
HETATM    6  C7  UNL     1     -59.591 -68.826  21.958  1.00  0.00     0.138 C
HETATM    7  C8  UNL     1     -61.066 -68.713  22.153  1.00  0.00     0.037 C
ENDROOT
BRANCH   1   8
HETATM    8  C4  UNL     1     -59.192 -68.780  19.470  1.00  0.00     0.237 C
HETATM    9  S1  UNL     1     -57.928 -67.778  19.233  1.00  0.00    -0.031 SA
BRANCH   8  10
HETATM   10  O2  UNL     1     -60.128 -68.905  18.476  1.00  0.00    -0.323 OA
BRANCH  10  11
HETATM   11  C3  UNL     1     -61.343 -68.219  18.397  1.00  0.00     0.204 C
BRANCH  11  12
HETATM   12  C2  UNL     1     -61.245 -66.900  17.679  1.00  0.00     0.193 C
BRANCH  12  13
HETATM   13  O1  UNL     1     -61.002 -65.829  18.503  1.00  0.00    -0.394 OA
HETATM   14  C1  UNL     1     -60.248 -64.846  17.908  1.00  0.00     0.201 C
ENDBRANCH  12  13
ENDBRANCH  11  12
ENDBRANCH  10  11
ENDBRANCH   8  10
ENDBRANCH   1   8
TORSDOF 5
ENDMDL