MODEL 5
REMARK VINA RESULT: -5.468969448      5.006      8.465
REMARK  3 active torsions:
REMARK  status: ('A' for Active; 'I' for Inactive)
REMARK    1  A    between atoms: C1_2  and  C2_4
REMARK    2  A    between atoms: N1_8  and  C5_9
REMARK    3  A    between atoms: C5_9  and  C6_10
ROOT
HETATM    1  C2  UNL     1     -57.022 -65.129  17.511  1.00  0.00     0.391 C
HETATM    2  O3  UNL     1     -58.344 -64.989  17.932  1.00  0.00    -0.345 OA
HETATM    3  C3  UNL     1     -59.007 -64.383  16.861  1.00  0.00     0.218 C
HETATM    4  C4  UNL     1     -58.261 -63.229  16.292  1.00  0.00     0.116 C
HETATM    5  N1  UNL     1     -56.993 -62.956  16.840  1.00  0.00    -0.268 N
HETATM    6  O4  UNL     1     -56.438 -63.874  17.597  1.00  0.00    -0.235 OA
ENDROOT
BRANCH   5   7
HETATM    7  C5  UNL     1     -56.065 -62.320  15.936  1.00  0.00     0.159 C
BRANCH   7   8
HETATM    8  C6  UNL     1     -54.645 -62.580  16.406  1.00  0.00     0.006 C
HETATM    9  C7  UNL     1     -53.866 -61.304  16.532  1.00  0.00     0.006 C
HETATM   10  C8  UNL     1     -53.801 -60.654  15.181  1.00  0.00     0.000 C
HETATM   11  C9  UNL     1     -53.072 -61.593  14.243  1.00  0.00     0.000 C
HETATM   12  C10 UNL     1     -52.658 -62.875  14.909  1.00  0.00     0.000 C
HETATM   13  C11 UNL     1     -53.905 -63.511  15.508  1.00  0.00     0.006 C
ENDBRANCH   7   8
ENDBRANCH   5   7
BRANCH   1  14
HETATM   14  C1  UNL     1     -56.302 -66.103  18.323  1.00  0.00     0.233 C
HETATM   15  O1  UNL     1     -56.161 -67.284  17.914  1.00  0.00    -0.644 OA
HETATM   16  O2  UNL     1     -55.784 -65.698  19.545  1.00  0.00    -0.644 OA
ENDBRANCH   1  14
TORSDOF 3
ENDMDL