MODEL 5
REMARK VINA RESULT: -4.716060284      2.046      3.258
REMARK  3 active torsions:
REMARK  status: ('A' for Active; 'I' for Inactive)
REMARK    1  A    between atoms: O1_2  and  C2_3
REMARK    2  A    between atoms: C2_3  and  C3_4
REMARK    3  A    between atoms: C8_11  and  C9_12
ROOT
HETATM    1  C3  UNL     1     -58.302 -68.118  20.141  1.00  0.00     0.154 C
HETATM    2  O2  UNL     1     -59.284 -67.724  21.056  1.00  0.00    -0.375 OA
HETATM    3  C4  UNL     1     -60.106 -68.819  20.814  1.00  0.00     0.164 C
HETATM    4  C5  UNL     1     -58.967 -69.475  20.113  1.00  0.00     0.076 C
HETATM    5  C6  UNL     1     -58.385 -70.419  21.103  1.00  0.00     0.282 C
HETATM    6  N1  UNL     1     -59.138 -70.291  22.282  1.00  0.00     0.092 N
HETATM    7  C7  UNL     1     -58.408 -69.894  23.449  1.00  0.00     0.310 C
HETATM    8  C8  UNL     1     -60.358 -69.629  22.058  1.00  0.00     0.257 C
ENDROOT
BRANCH   8   9
HETATM    9  C9  UNL     1     -61.587 -70.491  21.970  1.00  0.00     0.047 C
HETATM   10  C10 UNL     1     -62.141 -70.408  20.540  1.00  0.00     0.035 C
HETATM   11  C11 UNL     1     -61.933 -71.780  19.959  1.00  0.00     0.168 C
HETATM   12  O3  UNL     1     -61.100 -72.467  20.835  1.00  0.00    -0.391 OA
HETATM   13  C12 UNL     1     -61.353 -71.954  22.104  1.00  0.00     0.174 C
ENDBRANCH   8   9
BRANCH   1  14
HETATM   14  C2  UNL     1     -58.344 -67.410  18.825  1.00  0.00     0.199 C
BRANCH  14  15
HETATM   15  O1  UNL     1     -58.445 -68.268  17.743  1.00  0.00    -0.393 OA
HETATM   16  C1  UNL     1     -59.249 -67.609  16.791  1.00  0.00     0.201 C
ENDBRANCH  14  15
ENDBRANCH   1  14
TORSDOF 3
ENDMDL