MODEL 2
REMARK VINA RESULT: -5.228492233      2.525      7.628
REMARK  4 active torsions:
REMARK  status: ('A' for Active; 'I' for Inactive)
REMARK    1  A    between atoms: N1_6  and  C5_7
REMARK    2  A    between atoms: C5_7  and  C6_8
REMARK    3  A    between atoms: C6_8  and  O3_10
REMARK    4  A    between atoms: O3_10  and  C7_11
ROOT
HETATM    1  C5  UNL     1     -55.537 -62.034  16.917  1.00  0.00     0.231 C
ENDROOT
BRANCH   1   2
HETATM    2  N1  UNL     1     -55.358 -63.446  16.790  1.00  0.00    -0.183 NA
HETATM    3  C4  UNL     1     -56.028 -63.868  15.568  1.00  0.00     0.147 C
HETATM    4  C3  UNL     1     -57.268 -64.647  15.932  1.00  0.00     0.187 C
HETATM    5  O1  UNL     1     -56.830 -65.854  16.514  1.00  0.00    -0.359 OA
HETATM    6  C2  UNL     1     -55.994 -65.486  17.567  1.00  0.00     0.277 C
HETATM    7  C1  UNL     1     -56.464 -66.186  18.817  1.00  0.00     0.072 C
HETATM    8  O4  UNL     1     -55.987 -64.125  17.806  1.00  0.00    -0.271 OA
ENDBRANCH   1   2
BRANCH   1   9
HETATM    9  C6  UNL     1     -54.280 -61.271  16.697  1.00  0.00     0.274 C
HETATM   10  O2  UNL     1     -53.995 -60.376  17.531  1.00  0.00    -0.264 OA
BRANCH   9  11
HETATM   11  O3  UNL     1     -53.429 -61.490  15.648  1.00  0.00    -0.315 OA
BRANCH  11  12
HETATM   12  C7  UNL     1     -53.765 -61.225  14.321  1.00  0.00     0.132 C
HETATM   13  C8  UNL     1     -53.832 -59.732  14.015  1.00  0.00     0.032 C
HETATM   14  C9  UNL     1     -53.421 -59.605  12.563  1.00  0.00     0.002 C
HETATM   15  C10 UNL     1     -53.075 -61.004  12.093  1.00  0.00     0.002 C
HETATM   16  C11 UNL     1     -52.631 -61.648  13.390  1.00  0.00     0.032 C
ENDBRANCH  11  12
ENDBRANCH   9  11
ENDBRANCH   1   9
TORSDOF 4
ENDMDL