MODEL 4
REMARK VINA RESULT: -5.163495522      1.798      2.648
REMARK  4 active torsions:
REMARK  status: ('A' for Active; 'I' for Inactive)
REMARK    1  A    between atoms: C2_2  and  C3_3
REMARK    2  A    between atoms: C2_2  and  C5_6
REMARK    3  A    between atoms: C5_6  and  O2_8
REMARK    4  A    between atoms: O2_8  and  C6_9
ROOT
HETATM    1  C3  UNL     1     -59.365 -71.897  21.960  1.00  0.00     0.167 C
HETATM    2  C4  UNL     1     -58.613 -70.955  22.783  1.00  0.00     0.064 C
HETATM    3  N1  UNL     1     -57.989 -70.208  23.444  1.00  0.00    -0.197 NA
ENDROOT
BRANCH   1   4
HETATM    4  C2  UNL     1     -60.782 -71.484  21.814  1.00  0.00     0.021 C
HETATM    5  C1  UNL     1     -61.715 -72.389  21.941  1.00  0.00     0.026 C
BRANCH   4   6
HETATM    6  C5  UNL     1     -61.155 -70.093  21.530  1.00  0.00     0.289 C
HETATM    7  O1  UNL     1     -61.829 -69.408  22.337  1.00  0.00    -0.260 OA
BRANCH   6   8
HETATM    8  O2  UNL     1     -60.771 -69.480  20.350  1.00  0.00    -0.310 OA
BRANCH   8   9
HETATM    9  C6  UNL     1     -59.949 -68.338  20.402  1.00  0.00     0.158 C
HETATM   10  C7  UNL     1     -60.632 -67.280  19.527  1.00  0.00     0.201 C
HETATM   11  O3  UNL     1     -60.066 -67.290  18.259  1.00  0.00    -0.379 OA
HETATM   12  C8  UNL     1     -58.846 -66.609  18.356  1.00  0.00     0.174 C
HETATM   13  C9  UNL     1     -57.766 -67.086  17.436  1.00  0.00     0.202 C
HETATM   14  C10 UNL     1     -57.995 -67.276  19.387  1.00  0.00     0.155 C
HETATM   15  O4  UNL     1     -56.919 -67.398  18.511  1.00  0.00    -0.381 OA
HETATM   16  C11 UNL     1     -58.579 -68.590  19.813  1.00  0.00     0.069 C
ENDBRANCH   8   9
ENDBRANCH   6   8
ENDBRANCH   4   6
ENDBRANCH   1   4
TORSDOF 4
ENDMDL