MODEL 2
REMARK VINA RESULT: -4.390364730      0.791      1.962
REMARK  5 active torsions:
REMARK  status: ('A' for Active; 'I' for Inactive)
REMARK    1  A    between atoms: N1_1  and  C1_4
REMARK    2  A    between atoms: C3_10  and  N4_11
REMARK    3  A    between atoms: N4_11  and  C4_13
REMARK    4  A    between atoms: C4_13  and  C5_14
REMARK    5  A    between atoms: C5_14  and  N5_15
ROOT
HETATM    1  C1  UNL     1      13.220  17.521 -11.653  1.00  0.00     0.691 A
HETATM    2  N2  UNL     1      13.869  17.483 -12.829  1.00  0.00    -0.187 N
ATOM      3  H2  UNL     1      14.381  18.312 -13.133  1.00  0.00     0.185 HD
HETATM    4  C2  UNL     1      13.868  16.387 -13.629  1.00  0.00     0.215 A
HETATM    5  N3  UNL     1      13.190  15.310 -13.217  1.00  0.00    -0.187 N
ATOM      6  H3  UNL     1      13.174  14.474 -13.799  1.00  0.00     0.185 HD
HETATM    7  C3  UNL     1      12.529  15.314 -12.042  1.00  0.00     0.693 A
HETATM    8  N6  UNL     1      12.552  16.419 -11.275  1.00  0.00    -0.023 N
ATOM      9  H6  UNL     1      12.051  16.421 -10.387  1.00  0.00     0.203 HD
ENDROOT
BRANCH   7  10
HETATM   10  N4  UNL     1      11.870  14.281 -11.630  1.00  0.00    -0.224 N
ATOM     11  H4  UNL     1      11.036  14.439 -11.064  1.00  0.00     0.177 HD
BRANCH  10  12
HETATM   12  C4  UNL     1      12.241  12.929 -11.921  1.00  0.00     0.165 C
BRANCH  12  13
HETATM   13  C5  UNL     1      11.892  12.068 -10.727  1.00  0.00     0.249 C
BRANCH  13  14
HETATM   14  N5  UNL     1      12.556  12.604  -9.550  1.00  0.00    -0.078 N
ATOM     15  H53 UNL     1      13.187  11.929  -9.118  1.00  0.00     0.274 HD
ATOM     16  H52 UNL     1      13.248  13.315  -9.784  1.00  0.00     0.274 HD
ATOM     17  H51 UNL     1      11.850  12.948  -8.900  1.00  0.00     0.274 HD
ENDBRANCH  13  14
ENDBRANCH  12  13
ENDBRANCH  10  12
ENDBRANCH   7  10
BRANCH   1  18
HETATM   18  N1  UNL     1      13.225  18.574 -10.894  1.00  0.00    -0.234 N
ATOM     19  H12 UNL     1      14.108  19.005 -10.620  1.00  0.00     0.174 HD
ATOM     20  H11 UNL     1      12.365  19.000 -10.550  1.00  0.00     0.174 HD
ENDBRANCH   1  18
TORSDOF 5
ENDMDL