MODEL 1
REMARK VINA RESULT: -4.083666256      0.000      0.000
REMARK  5 active torsions:
REMARK  status: ('A' for Active; 'I' for Inactive)
REMARK    1  A    between atoms: N1_2  and  C3_4
REMARK    2  A    between atoms: C3_4  and  N2_5
REMARK    3  A    between atoms: C3_4  and  C4_9
REMARK    4  A    between atoms: C3_4  and  C5_14
REMARK    5  A    between atoms: C4_9  and  N3_10
ROOT
HETATM    1  C3  UNL     1      11.990  18.128 -11.322  1.00  0.00     0.393 C
ENDROOT
BRANCH   1   2
HETATM    2  N1  UNL     1      11.970  18.568 -12.688  1.00  0.00     0.122 N
HETATM    3  C1  UNL     1      12.560  19.870 -12.870  1.00  0.00     0.312 C
HETATM    4  C2  UNL     1      12.497  17.655 -13.644  1.00  0.00     0.312 C
ENDBRANCH   1   2
BRANCH   1   5
HETATM    5  N2  UNL     1      12.206  16.701 -11.190  1.00  0.00    -0.036 N
ATOM      6  H23 UNL     1      12.337  16.267 -12.104  1.00  0.00     0.277 HD
ATOM      7  H22 UNL     1      13.120  16.508 -10.780  1.00  0.00     0.277 HD
ATOM      8  H21 UNL     1      11.465  16.234 -10.667  1.00  0.00     0.277 HD
ENDBRANCH   1   5
BRANCH   1   9
HETATM    9  C4  UNL     1      13.166  18.804 -10.608  1.00  0.00     0.306 C
BRANCH   9  10
HETATM   10  N3  UNL     1      14.083  17.833 -10.077  1.00  0.00    -0.075 N
ATOM     11  H33 UNL     1      14.952  18.270  -9.770  1.00  0.00     0.274 HD
ATOM     12  H32 UNL     1      13.765  17.469  -9.180  1.00  0.00     0.274 HD
ATOM     13  H31 UNL     1      14.258  17.083 -10.745  1.00  0.00     0.274 HD
ENDBRANCH   9  10
ENDBRANCH   1   9
BRANCH   1  14
HETATM   14  C5  UNL     1      10.789  18.492 -10.533  1.00  0.00     0.455 C
HETATM   15  N4  UNL     1      10.895  19.395  -9.437  1.00  0.00    -0.018 N
HETATM   16  C6  UNL     1       9.957  18.592  -8.640  1.00  0.00     0.468 C
ATOM     17  H42 UNL     1      11.815  19.615  -9.056  1.00  0.00     0.281 HD
ATOM     18  H41 UNL     1      10.705  20.387  -9.585  1.00  0.00     0.281 HD
HETATM   19  N5  UNL     1      10.282  17.513  -9.585  1.00  0.00    -0.018 N
ATOM     20  H52 UNL     1       9.560  16.853  -9.872  1.00  0.00     0.281 HD
ATOM     21  H51 UNL     1      10.875  16.737  -9.287  1.00  0.00     0.281 HD
ENDBRANCH   1  14
TORSDOF 5
ENDMDL