MODEL 3
REMARK VINA RESULT: -4.402552019      1.647      4.238
REMARK  6 active torsions:
REMARK  status: ('A' for Active; 'I' for Inactive)
REMARK    1  A    between atoms: N1_1  and  C1_4
REMARK    2  A    between atoms: C2_9  and  N4_10
REMARK    3  A    between atoms: N4_10  and  C3_12
REMARK    4  A    between atoms: C3_12  and  C4_13
REMARK    5  A    between atoms: C4_13  and  N5_14
REMARK    6  A    between atoms: N6_18  and  O1_19
ROOT
HETATM    1  C1  UNL     1      10.185  19.347 -10.177  1.00  0.00     0.732 A
HETATM    2  N2  UNL     1      11.090  20.307 -10.422  1.00  0.00    -0.115 N
ATOM      3  H2  UNL     1      10.895  21.308 -10.452  1.00  0.00     0.206 HD
HETATM    4  N3  UNL     1      12.274  19.756 -10.619  1.00  0.00    -0.115 N
ATOM      5  H3  UNL     1      13.137  20.258 -10.824  1.00  0.00     0.206 HD
HETATM    6  C2  UNL     1      12.150  18.415 -10.502  1.00  0.00     0.735 A
HETATM    7  N6  UNL     1      10.853  18.182 -10.228  1.00  0.00     0.129 N
ENDROOT
BRANCH   6   8
HETATM    8  N4  UNL     1      13.184  17.441 -10.638  1.00  0.00    -0.221 N
ATOM      9  H4  UNL     1      13.549  16.946  -9.824  1.00  0.00     0.177 HD
BRANCH   8  10
HETATM   10  C3  UNL     1      13.702  17.173 -11.962  1.00  0.00     0.165 C
BRANCH  10  11
HETATM   11  C4  UNL     1      12.656  16.342 -12.717  1.00  0.00     0.249 C
BRANCH  11  12
HETATM   12  N5  UNL     1      12.306  15.235 -11.863  1.00  0.00    -0.078 N
ATOM     13  H53 UNL     1      11.300  15.136 -11.725  1.00  0.00     0.274 HD
ATOM     14  H52 UNL     1      12.467  14.326 -12.298  1.00  0.00     0.274 HD
ATOM     15  H51 UNL     1      12.820  15.360 -10.992  1.00  0.00     0.274 HD
ENDBRANCH  11  12
ENDBRANCH  10  11
ENDBRANCH   8  10
ENDBRANCH   6   8
BRANCH   7  16
HETATM   16  O1  UNL     1      10.291  16.921 -10.030  1.00  0.00    -0.256 OA
ATOM     17  H1  UNL     1      10.366  16.406  -9.235  1.00  0.00     0.246 HD
ENDBRANCH   7  16
BRANCH   1  18
HETATM   18  N1  UNL     1       8.948  19.495  -9.942  1.00  0.00    -0.231 N
ATOM     19  H12 UNL     1       8.454  19.206  -9.098  1.00  0.00     0.174 HD
ATOM     20  H11 UNL     1       8.246  19.920 -10.549  1.00  0.00     0.174 HD
ENDBRANCH   1  18
TORSDOF 6
ENDMDL