MODEL 1
REMARK VINA RESULT: -4.503849104      0.000      0.000
REMARK  4 active torsions:
REMARK  status: ('A' for Active; 'I' for Inactive)
REMARK    1  A    between atoms: N1_2  and  C2_5
REMARK    2  A    between atoms: C2_5  and  C3_6
REMARK    3  A    between atoms: C3_6  and  N2_7
REMARK    4  A    between atoms: N2_7  and  C4_9
ROOT
HETATM    1  C4  UNL     1      11.007  19.255  -9.424  1.00  0.00     0.706 A
HETATM    2  N3  UNL     1      10.540  18.005  -9.579  1.00  0.00    -0.114 N
ATOM      3  H3  UNL     1      11.095  17.156  -9.474  1.00  0.00     0.203 HD
HETATM    4  N4  UNL     1       9.247  18.039  -9.892  1.00  0.00     0.009 NA
HETATM    5  N5  UNL     1       8.894  19.327  -9.933  1.00  0.00    -0.212 N
ATOM      6  H5  UNL     1       7.963  19.684 -10.146  1.00  0.00     0.206 HD
HETATM    7  N6  UNL     1       9.942  20.052  -9.654  1.00  0.00    -0.118 N
ATOM      8  H6  UNL     1       9.954  21.071  -9.616  1.00  0.00     0.207 HD
ENDROOT
BRANCH   1   9
HETATM    9  N2  UNL     1      12.228  19.590  -9.119  1.00  0.00    -0.222 N
ATOM     10  H2  UNL     1      12.539  19.674  -8.150  1.00  0.00     0.177 HD
BRANCH   9  11
HETATM   11  C3  UNL     1      13.113  19.834 -10.228  1.00  0.00     0.165 C
BRANCH  11  12
HETATM   12  C2  UNL     1      14.306  18.945 -10.291  1.00  0.00     0.252 C
BRANCH  12  13
HETATM   13  N1  UNL     1      14.033  17.547 -10.277  1.00  0.00    -0.077 N
HETATM   14  C1  UNL     1      13.543  17.106 -11.549  1.00  0.00     0.267 C
ATOM     15  H12 UNL     1      13.397  17.295  -9.522  1.00  0.00     0.276 HD
ATOM     16  H11 UNL     1      14.847  17.008  -9.981  1.00  0.00     0.276 HD
ENDBRANCH  12  13
ENDBRANCH  11  12
ENDBRANCH   9  11
ENDBRANCH   1   9
TORSDOF 4
ENDMDL