MODEL 1
REMARK VINA RESULT: -3.880305475      0.000      0.000
REMARK  6 active torsions:
REMARK  status: ('A' for Active; 'I' for Inactive)
REMARK    1  A    between atoms: N1_1  and  C1_5
REMARK    2  A    between atoms: C1_5  and  C2_6
REMARK    3  A    between atoms: C3_8  and  C4_9
REMARK    4  A    between atoms: C4_9  and  N2_10
REMARK    5  A    between atoms: C5_14  and  C6_15
REMARK    6  A    between atoms: C6_15  and  N3_16
ROOT
HETATM    1  C2  UNL     1      10.967  19.811  -8.846  1.00  0.00     0.155 C
HETATM    2  O1  UNL     1      10.526  21.113  -9.099  1.00  0.00    -0.376 OA
HETATM    3  C3  UNL     1      11.391  21.199 -10.207  1.00  0.00     0.155 C
HETATM    4  C5  UNL     1      11.801  19.785 -10.097  1.00  0.00     0.072 C
ENDROOT
BRANCH   1   5
HETATM    5  C1  UNL     1       9.742  18.888  -8.931  1.00  0.00     0.261 C
BRANCH   5   6
HETATM    6  N1  UNL     1      10.153  17.563  -9.311  1.00  0.00    -0.077 N
ATOM      7  H13 UNL     1      10.222  17.459 -10.323  1.00  0.00     0.274 HD
ATOM      8  H12 UNL     1      11.130  17.383  -9.077  1.00  0.00     0.274 HD
ATOM      9  H11 UNL     1       9.527  16.873  -8.896  1.00  0.00     0.274 HD
ENDBRANCH   5   6
ENDBRANCH   1   5
BRANCH   4  10
HETATM   10  C6  UNL     1      13.244  19.470  -9.925  1.00  0.00     0.239 C
BRANCH  10  11
HETATM   11  N3  UNL     1      13.471  18.090 -10.295  1.00  0.00    -0.079 N
ATOM     12  H33 UNL     1      12.651  17.504 -10.131  1.00  0.00     0.274 HD
ATOM     13  H32 UNL     1      13.536  17.964 -11.305  1.00  0.00     0.274 HD
ATOM     14  H31 UNL     1      14.297  17.747  -9.806  1.00  0.00     0.274 HD
ENDBRANCH  10  11
ENDBRANCH   4  10
BRANCH   3  15
HETATM   15  C4  UNL     1      12.421  22.256  -9.949  1.00  0.00     0.261 C
BRANCH  15  16
HETATM   16  N2  UNL     1      12.039  23.441 -10.731  1.00  0.00    -0.077 N
ATOM     17  H23 UNL     1      11.316  23.245 -11.425  1.00  0.00     0.274 HD
ATOM     18  H22 UNL     1      11.516  24.127 -10.186  1.00  0.00     0.274 HD
ATOM     19  H21 UNL     1      12.891  23.823 -11.140  1.00  0.00     0.274 HD
ENDBRANCH  15  16
ENDBRANCH   3  15
TORSDOF 6
ENDMDL