MODEL 4
REMARK VINA RESULT: -4.449946230      6.126      7.232
REMARK  5 active torsions:
REMARK  status: ('A' for Active; 'I' for Inactive)
REMARK    1  A    between atoms: N1_1  and  C1_5
REMARK    2  A    between atoms: C1_5  and  C2_6
REMARK    3  A    between atoms: C2_6  and  C3_7
REMARK    4  A    between atoms: C3_7  and  N2_8
REMARK    5  A    between atoms: N2_8  and  C4_10
ROOT
HETATM    1  N2  UNL     1      12.088  14.969 -11.754  1.00  0.00    -0.361 N
ATOM      2  H2  UNL     1      11.597  15.706 -11.246  1.00  0.00     0.162 HD
ENDROOT
BRANCH   1   3
HETATM    3  C3  UNL     1      13.042  15.306 -12.793  1.00  0.00     0.124 C
BRANCH   3   4
HETATM    4  C2  UNL     1      13.744  16.602 -12.531  1.00  0.00     0.047 C
BRANCH   4   5
HETATM    5  C1  UNL     1      12.996  17.388 -11.452  1.00  0.00     0.231 C
BRANCH   5   6
HETATM    6  N1  UNL     1      13.924  17.604 -10.351  1.00  0.00    -0.079 N
ATOM      7  H13 UNL     1      13.487  18.046  -9.542  1.00  0.00     0.274 HD
ATOM      8  H12 UNL     1      14.207  16.738  -9.892  1.00  0.00     0.274 HD
ATOM      9  H11 UNL     1      14.713  18.136 -10.719  1.00  0.00     0.274 HD
ENDBRANCH   5   6
ENDBRANCH   4   5
ENDBRANCH   3   4
ENDBRANCH   1   3
BRANCH   1  10
HETATM   10  C4  UNL     1      11.844  13.595 -11.452  1.00  0.00     0.188 C
HETATM   11  N3  UNL     1      12.386  12.956 -10.477  1.00  0.00    -0.346 N
HETATM   12  C5  UNL     1      11.894  11.609 -10.503  1.00  0.00     0.259 C
ATOM     13  H3  UNL     1      13.050  13.340  -9.805  1.00  0.00     0.163 HD
HETATM   14  N4  UNL     1      10.660  11.719 -11.253  1.00  0.00    -0.119 NA
HETATM   15  N5  UNL     1      10.967  12.727 -12.173  1.00  0.00    -0.274 N
ATOM     16  H5  UNL     1      10.640  12.821 -13.134  1.00  0.00     0.185 HD
ENDBRANCH   1  10
TORSDOF 5
ENDMDL