MODEL 1
REMARK VINA RESULT: -4.522239302      0.000      0.000
REMARK  5 active torsions:
REMARK  status: ('A' for Active; 'I' for Inactive)
REMARK    1  A    between atoms: C2_2  and  C3_3
REMARK    2  A    between atoms: C3_3  and  N1_4
REMARK    3  A    between atoms: N1_4  and  C4_7
REMARK    4  A    between atoms: C6_12  and  N3_13
REMARK    5  A    between atoms: C7_17  and  N4_18
ROOT
HETATM    1  C4  UNL     1      11.296  20.258 -10.686  1.00  0.00     0.245 C
HETATM    2  C5  UNL     1      10.078  20.778 -10.064  1.00  0.00     0.270 C
HETATM    3  N2  UNL     1       9.279  19.589  -9.757  1.00  0.00    -0.042 N
ATOM      4  H21 UNL     1       8.428  19.534 -10.316  1.00  0.00     0.279 HD
ATOM      5  H22 UNL     1       8.839  19.639  -8.838  1.00  0.00     0.279 HD
HETATM    6  C6  UNL     1      10.115  18.431  -9.908  1.00  0.00     0.412 C
HETATM    7  C7  UNL     1      11.524  18.979  -9.832  1.00  0.00     0.273 C
ENDROOT
BRANCH   1   8
HETATM    8  N1  UNL     1      12.485  21.021 -10.731  1.00  0.00    -0.064 N
ATOM      9  H12 UNL     1      12.563  21.554 -11.597  1.00  0.00     0.278 HD
ATOM     10  H11 UNL     1      13.310  20.432 -10.841  1.00  0.00     0.278 HD
BRANCH   8  11
HETATM   11  C3  UNL     1      12.578  21.867  -9.569  1.00  0.00     0.259 C
BRANCH  11  12
HETATM   12  C2  UNL     1      13.010  23.251  -9.757  1.00  0.00    -0.010 C
HETATM   13  C1  UNL     1      13.943  23.910  -9.067  1.00  0.00     0.008 C
ENDBRANCH  11  12
ENDBRANCH   8  11
ENDBRANCH   1   8
BRANCH   7  14
HETATM   14  N4  UNL     1      12.523  18.159 -10.417  1.00  0.00    -0.069 N
ATOM     15  H43 UNL     1      12.202  17.733 -11.287  1.00  0.00     0.274 HD
ATOM     16  H42 UNL     1      13.294  18.710 -10.793  1.00  0.00     0.274 HD
ATOM     17  H41 UNL     1      12.849  17.458  -9.751  1.00  0.00     0.274 HD
ENDBRANCH   7  14
BRANCH   6  18
HETATM   18  N3  UNL     1       9.870  17.436  -8.889  1.00  0.00    -0.048 N
ATOM     19  H33 UNL     1      10.333  16.555  -9.116  1.00  0.00     0.276 HD
ATOM     20  H32 UNL     1      10.365  17.663  -8.027  1.00  0.00     0.276 HD
ATOM     21  H31 UNL     1       8.876  17.292  -8.715  1.00  0.00     0.276 HD
ENDBRANCH   6  18
TORSDOF 5
ENDMDL