MODEL 4
REMARK VINA RESULT: -5.303795640      2.174      2.625
REMARK  4 active torsions:
REMARK  status: ('A' for Active; 'I' for Inactive)
REMARK    1  A    between atoms: C2_2  and  O1_3
REMARK    2  A    between atoms: O1_3  and  C3_4
REMARK    3  A    between atoms: C3_4  and  C4_6
REMARK    4  A    between atoms: C7_11  and  N1_12
REMARK       I    between atoms: N1_12  and  C8_14
REMARK       I    between atoms: C8_14  and  N3_18
ROOT
HETATM    1  C4  UNL     1      -8.882  45.548  -4.815  1.00  0.00     0.110 A
HETATM    2  S1  UNL     1     -10.558  45.677  -4.555  1.00  0.00    -0.090 SA
HETATM    3  C5  UNL     1     -10.683  44.791  -3.107  1.00  0.00     0.095 A
HETATM    4  C6  UNL     1      -9.394  44.411  -2.859  1.00  0.00     0.151 A
HETATM    5  F1  UNL     1      -9.130  43.651  -1.720  1.00  0.00    -0.203 F
HETATM    6  C7  UNL     1      -8.452  44.804  -3.747  1.00  0.00     0.111 A
ENDROOT
BRANCH   6   7
HETATM    7  N1  UNL     1      -7.047  44.454  -3.583  1.00  0.00    -0.186 N
HETATM    8  C8  UNL     1      -6.629  43.099  -3.568  1.00  0.00     0.688 C
HETATM    9  N2  UNL     1      -5.443  42.789  -3.168  1.00  0.00    -0.131 N
HETATM   10  N3  UNL     1      -7.510  42.068  -3.990  1.00  0.00    -0.230 N
HETATM   11 CL1  UNL     1      -4.877  41.146  -3.127  1.00  0.00     0.026 Cl
ATOM     12  H2  UNL     1      -4.815  43.533  -2.864  1.00  0.00     0.199 HD
HETATM   13  C9  UNL     1      -7.961  41.086  -3.032  1.00  0.00     0.165 C
ATOM     14  H3  UNL     1      -7.821  42.022  -4.960  1.00  0.00     0.177 HD
ATOM     15  H1  UNL     1      -6.354  45.194  -3.479  1.00  0.00     0.184 HD
ENDBRANCH   6   7
BRANCH   1  16
HETATM   16  C3  UNL     1      -8.055  46.098  -5.917  1.00  0.00     0.302 C
HETATM   17  O2  UNL     1      -6.903  46.485  -5.631  1.00  0.00    -0.259 OA
BRANCH  16  18
HETATM   18  O1  UNL     1      -8.533  46.180  -7.193  1.00  0.00    -0.317 OA
BRANCH  18  19
HETATM   19  C2  UNL     1      -9.877  45.916  -7.555  1.00  0.00     0.174 C
HETATM   20  C1  UNL     1     -10.603  47.206  -7.930  1.00  0.00     0.034 C
ENDBRANCH  18  19
ENDBRANCH  16  18
ENDBRANCH   1  16
TORSDOF 4
ENDMDL