MODEL 2
REMARK VINA RESULT: -6.383054516      1.915      3.068
REMARK  5 active torsions:
REMARK  status: ('A' for Active; 'I' for Inactive)
REMARK    1  A    between atoms: C4_5  and  O1_6
REMARK    2  A    between atoms: N2_8  and  C5_9
REMARK    3  A    between atoms: C5_9  and  C6_10
REMARK    4  A    between atoms: C6_10  and  C7_11
REMARK    5  A    between atoms: C8_13  and  O2_14
ROOT
HETATM    1  C1  UNL     1      -6.770  46.731  -6.718  1.00  0.00     0.150 C
HETATM    2  N1  UNL     1      -7.907  46.574  -5.833  1.00  0.00    -0.374 N
HETATM    3  C2  UNL     1      -8.165  45.596  -4.828  1.00  0.00     0.094 A
HETATM    4  C3  UNL     1      -9.431  45.694  -4.324  1.00  0.00     0.049 A
HETATM    5  C4  UNL     1      -9.553  44.700  -3.368  1.00  0.00     0.155 A
HETATM    6  N2  UNL     1      -8.404  44.025  -3.295  1.00  0.00    -0.306 N
HETATM    7  C8  UNL     1      -7.545  44.554  -4.176  1.00  0.00     0.172 A
HETATM    8  C9  UNL     1     -10.103  46.806  -5.014  1.00  0.00     0.091 C
HETATM    9 CL1  UNL     1     -10.953  47.850  -3.866  1.00  0.00    -0.111 Cl
HETATM   10  C10 UNL     1     -10.857  46.466  -6.261  1.00  0.00     0.035 C
HETATM   11  C11 UNL     1      -9.886  47.292  -7.090  1.00  0.00     0.030 C
HETATM   12  C12 UNL     1      -9.050  47.465  -5.835  1.00  0.00     0.112 C
ENDROOT
BRANCH   6  13
HETATM   13  C5  UNL     1      -8.117  42.920  -2.440  1.00  0.00     0.135 C
BRANCH  13  14
HETATM   14  C6  UNL     1      -8.543  41.581  -2.935  1.00  0.00     0.052 C
BRANCH  14  15
HETATM   15  C7  UNL     1      -7.519  40.887  -3.802  1.00  0.00     0.224 C
HETATM   16  F1  UNL     1      -6.264  41.303  -3.340  1.00  0.00    -0.255 F
ENDBRANCH  14  15
ENDBRANCH  13  14
ENDBRANCH   6  13
BRANCH   5  17
HETATM   17  O1  UNL     1     -10.686  44.455  -2.616  1.00  0.00    -0.345 OA
ATOM     18  H1  UNL     1     -10.701  44.001  -1.782  1.00  0.00     0.219 HD
ENDBRANCH   5  17
BRANCH   7  19
HETATM   19  O2  UNL     1      -6.223  44.142  -4.424  1.00  0.00    -0.344 OA
ATOM     20  H2  UNL     1      -5.983  43.274  -4.726  1.00  0.00     0.219 HD
ENDBRANCH   7  19
TORSDOF 5
ENDMDL