MODEL 5
REMARK VINA RESULT: -5.557023194      3.328      6.577
REMARK  6 active torsions:
REMARK  status: ('A' for Active; 'I' for Inactive)
REMARK    1  A    between atoms: C2_2  and  C3_3
REMARK    2  A    between atoms: C10_10  and  O1_11
REMARK    3  A    between atoms: N1_13  and  O2_14
REMARK    4  A    between atoms: O2_14  and  C11_15
REMARK    5  A    between atoms: C11_15  and  C12_16
REMARK    6  A    between atoms: C13_18  and  O3_19
ROOT
HETATM    1  C3  UNL     1      -1.503  43.895  -4.137  1.00  0.00     0.017 C
HETATM    2  C4  UNL     1      -2.159  45.085  -4.768  1.00  0.00     0.018 C
HETATM    3  C5  UNL     1      -3.162  44.529  -5.707  1.00  0.00     0.025 C
HETATM    4  C6  UNL     1      -2.529  43.157  -6.046  1.00  0.00     0.019 C
HETATM    5  C7  UNL     1      -2.365  42.747  -4.566  1.00  0.00     0.032 C
HETATM    6  C8  UNL     1      -3.803  42.967  -4.198  1.00  0.00     0.011 A
HETATM    7  C9  UNL     1      -4.302  44.021  -4.888  1.00  0.00     0.010 A
HETATM    8  C10 UNL     1      -5.666  44.154  -4.599  1.00  0.00     0.177 A
HETATM    9  N1  UNL     1      -5.964  43.187  -3.773  1.00  0.00    -0.175 N
HETATM   10  C13 UNL     1      -4.911  42.435  -3.467  1.00  0.00     0.177 A
ENDROOT
BRANCH   9  11
HETATM   11  O2  UNL     1      -7.240  42.799  -3.538  1.00  0.00    -0.267 OA
BRANCH  11  12
HETATM   12  C11 UNL     1      -8.093  43.558  -2.630  1.00  0.00     0.233 C
BRANCH  12  13
HETATM   13  C12 UNL     1      -9.346  43.923  -3.471  1.00  0.00     0.250 C
HETATM   14  F1  UNL     1     -10.230  44.573  -2.525  1.00  0.00    -0.253 F
ENDBRANCH  12  13
ENDBRANCH  11  12
ENDBRANCH   9  11
BRANCH   8  15
HETATM   15  O1  UNL     1      -6.487  45.167  -5.125  1.00  0.00    -0.344 OA
ATOM     16  H1  UNL     1      -7.017  45.070  -5.909  1.00  0.00     0.219 HD
ENDBRANCH   8  15
BRANCH  10  17
HETATM   17  O3  UNL     1      -4.714  41.373  -2.649  1.00  0.00    -0.344 OA
ATOM     18  H3  UNL     1      -5.452  41.011  -2.175  1.00  0.00     0.219 HD
ENDBRANCH  10  17
BRANCH   1  19
HETATM   19  C2  UNL     1      -1.310  43.898  -2.688  1.00  0.00    -0.032 C
HETATM   20  C1  UNL     1      -1.216  45.085  -2.047  1.00  0.00     0.007 C
ENDBRANCH   1  19
TORSDOF 6
ENDMDL