MODEL 1
REMARK VINA RESULT: -6.343173677      0.000      0.000
REMARK  8 active torsions:
REMARK  status: ('A' for Active; 'I' for Inactive)
REMARK    1  A    between atoms: C2_2  and  O1_4
REMARK    2  A    between atoms: O1_4  and  C4_5
REMARK    3  A    between atoms: C6_7  and  N1_8
REMARK    4  A    between atoms: C6_7  and  C7_14
REMARK    5  A    between atoms: N1_8  and  N2_10
REMARK    6  A    between atoms: N2_10  and  N3_11
REMARK    7  A    between atoms: C7_14  and  O2_15
REMARK    8  A    between atoms: N4_17  and  O3_19
ROOT
HETATM    1  C4  UNL     1      -8.093  44.552  -3.614  1.00  0.00     0.117 C
HETATM    2  C5  UNL     1      -8.093  45.445  -4.580  1.00  0.00     0.053 C
HETATM    3  C6  UNL     1      -9.354  45.940  -5.162  1.00  0.00     0.146 C
HETATM    4  C8  UNL     1     -10.555  45.090  -4.946  1.00  0.00     0.053 C
HETATM    5  C9  UNL     1     -10.198  43.743  -4.379  1.00  0.00     0.090 C
HETATM    6  C10 UNL     1      -9.386  44.033  -3.104  1.00  0.00     0.291 C
HETATM    7  F1  UNL     1      -9.213  42.880  -2.366  1.00  0.00    -0.199 F
HETATM    8  F2  UNL     1     -10.086  44.919  -2.349  1.00  0.00    -0.199 F
ENDROOT
BRANCH   3   9
HETATM    9  N1  UNL     1      -9.187  46.158  -6.607  1.00  0.00    -0.231 N
ATOM     10  H1  UNL     1      -8.468  45.671  -7.143  1.00  0.00     0.198 HD
BRANCH   9  11
HETATM   11  N2  UNL     1      -9.966  46.965  -7.144  1.00  0.00    -0.247 NA
BRANCH  11  12
HETATM   12  N3  UNL     1     -10.548  47.656  -7.971  1.00  0.00    -0.261 N
ATOM     13  H32 UNL     1     -11.403  47.101  -7.962  1.00  0.00     0.193 HD
ATOM     14  H31 UNL     1     -10.769  48.386  -8.649  1.00  0.00     0.193 HD
ENDBRANCH  11  12
ENDBRANCH   9  11
ENDBRANCH   3   9
BRANCH   3  15
HETATM   15  C7  UNL     1      -9.558  47.330  -4.611  1.00  0.00     0.171 C
HETATM   16  N4  UNL     1     -10.608  47.698  -3.993  1.00  0.00    -0.249 N
ATOM     17  H4  UNL     1     -11.349  47.008  -3.869  1.00  0.00     0.196 HD
BRANCH  15  18
HETATM   18  O2  UNL     1      -8.527  48.229  -4.806  1.00  0.00    -0.346 OA
ATOM     19  H2  UNL     1      -8.217  48.332  -5.698  1.00  0.00     0.219 HD
ENDBRANCH  15  18
BRANCH  16  20
HETATM   20  O3  UNL     1     -10.817  48.943  -3.488  1.00  0.00    -0.288 OA
ATOM     21  H3  UNL     1     -10.437  49.272  -2.682  1.00  0.00     0.244 HD
ENDBRANCH  16  20
ENDBRANCH   3  15
BRANCH   1  22
HETATM   22  O1  UNL     1      -6.895  44.102  -3.080  1.00  0.00    -0.345 OA
BRANCH  22  23
HETATM   23  C2  UNL     1      -6.033  43.201  -3.717  1.00  0.00     0.120 C
HETATM   24  C1  UNL     1      -6.542  41.782  -3.690  1.00  0.00     0.040 C
HETATM   25  C3  UNL     1      -4.714  43.225  -2.966  1.00  0.00     0.040 C
ENDBRANCH  22  23
ENDBRANCH   1  22
TORSDOF 8
ENDMDL