MODEL 1
REMARK VINA RESULT: -8.040443382      0.000      0.000
REMARK  5 active torsions:
REMARK  status: ('A' for Active; 'I' for Inactive)
REMARK    1  A    between atoms: C2_2  and  C3_3
REMARK    2  A    between atoms: C3_3  and  C4_4
REMARK       I    between atoms: C4_4  and  N1_6
REMARK    3  A    between atoms: C5_7  and  O2_8
REMARK    4  A    between atoms: C7_11  and  C8_12
REMARK    5  A    between atoms: C13_19  and  O3_20
ROOT
HETATM    1  C4  UNL     1      -7.374  43.331  -3.545  1.00  0.00     0.232 C
HETATM    2  O1  UNL     1      -6.189  43.283  -3.929  1.00  0.00    -0.273 OA
HETATM    3  N1  UNL     1      -8.216  44.457  -3.865  1.00  0.00    -0.241 N
HETATM    4  C5  UNL     1      -9.499  44.608  -3.482  1.00  0.00     0.151 A
HETATM    5  C6  UNL     1      -9.997  45.770  -4.090  1.00  0.00     0.068 A
HETATM    6  C7  UNL     1      -8.993  46.323  -4.848  1.00  0.00     0.002 A
HETATM    7  C13 UNL     1      -7.871  45.464  -4.679  1.00  0.00     0.158 A
ENDROOT
BRANCH   6   8
HETATM    8  C8  UNL     1      -8.987  47.592  -5.600  1.00  0.00     0.029 C
HETATM    9  C9  UNL     1     -10.356  48.028  -6.055  1.00  0.00     0.015 C
HETATM   10  C10 UNL     1     -10.737  49.330  -5.444  1.00  0.00     0.080 C
HETATM   11  C11 UNL     1      -9.873  49.395  -4.188  1.00  0.00     0.244 C
HETATM   12  F1  UNL     1      -9.699  50.715  -3.789  1.00  0.00    -0.206 F
HETATM   13  F2  UNL     1     -10.525  48.675  -3.223  1.00  0.00    -0.206 F
HETATM   14  C12 UNL     1      -8.596  48.723  -4.607  1.00  0.00     0.088 C
ENDBRANCH   6   8
BRANCH   7  15
HETATM   15  O3  UNL     1      -6.660  45.707  -5.299  1.00  0.00    -0.345 OA
ATOM     16  H3  UNL     1      -5.817  45.909  -4.910  1.00  0.00     0.219 HD
ENDBRANCH   7  15
BRANCH   4  17
HETATM   17  O2  UNL     1     -10.283  43.837  -2.646  1.00  0.00    -0.346 OA
ATOM     18  H2  UNL     1     -10.722  43.010  -2.801  1.00  0.00     0.219 HD
ENDBRANCH   4  17
BRANCH   1  19
HETATM   19  C3  UNL     1      -7.895  42.193  -2.758  1.00  0.00     0.103 C
BRANCH  19  20
HETATM   20  C2  UNL     1      -7.760  40.871  -3.501  1.00  0.00     0.005 C
HETATM   21  C1  UNL     1      -9.149  40.493  -3.983  1.00  0.00     0.005 C
ENDBRANCH  19  20
ENDBRANCH   1  19
TORSDOF 5
ENDMDL