MODEL 1
REMARK VINA RESULT: -8.412339296      0.000      0.000
REMARK  6 active torsions:
REMARK  status: ('A' for Active; 'I' for Inactive)
REMARK    1  A    between atoms: C2_2  and  C4_4
REMARK    2  A    between atoms: C4_4  and  C5_5
REMARK    3  A    between atoms: C5_5  and  N1_6
REMARK    4  A    between atoms: C5_5  and  C13_19
REMARK    5  A    between atoms: C6_7  and  O1_8
REMARK    6  A    between atoms: C9_12  and  O2_13
ROOT
HETATM    1  N1  UNL     1      -9.259  46.373  -5.438  1.00  0.00    -0.294 N
HETATM    2  C6  UNL     1      -7.974  46.060  -5.317  1.00  0.00     0.152 A
HETATM    3  C7  UNL     1      -7.870  45.093  -4.311  1.00  0.00     0.008 A
HETATM    4  C8  UNL     1      -9.143  44.855  -3.849  1.00  0.00     0.027 A
HETATM    5  C9  UNL     1     -10.008  45.679  -4.581  1.00  0.00     0.154 A
HETATM    6  C10 UNL     1      -9.429  43.875  -2.766  1.00  0.00     0.211 C
HETATM    7  O3  UNL     1      -8.287  43.389  -2.192  1.00  0.00    -0.386 OA
HETATM    8  C11 UNL     1      -7.300  43.077  -3.138  1.00  0.00     0.172 C
HETATM    9  C12 UNL     1      -6.732  44.355  -3.716  1.00  0.00     0.070 C
ENDROOT
BRANCH   1  10
HETATM   10  C5  UNL     1      -9.823  47.363  -6.391  1.00  0.00     0.202 C
BRANCH  10  11
HETATM   11  C4  UNL     1     -10.605  48.371  -5.683  1.00  0.00     0.039 C
BRANCH  11  12
HETATM   12  C2  UNL     1     -10.013  49.256  -4.667  1.00  0.00    -0.020 C
HETATM   13  C1  UNL     1      -8.582  49.188  -4.342  1.00  0.00     0.009 C
HETATM   14  C3  UNL     1     -10.876  49.072  -3.385  1.00  0.00     0.009 C
ENDBRANCH  11  12
ENDBRANCH  10  11
BRANCH  10  15
HETATM   15  C13 UNL     1     -10.381  46.550  -7.490  1.00  0.00     0.408 C
HETATM   16  F1  UNL     1      -9.623  45.469  -7.891  1.00  0.00    -0.169 F
HETATM   17  F2  UNL     1     -10.318  47.377  -8.692  1.00  0.00    -0.169 F
HETATM   18  F3  UNL     1     -11.720  46.273  -7.433  1.00  0.00    -0.169 F
ENDBRANCH  10  15
ENDBRANCH   1  10
BRANCH   2  19
HETATM   19  O1  UNL     1      -6.852  46.508  -5.974  1.00  0.00    -0.345 OA
ATOM     20  H1  UNL     1      -6.381  46.172  -6.727  1.00  0.00     0.219 HD
ENDBRANCH   2  19
BRANCH   5  21
HETATM   21  O2  UNL     1     -11.393  45.715  -4.391  1.00  0.00    -0.345 OA
ATOM     22  H2  UNL     1     -11.948  45.114  -3.907  1.00  0.00     0.219 HD
ENDBRANCH   5  21
TORSDOF 6
ENDMDL