MODEL 3
REMARK VINA RESULT: -5.570759297      1.831      5.175
REMARK  5 active torsions:
REMARK  status: ('A' for Active; 'I' for Inactive)
REMARK    1  A    between atoms: C2_2  and  C5_5
REMARK    2  A    between atoms: C5_5  and  O1_6
REMARK    3  A    between atoms: C5_5  and  C6_8
REMARK    4  A    between atoms: C8_12  and  C9_13
REMARK    5  A    between atoms: C10_16  and  C11_17
ROOT
HETATM    1  C6  UNL     1      -8.857  45.366  -4.154  1.00  0.00     0.038 A
HETATM    2  C7  UNL     1      -9.636  44.533  -3.299  1.00  0.00     0.101 A
HETATM    3  N1  UNL     1     -11.041  44.678  -2.954  1.00  0.00    -0.093 NA
HETATM    4  S1  UNL     1      -8.575  43.350  -2.767  1.00  0.00    -0.067 SA
HETATM    5  C8  UNL     1      -7.166  43.831  -3.565  1.00  0.00     0.095 A
HETATM    6  C10 UNL     1      -7.563  44.971  -4.277  1.00  0.00     0.045 A
ENDROOT
BRANCH   1   7
HETATM    7  C5  UNL     1      -9.590  46.504  -4.756  1.00  0.00     0.064 C
BRANCH   7   8
HETATM    8  C2  UNL     1      -9.809  47.904  -4.665  1.00  0.00    -0.002 C
HETATM    9  C1  UNL     1     -10.399  48.280  -6.132  1.00  0.00     0.021 C
HETATM   10  C3  UNL     1      -8.664  48.867  -4.620  1.00  0.00     0.021 C
HETATM   11  C4  UNL     1     -10.904  48.417  -3.753  1.00  0.00     0.021 C
ENDBRANCH   7   8
BRANCH   7  12
HETATM   12  O1  UNL     1     -10.375  46.101  -5.793  1.00  0.00    -0.363 OA
ATOM     13  H1  UNL     1     -10.460  45.162  -5.678  1.00  0.00     0.217 HD
ENDBRANCH   7  12
ENDBRANCH   1   7
BRANCH   6  14
HETATM   14  C11 UNL     1      -6.486  45.570  -5.161  1.00  0.00     0.389 C
HETATM   15  F1  UNL     1      -5.490  44.654  -5.462  1.00  0.00    -0.209 F
HETATM   16  F2  UNL     1      -6.856  46.131  -6.316  1.00  0.00    -0.209 F
ENDBRANCH   6  14
BRANCH   5  17
HETATM   17  C9  UNL     1      -5.893  43.128  -3.455  1.00  0.00     0.217 C
HETATM   18  O2  UNL     1      -4.890  43.330  -2.806  1.00  0.00    -0.643 OA
HETATM   19  O3  UNL     1      -5.759  41.952  -4.261  1.00  0.00    -0.643 OA
ENDBRANCH   5  17
TORSDOF 5
ENDMDL