MODEL 3
REMARK VINA RESULT: -5.486361454      3.087      5.018
REMARK  5 active torsions:
REMARK  status: ('A' for Active; 'I' for Inactive)
REMARK    1  A    between atoms: C2_2  and  C3_5
REMARK    2  A    between atoms: C3_5  and  N1_6
REMARK    3  A    between atoms: C5_8  and  C6_9
REMARK    4  A    between atoms: C6_9  and  O1_12
REMARK    5  A    between atoms: C9_15  and  N2_16
ROOT
HETATM    1  N1  UNL     1      -8.591  45.225  -4.008  1.00  0.00    -0.334 N
HETATM    2  C4  UNL     1      -7.339  44.843  -4.147  1.00  0.00     0.111 A
HETATM    3  C5  UNL     1      -6.956  43.653  -3.615  1.00  0.00     0.035 A
HETATM    4  S1  UNL     1      -8.408  43.094  -2.916  1.00  0.00    -0.054 SA
HETATM    5  C9  UNL     1      -9.422  44.424  -3.353  1.00  0.00     0.144 A
ENDROOT
BRANCH   1   6
HETATM    6  C3  UNL     1      -9.067  46.537  -4.519  1.00  0.00     0.172 C
BRANCH   6   7
HETATM    7  C2  UNL     1      -9.432  46.515  -5.953  1.00  0.00     0.126 C
HETATM    8  C1  UNL     1     -10.163  45.335  -6.489  1.00  0.00     0.052 C
HETATM    9 CL1  UNL     1      -7.874  46.583  -6.871  1.00  0.00    -0.100 Cl
HETATM   10 CL2  UNL     1     -10.267  48.050  -6.439  1.00  0.00    -0.100 Cl
ENDBRANCH   6   7
ENDBRANCH   1   6
BRANCH   5  11
HETATM   11  N2  UNL     1     -10.709  44.532  -3.088  1.00  0.00    -0.379 N
ATOM     12  H22 UNL     1     -11.421  43.830  -3.290  1.00  0.00     0.158 HD
ATOM     13  H21 UNL     1     -11.252  45.291  -2.676  1.00  0.00     0.158 HD
ENDBRANCH   5  11
BRANCH   3  14
HETATM   14  C6  UNL     1      -5.632  42.964  -3.593  1.00  0.00     0.085 C
HETATM   15  C7  UNL     1      -5.793  41.496  -3.962  1.00  0.00     0.051 C
HETATM   16  C8  UNL     1      -4.681  43.561  -4.605  1.00  0.00     0.051 C
BRANCH  14  17
HETATM   17  O1  UNL     1      -5.065  43.066  -2.309  1.00  0.00    -0.385 OA
ATOM     18  H1  UNL     1      -4.598  43.889  -2.229  1.00  0.00     0.211 HD
ENDBRANCH  14  17
ENDBRANCH   3  14
TORSDOF 5
ENDMDL