MODEL 3
REMARK VINA RESULT: -8.133941502      1.567      1.783
REMARK  6 active torsions:
REMARK  status: ('A' for Active; 'I' for Inactive)
REMARK    1  A    between atoms: C2_2  and  N1_3
REMARK    2  A    between atoms: N1_3  and  C3_5
REMARK    3  A    between atoms: C4_8  and  N3_9
REMARK    4  A    between atoms: N5_18  and  C11_20
REMARK    5  A    between atoms: C14_23  and  O1_24
REMARK    6  A    between atoms: O1_24  and  C15_25
ROOT
HETATM    1  C3  UNL     1      18.286   8.081   4.326  1.00  0.00     0.707 A
HETATM    2  N2  UNL     1      17.473   8.266   5.381  1.00  0.00    -0.021 N
ATOM      3  H2  UNL     1      17.768   7.904   6.288  1.00  0.00     0.203 HD
HETATM    4  C4  UNL     1      16.288   8.904   5.303  1.00  0.00     0.709 A
HETATM    5  N4  UNL     1      15.951   9.362   4.070  1.00  0.00    -0.021 N
ATOM      6  H4  UNL     1      15.061   9.851   3.968  1.00  0.00     0.203 HD
HETATM    7  C10 UNL     1      16.708   9.212   2.987  1.00  0.00     0.707 A
HETATM    8  N5  UNL     1      16.435   9.612   1.820  1.00  0.00    -0.220 N
ATOM      9  H5  UNL     1      17.139   9.408   1.110  1.00  0.00     0.178 HD
HETATM   10  N6  UNL     1      17.897   8.556   3.142  1.00  0.00    -0.022 N
ATOM     11  H6  UNL     1      18.502   8.425   2.332  1.00  0.00     0.203 HD
ENDROOT
BRANCH   8  12
HETATM   12  C11 UNL     1      15.277  10.311   1.354  1.00  0.00     0.099 C
HETATM   13  C12 UNL     1      15.574  11.097   0.088  1.00  0.00     0.028 C
HETATM   14  C13 UNL     1      15.773  10.165  -1.093  1.00  0.00     0.034 C
HETATM   15  C14 UNL     1      14.714   9.075  -1.091  1.00  0.00     0.121 C
HETATM   16  C17 UNL     1      13.552   9.521  -0.189  1.00  0.00     0.034 C
HETATM   17  C18 UNL     1      14.069   9.433   1.227  1.00  0.00     0.028 C
BRANCH  15  18
HETATM   18  O1  UNL     1      14.305   8.685  -2.339  1.00  0.00    -0.386 OA
BRANCH  18  19
HETATM   19  C15 UNL     1      13.846   9.734  -3.126  1.00  0.00     0.163 C
HETATM   20  C16 UNL     1      14.292   9.469  -4.549  1.00  0.00     0.033 C
ENDBRANCH  18  19
ENDBRANCH  15  18
ENDBRANCH   8  12
BRANCH   4  21
HETATM   21  N3  UNL     1      15.436   9.087   6.447  1.00  0.00    -0.217 N
HETATM   22  C5  UNL     1      15.703   8.279   7.592  1.00  0.00     0.141 C
HETATM   23  C6  UNL     1      14.909   8.647   8.800  1.00  0.00     0.020 C
HETATM   24  C7  UNL     1      13.491   8.929   8.367  1.00  0.00     0.003 C
HETATM   25  C8  UNL     1      13.520  10.180   7.527  1.00  0.00     0.020 C
HETATM   26  C9  UNL     1      14.395  10.071   6.327  1.00  0.00     0.141 C
ENDBRANCH   4  21
BRANCH   1  27
HETATM   27  N1  UNL     1      19.415   7.468   4.422  1.00  0.00    -0.225 N
ATOM     28  H1  UNL     1      19.639   6.715   3.771  1.00  0.00     0.177 HD
BRANCH  27  29
HETATM   29  C2  UNL     1      20.366   7.837   5.445  1.00  0.00     0.133 C
HETATM   30  C1  UNL     1      20.949   9.198   5.060  1.00  0.00     0.027 C
ENDBRANCH  27  29
ENDBRANCH   1  27
TORSDOF 6
ENDMDL