MODEL 4
REMARK VINA RESULT: -8.812279406      5.788     10.303
REMARK  4 active torsions:
REMARK  status: ('A' for Active; 'I' for Inactive)
REMARK    1  A    between atoms: C10_10  and  N1_11
REMARK       I    between atoms: N1_11  and  C11_13
REMARK    2  A    between atoms: C11_13  and  C12_15
REMARK    3  A    between atoms: C12_15  and  N2_16
REMARK       I    between atoms: N2_16  and  C13_18
REMARK    4  A    between atoms: C13_18  and  C14_20
ROOT
HETATM    1  N1  UNL     1      13.384   9.272   2.767  1.00  0.00    -0.355 N
ATOM      2  H1  UNL     1      12.393   9.515   2.798  1.00  0.00     0.162 HD
HETATM    3  C11 UNL     1      14.031   8.868   3.946  1.00  0.00     0.235 C
HETATM    4  O1  UNL     1      15.267   8.580   3.831  1.00  0.00    -0.272 OA
ENDROOT
BRANCH   1   5
HETATM    5  C10 UNL     1      14.091   9.348   1.512  1.00  0.00     0.087 C
HETATM    6  C9  UNL     1      15.038  10.522   1.597  1.00  0.00     0.025 C
HETATM    7  C8  UNL     1      15.650  10.852   0.244  1.00  0.00     0.005 C
HETATM    8  C7  UNL     1      14.489  11.153  -0.686  1.00  0.00     0.045 C
HETATM    9  C6  UNL     1      13.753   9.851  -0.903  1.00  0.00     0.116 C
HETATM   10  C5  UNL     1      14.636   8.784  -1.422  1.00  0.00     0.013 C
HETATM   11  C18 UNL     1      13.107   9.455   0.393  1.00  0.00     0.070 C
HETATM   12  O4  UNL     1      12.773  10.080  -1.869  1.00  0.00    -0.224 OA
HETATM   13  C4  UNL     1      14.764   8.650  -2.732  1.00  0.00     0.012 C
HETATM   14  C2  UNL     1      14.029   9.559  -3.652  1.00  0.00     0.107 C
HETATM   15  C1  UNL     1      13.006   8.822  -4.480  1.00  0.00     0.053 C
HETATM   16  C3  UNL     1      15.052  10.136  -4.607  1.00  0.00     0.053 C
HETATM   17  O5  UNL     1      13.394  10.564  -2.923  1.00  0.00    -0.225 OA
ENDBRANCH   1   5
BRANCH   3  18
HETATM   18  C12 UNL     1      13.440   8.746   5.279  1.00  0.00     0.225 C
BRANCH  18  19
HETATM   19  N2  UNL     1      13.770   9.773   6.218  1.00  0.00    -0.350 N
HETATM   20  C13 UNL     1      13.348   9.739   7.576  1.00  0.00     0.247 C
HETATM   21  O2  UNL     1      12.655   8.746   7.939  1.00  0.00    -0.271 OA
ATOM     22  H2  UNL     1      14.331  10.563   5.900  1.00  0.00     0.163 HD
BRANCH  20  23
HETATM   23  C14 UNL     1      13.723  10.825   8.477  1.00  0.00     0.213 C
HETATM   24  C15 UNL     1      14.528  10.331   9.686  1.00  0.00     0.043 C
HETATM   25  C16 UNL     1      14.443  11.580  10.554  1.00  0.00     0.029 C
HETATM   26  C17 UNL     1      13.089  12.104  10.196  1.00  0.00     0.168 C
HETATM   27  O3  UNL     1      12.664  11.464   9.058  1.00  0.00    -0.376 OA
ENDBRANCH  20  23
ENDBRANCH  18  19
ENDBRANCH   3  18
TORSDOF 4
ENDMDL