MODEL 4
REMARK VINA RESULT: -7.251547750      4.979      7.181
REMARK  5 active torsions:
REMARK  status: ('A' for Active; 'I' for Inactive)
REMARK    1  A    between atoms: C2_2  and  N1_3
REMARK    2  A    between atoms: N3_9  and  C5_10
REMARK    3  A    between atoms: C5_10  and  C6_11
REMARK    4  A    between atoms: C7_12  and  C8_13
REMARK    5  A    between atoms: C8_13  and  O1_14
ROOT
HETATM    1  C6  UNL     1      21.702   9.445   4.566  1.00  0.00    -0.040 C
HETATM    2  C7  UNL     1      20.521   9.793   4.009  1.00  0.00     0.015 C
HETATM    3  C9  UNL     1      20.577  10.297   2.644  1.00  0.00     0.163 C
HETATM    4  O2  UNL     1      19.575  10.911   2.206  1.00  0.00    -0.292 OA
HETATM    5  C10 UNL     1      21.733  10.134   1.743  1.00  0.00     0.069 C
HETATM    6  C11 UNL     1      21.330   9.754   0.351  1.00  0.00    -0.007 C
HETATM    7  C12 UNL     1      19.974   9.084   0.286  1.00  0.00     0.011 C
HETATM    8  C13 UNL     1      22.388   8.882  -0.314  1.00  0.00     0.006 C
HETATM    9  C14 UNL     1      22.648   7.635   0.475  1.00  0.00     0.009 C
HETATM   10  C15 UNL     1      22.879   7.872   1.945  1.00  0.00    -0.043 C
HETATM   11  C16 UNL     1      22.032   6.922   2.718  1.00  0.00     0.015 C
HETATM   12  C17 UNL     1      24.332   7.416   2.199  1.00  0.00     0.015 C
HETATM   13  C18 UNL     1      22.820   9.301   2.312  1.00  0.00     0.009 C
HETATM   14  C19 UNL     1      22.945   9.566   3.792  1.00  0.00     0.042 C
ENDROOT
BRANCH   1  15
HETATM   15  C5  UNL     1      21.691   8.925   5.932  1.00  0.00     0.311 C
BRANCH  15  16
HETATM   16  N3  UNL     1      22.969   8.550   6.505  1.00  0.00     0.146 N
HETATM   17  C4  UNL     1      22.838   8.518   7.964  1.00  0.00     0.507 C
HETATM   18  N2  UNL     1      23.969   8.070   8.672  1.00  0.00    -0.022 N
HETATM   19  C3  UNL     1      25.025   7.774   7.729  1.00  0.00     0.507 C
ATOM     20  H22 UNL     1      23.759   7.279   9.281  1.00  0.00     0.281 HD
ATOM     21  H21 UNL     1      24.264   8.729   9.392  1.00  0.00     0.281 HD
HETATM   22  N1  UNL     1      24.474   6.696   6.907  1.00  0.00     0.141 N
HETATM   23  C20 UNL     1      23.520   7.324   6.007  1.00  0.00     0.547 C
BRANCH  22  24
HETATM   24  C2  UNL     1      25.587   6.215   6.100  1.00  0.00     0.272 C
HETATM   25  C1  UNL     1      25.149   5.289   4.999  1.00  0.00     0.037 C
ENDBRANCH  22  24
ENDBRANCH  15  16
ENDBRANCH   1  15
BRANCH   2  26
HETATM   26  C8  UNL     1      19.213   9.701   4.649  1.00  0.00     0.206 C
BRANCH  26  27
HETATM   27  O1  UNL     1      18.565  10.964   4.709  1.00  0.00    -0.396 OA
ATOM     28  H1  UNL     1      18.987  11.603   4.146  1.00  0.00     0.209 HD
ENDBRANCH  26  27
ENDBRANCH   2  26
TORSDOF 5
ENDMDL