MODEL 1
REMARK VINA RESULT: -8.495599019      0.000      0.000
REMARK  7 active torsions:
REMARK  status: ('A' for Active; 'I' for Inactive)
REMARK    1  A    between atoms: C3_3  and  O1_4
REMARK    2  A    between atoms: C4_6  and  O2_7
REMARK    3  A    between atoms: O2_7  and  C5_8
REMARK    4  A    between atoms: C5_8  and  C6_10
REMARK    5  A    between atoms: C6_10  and  C7_11
REMARK    6  A    between atoms: C7_11  and  C8_12
REMARK       I    between atoms: C8_12  and  N1_14
REMARK    7  A    between atoms: N1_14  and  C9_16
ROOT
HETATM    1  C5  UNL     1      17.710  11.666   0.606  1.00  0.00     0.259 C
HETATM    2  O3  UNL     1      18.197  12.808   0.391  1.00  0.00    -0.265 OA
ENDROOT
BRANCH   1   3
HETATM    3  O2  UNL     1      16.646  11.694   1.544  1.00  0.00    -0.312 OA
BRANCH   3   4
HETATM    4  C4  UNL     1      16.527  10.756   2.579  1.00  0.00     0.177 C
HETATM    5  C3  UNL     1      16.390  11.470   3.905  1.00  0.00     0.178 C
HETATM    6  C2  UNL     1      15.401  10.439   4.289  1.00  0.00    -0.047 C
HETATM    7  C1  UNL     1      14.962   9.966   5.440  1.00  0.00     0.018 C
HETATM    8  C12 UNL     1      15.152  10.201   2.852  1.00  0.00     0.014 C
HETATM    9  C13 UNL     1      14.024  10.956   2.220  1.00  0.00     0.017 C
HETATM   10  C17 UNL     1      15.080   8.736   2.472  1.00  0.00     0.017 C
HETATM   11  C14 UNL     1      13.384  10.263   1.048  1.00  0.00     0.001 C
HETATM   12  C15 UNL     1      12.929   8.861   1.374  1.00  0.00     0.000 C
HETATM   13  C16 UNL     1      13.638   8.310   2.594  1.00  0.00     0.001 C
BRANCH   5  14
HETATM   14  O1  UNL     1      15.842  12.741   3.744  1.00  0.00    -0.389 OA
ATOM     15  H1  UNL     1      15.924  13.294   4.513  1.00  0.00     0.210 HD
ENDBRANCH   5  14
ENDBRANCH   3   4
ENDBRANCH   1   3
BRANCH   1  16
HETATM   16  C6  UNL     1      18.157  10.422  -0.016  1.00  0.00     0.120 C
BRANCH  16  17
HETATM   17  C7  UNL     1      17.933  10.297  -1.485  1.00  0.00     0.113 C
BRANCH  17  18
HETATM   18  C8  UNL     1      16.606   9.850  -1.907  1.00  0.00     0.224 C
HETATM   19  O4  UNL     1      15.914   9.117  -1.158  1.00  0.00    -0.273 OA
HETATM   20  N1  UNL     1      16.088  10.249  -3.172  1.00  0.00    -0.307 N
ATOM     21  H1  UNL     1      16.670  10.726  -3.861  1.00  0.00     0.171 HD
BRANCH  20  22
HETATM   22  C9  UNL     1      14.827   9.973  -3.408  1.00  0.00     0.150 A
HETATM   23  N2  UNL     1      13.789  10.178  -2.590  1.00  0.00    -0.346 N
HETATM   24  C10 UNL     1      12.604   9.840  -2.999  1.00  0.00     0.097 A
ATOM     25  H2  UNL     1      13.926  10.588  -1.667  1.00  0.00     0.167 HD
HETATM   26  C11 UNL     1      12.481   9.294  -4.249  1.00  0.00     0.070 A
HETATM   27  S1  UNL     1      14.100   9.288  -4.789  1.00  0.00    -0.064 SA
ENDBRANCH  20  22
ENDBRANCH  17  18
ENDBRANCH  16  17
ENDBRANCH   1  16
TORSDOF 7
ENDMDL