MODEL 3
REMARK VINA RESULT: -8.979882736      1.111      1.204
REMARK  5 active torsions:
REMARK  status: ('A' for Active; 'I' for Inactive)
REMARK    1  A    between atoms: N1_1  and  C1_4
REMARK    2  A    between atoms: C3_12  and  N5_13
REMARK       I    between atoms: N6_17  and  C7_19
REMARK    3  A    between atoms: C7_19  and  C8_21
REMARK    4  A    between atoms: C8_21  and  C9_22
REMARK    5  A    between atoms: C9_22  and  C10_23
ROOT
HETATM    1  N5  UNL     1      14.199  10.547  -1.563  1.00  0.00    -0.362 N
HETATM    2  C4  UNL     1      13.444  11.071  -0.437  1.00  0.00     0.130 C
HETATM    3  C5  UNL     1      13.652  10.084   0.705  1.00  0.00     0.072 C
HETATM    4  C6  UNL     1      15.062   9.755   0.906  1.00  0.00    -0.007 C
HETATM    5  N6  UNL     1      15.473   9.355   2.054  1.00  0.00    -0.334 N
ATOM      6  H6  UNL     1      16.454   9.122   2.210  1.00  0.00     0.168 HD
HETATM    7  C7  UNL     1      14.506   9.245   3.112  1.00  0.00     0.221 C
HETATM    8  O1  UNL     1      13.579   8.413   3.002  1.00  0.00    -0.273 OA
HETATM    9  C17 UNL     1      16.101   9.851  -0.152  1.00  0.00     0.072 C
HETATM   10  C18 UNL     1      15.627  10.466  -1.421  1.00  0.00     0.130 C
ENDROOT
BRANCH   7  11
HETATM   11  C8  UNL     1      14.638  10.110   4.288  1.00  0.00     0.103 C
BRANCH  11  12
HETATM   12  C9  UNL     1      15.569   9.620   5.356  1.00  0.00     0.014 C
BRANCH  12  13
HETATM   13  C10 UNL     1      14.890   8.650   6.244  1.00  0.00    -0.010 C
HETATM   14  C11 UNL     1      15.684   8.399   7.540  1.00  0.00     0.009 C
HETATM   15  C12 UNL     1      14.689   8.385   8.658  1.00  0.00    -0.014 C
HETATM   16  C13 UNL     1      14.392   9.821   9.027  1.00  0.00     0.005 C
HETATM   17  C16 UNL     1      13.393   8.053   7.898  1.00  0.00     0.009 C
HETATM   18  C14 UNL     1      13.792  10.341   7.714  1.00  0.00     0.005 C
HETATM   19  C15 UNL     1      13.590   9.149   6.827  1.00  0.00    -0.010 C
ENDBRANCH  12  13
ENDBRANCH  11  12
ENDBRANCH   7  11
BRANCH   1  20
HETATM   20  C3  UNL     1      13.588  10.126  -2.759  1.00  0.00     0.162 A
HETATM   21  C1  UNL     1      14.351   9.930  -3.879  1.00  0.00     0.146 A
HETATM   22  N2  UNL     1      13.768   9.529  -5.013  1.00  0.00    -0.335 N
HETATM   23  C2  UNL     1      12.439   9.316  -5.064  1.00  0.00     0.199 A
ATOM     24  H2  UNL     1      14.334   9.382  -5.848  1.00  0.00     0.168 HD
HETATM   25  N3  UNL     1      11.697   9.509  -3.972  1.00  0.00    -0.294 N
HETATM   26  N4  UNL     1      12.270   9.904  -2.854  1.00  0.00    -0.282 N
ATOM     27  H3  UNL     1      10.690   9.350  -4.002  1.00  0.00     0.187 HD
ATOM     28  H4  UNL     1      11.689  10.046  -2.027  1.00  0.00     0.188 HD
BRANCH  21  29
HETATM   29  N1  UNL     1      15.617  10.133  -3.823  1.00  0.00    -0.382 N
ATOM     30  H12 UNL     1      15.965  11.067  -3.603  1.00  0.00     0.157 HD
ATOM     31  H11 UNL     1      16.279   9.376  -3.994  1.00  0.00     0.157 HD
ENDBRANCH  21  29
ENDBRANCH   1  20
TORSDOF 5
ENDMDL