MODEL 5
REMARK VINA RESULT: -8.558721978      1.944      8.143
REMARK  7 active torsions:
REMARK  status: ('A' for Active; 'I' for Inactive)
REMARK    1  A    between atoms: O1_1  and  N1_3
REMARK    2  A    between atoms: N1_3  and  N2_4
REMARK    3  A    between atoms: N1_3  and  N5_23
REMARK    4  A    between atoms: N2_4  and  S1_6
REMARK    5  A    between atoms: S1_6  and  N3_8
REMARK    6  A    between atoms: S1_6  and  C1_12
REMARK    7  A    between atoms: N3_8  and  O3_10
ROOT
HETATM    1  S1  UNL     1      15.793  10.781   3.494  1.00  0.00     0.175 S
HETATM    2  O2  UNL     1      15.116  12.107   3.696  1.00  0.00    -0.223 OA
ENDROOT
BRANCH   1   3
HETATM    3  N2  UNL     1      15.816  10.309   1.838  1.00  0.00    -0.199 N
ATOM      4  H2  UNL     1      16.679   9.920   1.460  1.00  0.00     0.202 HD
BRANCH   3   5
HETATM    5  N1  UNL     1      14.716  10.428   0.984  1.00  0.00    -0.089 N
BRANCH   5   6
HETATM    6  O1  UNL     1      13.589  10.476   1.556  1.00  0.00    -0.253 OA
ATOM      7  H1  UNL     1      12.839  10.334   0.991  1.00  0.00     0.248 HD
ENDBRANCH   5   6
BRANCH   5   8
HETATM    8  N5  UNL     1      14.847  10.488  -0.396  1.00  0.00    -0.286 N
HETATM    9  C9  UNL     1      13.807  11.206  -1.086  1.00  0.00     0.146 C
HETATM   10  C10 UNL     1      13.021  10.201  -1.894  1.00  0.00     0.021 C
HETATM   11  C11 UNL     1      13.906   9.204  -2.593  1.00  0.00     0.002 C
HETATM   12  C12 UNL     1      15.070   9.811  -3.295  1.00  0.00     0.002 C
HETATM   13  C13 UNL     1      16.213  10.183  -2.402  1.00  0.00     0.021 C
HETATM   14  C14 UNL     1      15.993   9.831  -0.957  1.00  0.00     0.146 C
ENDBRANCH   5   8
ENDBRANCH   3   5
ENDBRANCH   1   3
BRANCH   1  15
HETATM   15  N3  UNL     1      17.285  10.938   3.974  1.00  0.00    -0.208 N
ATOM     16  H3  UNL     1      17.509  10.830   4.963  1.00  0.00     0.205 HD
BRANCH  15  17
HETATM   17  O3  UNL     1      18.298  11.223   3.070  1.00  0.00    -0.281 OA
ATOM     18  H3  UNL     1      18.099  11.460   2.172  1.00  0.00     0.245 HD
ENDBRANCH  15  17
ENDBRANCH   1  15
BRANCH   1  19
HETATM   19  C1  UNL     1      15.010   9.521   4.470  1.00  0.00     0.310 C
HETATM   20  C2  UNL     1      15.966   9.099   5.564  1.00  0.00     0.056 C
HETATM   21  C3  UNL     1      15.001   8.407   6.533  1.00  0.00     0.019 C
HETATM   22  C4  UNL     1      15.595   8.384   7.919  1.00  0.00     0.007 C
HETATM   23  C8  UNL     1      13.798   9.305   6.439  1.00  0.00     0.191 C
HETATM   24  C5  UNL     1      14.476   8.344   8.933  1.00  0.00     0.001 C
HETATM   25  C6  UNL     1      13.761   9.658   8.920  1.00  0.00     0.002 C
HETATM   26  C7  UNL     1      13.750  10.318   7.559  1.00  0.00     0.033 C
HETATM   27  N4  UNL     1      13.885  10.014   5.199  1.00  0.00    -0.053 N
ATOM     28  H42 UNL     1      13.916  11.025   5.329  1.00  0.00     0.279 HD
ATOM     29  H41 UNL     1      13.019   9.968   4.661  1.00  0.00     0.279 HD
ENDBRANCH   1  19
TORSDOF 7
ENDMDL