MODEL 1
REMARK VINA RESULT: -9.819964554      0.000      0.000
REMARK  4 active torsions:
REMARK  status: ('A' for Active; 'I' for Inactive)
REMARK    1  A    between atoms: C2_2  and  C3_3
REMARK    2  A    between atoms: C4_6  and  C5_7
REMARK    3  A    between atoms: C5_7  and  N2_8
REMARK    4  A    between atoms: N3_17  and  C14_18
ROOT
HETATM    1  N2  UNL     1      14.906   9.563   3.054  1.00  0.00     0.095 N
HETATM    2  C6  UNL     1      15.085   8.284   2.386  1.00  0.00     0.273 C
HETATM    3  C7  UNL     1      14.112   8.045   1.278  1.00  0.00     0.031 C
HETATM    4  C8  UNL     1      14.689   8.383  -0.075  1.00  0.00     0.011 C
HETATM    5  C9  UNL     1      14.942   9.837  -0.286  1.00  0.00    -0.035 C
HETATM    6  C10 UNL     1      15.483  10.553   0.933  1.00  0.00     0.040 C
HETATM    7  C11 UNL     1      14.529  10.583   2.090  1.00  0.00     0.273 C
HETATM    8  C12 UNL     1      16.004   9.972  -1.352  1.00  0.00     0.040 C
HETATM    9  C13 UNL     1      15.500   9.596  -2.719  1.00  0.00     0.273 C
HETATM   10  N3  UNL     1      14.321  10.326  -3.056  1.00  0.00     0.092 N
HETATM   11  C17 UNL     1      13.266  10.291  -2.098  1.00  0.00     0.273 C
HETATM   12  C18 UNL     1      13.647  10.497  -0.676  1.00  0.00     0.040 C
ENDROOT
BRANCH   1  13
HETATM   13  C5  UNL     1      13.823   9.402   3.992  1.00  0.00     0.349 C
BRANCH  13  14
HETATM   14  C4  UNL     1      14.251   9.328   5.404  1.00  0.00     0.127 A
HETATM   15  N1  UNL     1      13.581   9.997   6.373  1.00  0.00    -0.333 N
HETATM   16  C3  UNL     1      13.924   9.970   7.672  1.00  0.00     0.098 A
ATOM     17  H1  UNL     1      12.771  10.553   6.100  1.00  0.00     0.168 HD
HETATM   18  N6  UNL     1      14.994   9.231   8.014  1.00  0.00    -0.181 N
HETATM   19  C19 UNL     1      15.690   8.546   7.063  1.00  0.00     0.678 A
ATOM     20  H6  UNL     1      15.287   9.183   8.990  1.00  0.00     0.185 HD
HETATM   21  N4  UNL     1      15.315   8.600   5.771  1.00  0.00    -0.179 N
HETATM   22  N5  UNL     1      16.721   7.827   7.348  1.00  0.00    -0.234 N
ATOM     23  H4  UNL     1      15.843   8.083   5.067  1.00  0.00     0.185 HD
ATOM     24  H52 UNL     1      17.241   7.314   6.636  1.00  0.00     0.174 HD
ATOM     25  H51 UNL     1      17.004   7.787   8.326  1.00  0.00     0.174 HD
BRANCH  16  26
HETATM   26  C2  UNL     1      13.163  10.718   8.713  1.00  0.00     0.072 C
HETATM   27  C1  UNL     1      14.115  11.095   9.813  1.00  0.00     0.013 C
ENDBRANCH  16  26
ENDBRANCH  13  14
ENDBRANCH   1  13
BRANCH  10  28
HETATM   28  C14 UNL     1      13.769   9.868  -4.323  1.00  0.00     0.215 C
HETATM   29  C15 UNL     1      13.268   8.452  -4.247  1.00  0.00     0.042 C
HETATM   30  C16 UNL     1      14.758   9.984  -5.442  1.00  0.00     0.042 C
ENDBRANCH  10  28
TORSDOF 4
ENDMDL