MODEL 5
REMARK VINA RESULT: -8.107119195      4.638      6.103
REMARK  7 active torsions:
REMARK  status: ('A' for Active; 'I' for Inactive)
REMARK    1  A    between atoms: C2_2  and  O1_3
REMARK    2  A    between atoms: O1_3  and  C3_4
REMARK       I    between atoms: C3_4  and  N1_6
REMARK    3  A    between atoms: C6_9  and  O3_10
REMARK    4  A    between atoms: C7_12  and  C8_13
REMARK    5  A    between atoms: C8_13  and  O4_14
REMARK    6  A    between atoms: O4_14  and  C9_15
REMARK       I    between atoms: C9_15  and  N2_17
REMARK    7  A    between atoms: N2_17  and  C10_19
ROOT
HETATM    1  C3  UNL     1      22.440   5.943   3.626  1.00  0.00     0.367 C
HETATM    2  O2  UNL     1      23.507   5.278   3.591  1.00  0.00    -0.238 OA
HETATM    3  N1  UNL     1      22.238   7.118   2.854  1.00  0.00    -0.320 N
HETATM    4  C4  UNL     1      23.233   7.663   1.957  1.00  0.00     0.132 C
HETATM    5  C5  UNL     1      22.377   8.268   0.871  1.00  0.00     0.060 C
HETATM    6  C6  UNL     1      21.208   8.805   1.644  1.00  0.00     0.085 C
HETATM    7  C7  UNL     1      21.449  10.200   2.173  1.00  0.00     0.047 C
HETATM    8  C16 UNL     1      20.676  10.164   3.498  1.00  0.00     0.012 C
HETATM    9  C17 UNL     1      20.904   8.788   4.054  1.00  0.00     0.029 C
HETATM   10  C18 UNL     1      21.040   7.914   2.855  1.00  0.00     0.124 C
ENDROOT
BRANCH   7  11
HETATM   11  C8  UNL     1      20.845  11.172   1.233  1.00  0.00     0.188 C
BRANCH  11  12
HETATM   12  O4  UNL     1      19.597  11.682   1.637  1.00  0.00    -0.304 OA
BRANCH  12  13
HETATM   13  C9  UNL     1      18.484  11.770   0.862  1.00  0.00     0.360 C
HETATM   14  O5  UNL     1      18.261  12.854   0.275  1.00  0.00    -0.239 OA
HETATM   15  N2  UNL     1      17.541  10.720   0.659  1.00  0.00    -0.332 N
ATOM     16  H2  UNL     1      17.694   9.825   1.123  1.00  0.00     0.165 HD
BRANCH  15  17
HETATM   17  C10 UNL     1      16.376  10.882  -0.182  1.00  0.00     0.086 C
HETATM   18  C11 UNL     1      16.636  10.249  -1.499  1.00  0.00     0.025 C
HETATM   19  C12 UNL     1      15.458   9.459  -2.037  1.00  0.00     0.002 C
HETATM   20  C13 UNL     1      14.238  10.318  -1.862  1.00  0.00     0.000 C
HETATM   21  C14 UNL     1      13.902  10.520  -0.402  1.00  0.00     0.002 C
HETATM   22  C15 UNL     1      15.110  10.452   0.486  1.00  0.00     0.025 C
ENDBRANCH  15  17
ENDBRANCH  12  13
ENDBRANCH  11  12
ENDBRANCH   7  11
BRANCH   6  23
HETATM   23  O3  UNL     1      20.078   8.746   0.838  1.00  0.00    -0.387 OA
ATOM     24  H3  UNL     1      19.393   8.286   1.309  1.00  0.00     0.210 HD
ENDBRANCH   6  23
BRANCH   1  25
HETATM   25  O1  UNL     1      21.445   5.448   4.485  1.00  0.00    -0.275 OA
BRANCH  25  26
HETATM   26  C2  UNL     1      20.773   4.275   4.222  1.00  0.00     0.137 C
HETATM   27  C1  UNL     1      19.465   4.241   4.260  1.00  0.00     0.038 C
ENDBRANCH  25  26
ENDBRANCH   1  25
TORSDOF 7
ENDMDL