MODEL 3
REMARK VINA RESULT: -7.753851707      3.525      6.075
REMARK  6 active torsions:
REMARK  status: ('A' for Active; 'I' for Inactive)
REMARK    1  A    between atoms: C2_2  and  N1_3
REMARK    2  A    between atoms: N1_3  and  C3_5
REMARK    3  A    between atoms: C3_5  and  N2_7
REMARK    4  A    between atoms: N2_7  and  C4_9
REMARK    5  A    between atoms: C4_9  and  C5_10
REMARK    6  A    between atoms: C5_10  and  C6_11
ROOT
HETATM    1  C6  UNL     1      16.152   9.036   5.138  1.00  0.00     0.160 C
HETATM    2  O1  UNL     1      15.814   9.393   6.438  1.00  0.00    -0.347 OA
HETATM    3  C7  UNL     1      14.588   8.782   6.701  1.00  0.00     0.167 C
HETATM    4  C8  UNL     1      13.580   9.763   7.254  1.00  0.00     0.068 C
HETATM    5  C9  UNL     1      14.033   9.943   8.677  1.00  0.00     0.006 C
HETATM    6  C10 UNL     1      14.598   8.615   9.097  1.00  0.00     0.006 C
HETATM    7  C11 UNL     1      14.802   7.804   7.826  1.00  0.00     0.068 C
HETATM    8  O2  UNL     1      14.048   8.151   5.585  1.00  0.00    -0.323 OA
HETATM    9  C12 UNL     1      13.798   9.056   4.572  1.00  0.00     0.298 C
HETATM   10  O3  UNL     1      13.435   8.411   3.400  1.00  0.00    -0.323 OA
HETATM   11  C13 UNL     1      14.014   9.241   2.437  1.00  0.00     0.160 C
HETATM   12  C14 UNL     1      13.262  10.543   2.422  1.00  0.00     0.078 C
HETATM   13  C15 UNL     1      13.937   8.632   1.056  1.00  0.00     0.078 C
HETATM   14  O4  UNL     1      15.306   9.343   2.906  1.00  0.00    -0.343 OA
HETATM   15  C16 UNL     1      15.147   9.691   4.226  1.00  0.00     0.209 C
ENDROOT
BRANCH   1  16
HETATM   16  C5  UNL     1      17.581   9.317   4.780  1.00  0.00     0.054 C
BRANCH  16  17
HETATM   17  C4  UNL     1      18.251   8.204   4.064  1.00  0.00     0.124 C
BRANCH  17  18
HETATM   18  N2  UNL     1      18.726   7.159   4.924  1.00  0.00    -0.367 N
ATOM     19  H2  UNL     1      18.405   7.171   5.892  1.00  0.00     0.161 HD
BRANCH  18  20
HETATM   20  C3  UNL     1      19.607   6.109   4.544  1.00  0.00     0.167 C
HETATM   21  S1  UNL     1      21.208   6.417   4.535  1.00  0.00    -0.041 SA
BRANCH  20  22
HETATM   22  N1  UNL     1      19.165   4.830   4.165  1.00  0.00    -0.368 N
ATOM     23  H1  UNL     1      18.161   4.671   4.081  1.00  0.00     0.161 HD
BRANCH  22  24
HETATM   24  C2  UNL     1      20.064   3.723   3.886  1.00  0.00     0.117 C
HETATM   25  C1  UNL     1      19.445   2.697   2.993  1.00  0.00     0.026 C
ENDBRANCH  22  24
ENDBRANCH  20  22
ENDBRANCH  18  20
ENDBRANCH  17  18
ENDBRANCH  16  17
ENDBRANCH   1  16
TORSDOF 6
ENDMDL