MODEL 3
REMARK VINA RESULT: -8.609675392      0.570      1.270
REMARK  6 active torsions:
REMARK  status: ('A' for Active; 'I' for Inactive)
REMARK    1  A    between atoms: N1_4  and  C4_5
REMARK    2  A    between atoms: C4_5  and  C5_6
REMARK    3  A    between atoms: C4_5  and  C6_9
REMARK    4  A    between atoms: C5_6  and  O1_7
REMARK    5  A    between atoms: C7_15  and  N4_16
REMARK       I    between atoms: N4_16  and  C8_18
REMARK    6  A    between atoms: C8_18  and  C9_20
ROOT
HETATM    1  C6  UNL     1      17.704  10.574   2.567  1.00  0.00     0.127 A
HETATM    2  N2  UNL     1      17.537  11.296   3.716  1.00  0.00    -0.236 N
ATOM      3  H2  UNL     1      16.731  11.884   3.930  1.00  0.00     0.197 HD
HETATM    4  O2  UNL     1      18.552  11.119   4.486  1.00  0.00    -0.155 OA
HETATM    5  N3  UNL     1      19.426  10.315   3.951  1.00  0.00    -0.223 N
ATOM      6  H3  UNL     1      20.314  10.019   4.356  1.00  0.00     0.198 HD
HETATM    7  C7  UNL     1      18.924   9.955   2.763  1.00  0.00     0.161 A
ENDROOT
BRANCH   1   8
HETATM    8  C4  UNL     1      16.892  10.559   1.326  1.00  0.00     0.064 C
BRANCH   8   9
HETATM    9  N1  UNL     1      15.596  10.117   1.344  1.00  0.00    -0.380 N
HETATM   10  C3  UNL     1      14.544  10.487   2.136  1.00  0.00     0.127 C
HETATM   11  C2  UNL     1      13.240  10.146   1.392  1.00  0.00     0.005 C
HETATM   12  C1  UNL     1      12.628   8.851   1.952  1.00  0.00     0.012 C
HETATM   13  C17 UNL     1      13.636   9.826  -0.024  1.00  0.00     0.005 C
HETATM   14  C16 UNL     1      15.108   9.711   0.023  1.00  0.00     0.127 C
HETATM   15  C18 UNL     1      13.256  10.856  -1.029  1.00  0.00     0.012 C
ENDBRANCH   8   9
BRANCH   8  16
HETATM   16  C5  UNL     1      17.403  11.500   0.262  1.00  0.00     0.223 C
BRANCH  16  17
HETATM   17  O1  UNL     1      17.820  12.716   0.810  1.00  0.00    -0.395 OA
ATOM     18  H1  UNL     1      17.743  13.426   0.183  1.00  0.00     0.209 HD
ENDBRANCH  16  17
ENDBRANCH   8  16
ENDBRANCH   1   8
BRANCH   7  19
HETATM   19  N4  UNL     1      19.415   9.105   1.961  1.00  0.00    -0.309 N
HETATM   20  C8  UNL     1      20.492   9.214   1.083  1.00  0.00     0.231 C
HETATM   21  O3  UNL     1      20.426   9.698  -0.087  1.00  0.00    -0.272 OA
ATOM     22  H4  UNL     1      18.949   8.198   1.958  1.00  0.00     0.170 HD
BRANCH  20  23
HETATM   23  C9  UNL     1      21.864   8.724   1.508  1.00  0.00     0.037 C
HETATM   24  C10 UNL     1      22.609   8.431   0.204  1.00  0.00     0.025 C
HETATM   25  C11 UNL     1      22.544   9.827   2.237  1.00  0.00     0.019 C
HETATM   26  C12 UNL     1      23.106   9.466   3.572  1.00  0.00     0.001 C
HETATM   27  C13 UNL     1      23.850   8.133   3.403  1.00  0.00     0.000 C
HETATM   28  C14 UNL     1      22.800   7.097   3.225  1.00  0.00     0.001 C
HETATM   29  C15 UNL     1      21.707   7.458   2.256  1.00  0.00     0.019 C
ENDBRANCH  20  23
ENDBRANCH   7  19
TORSDOF 6
ENDMDL