MODEL 2
REMARK VINA RESULT: -8.982518225      3.419      8.577
REMARK  7 active torsions:
REMARK  status: ('A' for Active; 'I' for Inactive)
REMARK    1  A    between atoms: N1_7  and  C7_8
REMARK    2  A    between atoms: C7_8  and  C8_9
REMARK    3  A    between atoms: C8_9  and  N2_10
REMARK    4  A    between atoms: C10_15  and  C11_16
REMARK    5  A    between atoms: N6_26  and  C17_27
REMARK    6  A    between atoms: C20_30  and  C21_31
REMARK    7  A    between atoms: C21_31  and  O1_32
ROOT
HETATM    1  N2  UNL     1      15.084   9.613   3.705  1.00  0.00    -0.373 N
ATOM      2  H2  UNL     1      14.126   9.264   3.730  1.00  0.00     0.161 HD
HETATM    3  C9  UNL     1      15.512  10.094   2.591  1.00  0.00     0.133 A
HETATM    4  N3  UNL     1      16.750  10.590   2.401  1.00  0.00    -0.330 N
ATOM      5  H3  UNL     1      17.406  10.596   3.183  1.00  0.00     0.168 HD
HETATM    6  C10 UNL     1      17.148  11.081   1.203  1.00  0.00     0.088 A
HETATM    7  N4  UNL     1      16.313  11.089   0.150  1.00  0.00    -0.330 N
ATOM      8  H4  UNL     1      16.631  11.462  -0.745  1.00  0.00     0.168 HD
HETATM    9  C14 UNL     1      15.062  10.610   0.265  1.00  0.00     0.143 A
HETATM   10  C15 UNL     1      14.672  10.112   1.497  1.00  0.00     0.122 A
HETATM   11  N5  UNL     1      13.391   9.708   1.317  1.00  0.00    -0.346 N
ATOM     12  H5  UNL     1      12.793   9.288   2.029  1.00  0.00     0.167 HD
HETATM   13  C16 UNL     1      13.042   9.953   0.044  1.00  0.00     0.188 A
HETATM   14  N6  UNL     1      14.059  10.513  -0.631  1.00  0.00    -0.300 N
ENDROOT
BRANCH   1  15
HETATM   15  C8  UNL     1      15.847   9.531   4.908  1.00  0.00     0.151 C
BRANCH  15  16
HETATM   16  C7  UNL     1      15.116  10.275   5.988  1.00  0.00     0.293 C
BRANCH  16  17
HETATM   17  N1  UNL     1      14.773   9.518   7.139  1.00  0.00     0.098 N
HETATM   18  C2  UNL     1      15.026   8.112   7.078  1.00  0.00     0.219 C
HETATM   19  C1  UNL     1      16.300   7.837   7.859  1.00  0.00     0.043 C
HETATM   20  C3  UNL     1      13.909   7.397   7.765  1.00  0.00     0.037 C
HETATM   21  C4  UNL     1      13.117   8.465   8.451  1.00  0.00     0.037 C
HETATM   22  C5  UNL     1      13.456   9.711   7.657  1.00  0.00     0.219 C
HETATM   23  C6  UNL     1      13.478  10.940   8.545  1.00  0.00     0.043 C
ENDBRANCH  16  17
ENDBRANCH  15  16
ENDBRANCH   1  15
BRANCH   6  24
HETATM   24  C11 UNL     1      18.513  11.631   0.991  1.00  0.00     0.053 A
HETATM   25  C12 UNL     1      19.212  11.434  -0.295  1.00  0.00     0.013 A
HETATM   26  C13 UNL     1      19.569  10.526   0.842  1.00  0.00     0.013 A
ENDBRANCH   6  24
BRANCH  14  27
HETATM   27  C17 UNL     1      14.069  10.923  -2.038  1.00  0.00     0.231 C
HETATM   28  C18 UNL     1      12.878  10.418  -2.768  1.00  0.00     0.057 C
HETATM   29  C19 UNL     1      13.429   9.369  -3.681  1.00  0.00     0.038 C
HETATM   30  C20 UNL     1      14.899   9.394  -3.451  1.00  0.00     0.147 C
HETATM   31  O2  UNL     1      15.200  10.448  -2.638  1.00  0.00    -0.359 OA
BRANCH  30  32
HETATM   32  C21 UNL     1      15.653   9.593  -4.770  1.00  0.00     0.196 C
BRANCH  32  33
HETATM   33  O1  UNL     1      14.824  10.179  -5.717  1.00  0.00    -0.398 OA
ATOM     34  H1  UNL     1      15.216  10.121  -6.581  1.00  0.00     0.209 HD
ENDBRANCH  32  33
ENDBRANCH  30  32
ENDBRANCH  14  27
TORSDOF 7
ENDMDL