MODEL 5
REMARK VINA RESULT: -8.364478388      3.459      6.254
REMARK  8 active torsions:
REMARK  status: ('A' for Active; 'I' for Inactive)
REMARK    1  A    between atoms: C2_3  and  N1_4
REMARK    2  A    between atoms: N1_4  and  C3_6
REMARK    3  A    between atoms: C3_6  and  C4_7
REMARK    4  A    between atoms: C4_7  and  O2_8
REMARK    5  A    between atoms: C5_10  and  N2_11
REMARK    6  A    between atoms: N3_18  and  N4_19
REMARK    7  A    between atoms: N4_19  and  O3_20
REMARK    8  A    between atoms: N5_22  and  C12_24
ROOT
HETATM    1  N2  UNL     1      20.379   9.036   2.335  1.00  0.00    -0.374 N
HETATM    2  C6  UNL     1      19.679   8.364   3.405  1.00  0.00     0.123 C
HETATM    3  C7  UNL     1      19.474   9.206   4.626  1.00  0.00     0.020 C
HETATM    4  C8  UNL     1      17.997   9.316   4.943  1.00  0.00     0.002 C
HETATM    5  C9  UNL     1      17.567  10.754   4.709  1.00  0.00     0.002 C
HETATM    6  C10 UNL     1      16.821  10.880   3.392  1.00  0.00     0.021 C
HETATM    7  C11 UNL     1      17.335  12.050   2.579  1.00  0.00     0.147 C
HETATM    8  N3  UNL     1      18.131  11.602   1.454  1.00  0.00    -0.285 N
HETATM    9  C18 UNL     1      19.520  11.211   1.584  1.00  0.00     0.166 C
HETATM   10  C19 UNL     1      19.626   9.727   1.323  1.00  0.00     0.144 C
ENDROOT
BRANCH   1  11
HETATM   11  C5  UNL     1      21.787   8.988   2.325  1.00  0.00     0.116 A
HETATM   12  C2  UNL     1      22.858   9.459   3.082  1.00  0.00     0.114 A
HETATM   13  C1  UNL     1      23.777   8.875   2.241  1.00  0.00     0.252 A
HETATM   14  O1  UNL     1      25.022   8.768   2.135  1.00  0.00    -0.281 OA
HETATM   15  C20 UNL     1      22.755   8.406   1.488  1.00  0.00     0.252 A
HETATM   16  O4  UNL     1      22.658   7.716   0.443  1.00  0.00    -0.281 OA
BRANCH  12  17
HETATM   17  N1  UNL     1      22.988  10.246   4.254  1.00  0.00    -0.383 N
ATOM     18  H1  UNL     1      22.651  11.207   4.212  1.00  0.00     0.160 HD
BRANCH  17  19
HETATM   19  C3  UNL     1      23.558   9.798   5.502  1.00  0.00     0.146 C
BRANCH  19  20
HETATM   20  C4  UNL     1      24.950  10.314   5.685  1.00  0.00     0.183 C
BRANCH  20  21
HETATM   21  O2  UNL     1      25.852   9.470   5.017  1.00  0.00    -0.399 OA
ATOM     22  H2  UNL     1      25.436   9.113   4.241  1.00  0.00     0.209 HD
ENDBRANCH  20  21
ENDBRANCH  19  20
ENDBRANCH  17  19
ENDBRANCH  12  17
ENDBRANCH   1  11
BRANCH   8  23
HETATM   23  N4  UNL     1      17.513  11.554   0.203  1.00  0.00    -0.101 N
HETATM   24  N5  UNL     1      16.390  10.976   0.147  1.00  0.00    -0.290 N
ATOM     25  H5  UNL     1      16.022  10.589   1.016  1.00  0.00     0.184 HD
BRANCH  23  26
HETATM   26  O3  UNL     1      18.082  12.099  -0.903  1.00  0.00    -0.254 OA
ATOM     27  H3  UNL     1      17.777  11.894  -1.779  1.00  0.00     0.248 HD
ENDBRANCH  23  26
BRANCH  24  28
HETATM   28  C12 UNL     1      15.593  10.818  -1.029  1.00  0.00     0.103 C
HETATM   29  C13 UNL     1      15.903   9.444  -1.608  1.00  0.00     0.027 C
HETATM   30  C14 UNL     1      14.996   9.077  -2.735  1.00  0.00     0.002 C
HETATM   31  C15 UNL     1      13.936  10.149  -2.932  1.00  0.00     0.000 C
HETATM   32  C16 UNL     1      13.207  10.302  -1.619  1.00  0.00     0.002 C
HETATM   33  C17 UNL     1      14.135  10.899  -0.597  1.00  0.00     0.027 C
ENDBRANCH  24  28
ENDBRANCH   8  23
TORSDOF 8
ENDMDL