MODEL 3
REMARK VINA RESULT: -8.443285767      1.056      1.231
REMARK  8 active torsions:
REMARK  status: ('A' for Active; 'I' for Inactive)
REMARK    1  A    between atoms: N1_1  and  C1_4
REMARK    2  A    between atoms: C3_7  and  C4_8
REMARK    3  A    between atoms: C4_8  and  C5_9
REMARK    4  A    between atoms: C5_9  and  C6_10
REMARK    5  A    between atoms: C12_18  and  N3_19
REMARK    6  A    between atoms: N3_19  and  C13_21
REMARK    7  A    between atoms: C13_21  and  C14_22
REMARK    8  A    between atoms: C14_22  and  N4_23
ROOT
HETATM    1  C1  UNL     1      18.144  10.241   2.820  1.00  0.00     0.112 A
HETATM    2  S1  UNL     1      18.124  10.212   4.544  1.00  0.00    -0.079 SA
HETATM    3  C2  UNL     1      16.584   9.752   5.137  1.00  0.00     0.077 A
HETATM    4  C3  UNL     1      15.666   9.497   4.146  1.00  0.00     0.017 A
HETATM    5  N2  UNL     1      15.853   9.568   2.844  1.00  0.00    -0.344 N
ATOM      6  H2  UNL     1      15.043   9.338   2.268  1.00  0.00     0.167 HD
HETATM    7  C12 UNL     1      16.985   9.908   2.167  1.00  0.00     0.135 A
ENDROOT
BRANCH   7   8
HETATM    8  N3  UNL     1      16.899   9.877   0.920  1.00  0.00    -0.372 N
ATOM      9  H3  UNL     1      17.381   9.044   0.584  1.00  0.00     0.161 HD
BRANCH   8  10
HETATM   10  C13 UNL     1      16.394  10.550  -0.164  1.00  0.00     0.151 C
BRANCH  10  11
HETATM   11  C14 UNL     1      16.859   9.782  -1.431  1.00  0.00     0.292 C
BRANCH  11  12
HETATM   12  N4  UNL     1      15.787   9.573  -2.357  1.00  0.00     0.091 N
HETATM   13  C15 UNL     1      14.485   9.611  -1.743  1.00  0.00     0.287 C
HETATM   14  C16 UNL     1      13.386   9.763  -2.739  1.00  0.00     0.170 C
HETATM   15  S2  UNL     1      13.765   9.080  -4.328  1.00  0.00     0.147 S
HETATM   16  O1  UNL     1      13.641   7.606  -4.383  1.00  0.00    -0.228 OA
HETATM   17  O2  UNL     1      12.833   9.717  -5.324  1.00  0.00    -0.228 OA
HETATM   18  C17 UNL     1      15.429   9.625  -4.719  1.00  0.00     0.170 C
HETATM   19  C18 UNL     1      15.893  10.429  -3.524  1.00  0.00     0.287 C
ENDBRANCH  11  12
ENDBRANCH  10  11
ENDBRANCH   8  10
ENDBRANCH   7   8
BRANCH   1  20
HETATM   20  N1  UNL     1      19.179  10.563   2.129  1.00  0.00    -0.390 N
ATOM     21  H12 UNL     1      19.928  11.092   2.576  1.00  0.00     0.157 HD
ATOM     22  H11 UNL     1      19.300  10.312   1.149  1.00  0.00     0.157 HD
ENDBRANCH   1  20
BRANCH   4  23
HETATM   23  C4  UNL     1      14.277   9.104   4.628  1.00  0.00     0.058 C
BRANCH  23  24
HETATM   24  C5  UNL     1      14.160   9.426   6.067  1.00  0.00     0.010 C
BRANCH  24  25
HETATM   25  C6  UNL     1      13.588   8.403   6.977  1.00  0.00    -0.014 C
HETATM   26  C7  UNL     1      14.762   7.844   7.791  1.00  0.00     0.004 C
HETATM   27  C8  UNL     1      15.403   8.868   8.662  1.00  0.00     0.000 C
HETATM   28  C9  UNL     1      14.463   9.695   9.472  1.00  0.00     0.000 C
HETATM   29  C10 UNL     1      13.269  10.186   8.709  1.00  0.00     0.000 C
HETATM   30  C11 UNL     1      12.640   9.006   8.002  1.00  0.00     0.004 C
ENDBRANCH  24  25
ENDBRANCH  23  24
ENDBRANCH   4  23
TORSDOF 8
ENDMDL