MODEL 2
REMARK VINA RESULT: -7.450037681      1.821      5.078
REMARK  9 active torsions:
REMARK  status: ('A' for Active; 'I' for Inactive)
REMARK    1  A    between atoms: C7_7  and  O1_8
REMARK    2  A    between atoms: C10_12  and  C12_14
REMARK    3  A    between atoms: C12_14  and  C13_15
REMARK    4  A    between atoms: C12_14  and  C18_24
REMARK    5  A    between atoms: C13_15  and  C14_17
REMARK    6  A    between atoms: C14_17  and  O3_18
REMARK    7  A    between atoms: C18_24  and  O5_25
REMARK    8  A    between atoms: C18_24  and  C21_29
REMARK    9  A    between atoms: O5_25  and  C19_26
ROOT
HETATM    1  C12 UNL     1      16.158   9.850   1.811  1.00  0.00     0.040 C
ENDROOT
BRANCH   1   2
HETATM    2  C10 UNL     1      17.289  10.616   2.329  1.00  0.00    -0.006 C
HETATM    3  C5  UNL     1      18.601  10.077   2.643  1.00  0.00     0.009 C
HETATM    4  C4  UNL     1      18.748   9.067   3.737  1.00  0.00     0.011 C
HETATM    5  C6  UNL     1      19.592   9.724   1.605  1.00  0.00     0.047 C
HETATM    6  C3  UNL     1      20.288   9.061   3.850  1.00  0.00     0.034 C
HETATM    7  C2  UNL     1      20.761   9.330   2.473  1.00  0.00    -0.082 C
HETATM    8  C1  UNL     1      21.999   9.243   2.052  1.00  0.00     0.015 C
HETATM    9  C7  UNL     1      19.898  11.003   0.852  1.00  0.00     0.126 C
HETATM   10  C8  UNL     1      18.581  11.539   0.353  1.00  0.00     0.033 C
HETATM   11  C9  UNL     1      17.594  11.841   1.402  1.00  0.00     0.017 C
HETATM   12  C11 UNL     1      16.884  11.372   3.631  1.00  0.00     0.021 C
BRANCH   9  13
HETATM   13  O1  UNL     1      20.625  10.628  -0.299  1.00  0.00    -0.395 OA
ATOM     14  H1  UNL     1      20.129   9.937  -0.721  1.00  0.00     0.210 HD
ENDBRANCH   9  13
ENDBRANCH   1   2
BRANCH   1  15
HETATM   15  C13 UNL     1      15.390  10.230   0.651  1.00  0.00     0.224 C
HETATM   16  O2  UNL     1      14.473  11.060   0.842  1.00  0.00    -0.286 OA
BRANCH  15  17
HETATM   17  C14 UNL     1      15.481   9.821  -0.762  1.00  0.00     0.262 A
HETATM   18  O4  UNL     1      15.582  10.959  -1.626  1.00  0.00    -0.330 OA
HETATM   19  C15 UNL     1      14.478   9.969  -1.740  1.00  0.00     0.122 A
HETATM   20  C16 UNL     1      14.669   9.248  -3.062  1.00  0.00     0.052 C
HETATM   21  C17 UNL     1      13.150  10.630  -1.611  1.00  0.00     0.052 C
BRANCH  17  22
HETATM   22  O3  UNL     1      16.419   8.810  -0.988  1.00  0.00    -0.357 OA
ATOM     23  H3  UNL     1      16.428   8.497  -1.885  1.00  0.00     0.213 HD
ENDBRANCH  17  22
ENDBRANCH  15  17
ENDBRANCH   1  15
BRANCH   1  24
HETATM   24  C18 UNL     1      15.261   9.157   2.809  1.00  0.00     0.135 C
BRANCH  24  25
HETATM   25  O5  UNL     1      15.836   8.727   3.978  1.00  0.00    -0.275 OA
BRANCH  25  26
HETATM   26  C19 UNL     1      15.307   8.865   5.215  1.00  0.00     0.260 C
HETATM   27  C20 UNL     1      16.153   9.074   6.453  1.00  0.00     0.126 C
HETATM   28  O6  UNL     1      14.062   8.821   5.378  1.00  0.00    -0.265 OA
ENDBRANCH  25  26
ENDBRANCH  24  25
BRANCH  24  29
HETATM   29  C21 UNL     1      14.318   8.174   2.183  1.00  0.00     0.179 C
HETATM   30  C22 UNL     1      12.867   8.489   2.131  1.00  0.00     0.099 C
HETATM   31  O7  UNL     1      14.695   7.121   1.714  1.00  0.00    -0.291 OA
ENDBRANCH  24  29
ENDBRANCH   1  24
TORSDOF 9
ENDMDL