MODEL 5
REMARK VINA RESULT: -8.777258050      2.534      6.470
REMARK  7 active torsions:
REMARK  status: ('A' for Active; 'I' for Inactive)
REMARK    1  A    between atoms: C2_2  and  N1_4
REMARK    2  A    between atoms: C5_6  and  N2_7
REMARK    3  A    between atoms: C7_11  and  N3_12
REMARK    4  A    between atoms: N3_12  and  C8_14
REMARK    5  A    between atoms: C8_14  and  C9_15
REMARK    6  A    between atoms: C9_15  and  N4_16
REMARK    7  A    between atoms: N6_25  and  C15_27
ROOT
HETATM    1  N1  UNL     1      15.483   9.790   1.252  1.00  0.00    -0.336 N
HETATM    2  C4  UNL     1      16.079  10.254   0.146  1.00  0.00     0.130 A
HETATM    3  C5  UNL     1      17.365  10.725   0.500  1.00  0.00     0.136 A
HETATM    4  C6  UNL     1      17.504  10.527   1.836  1.00  0.00     0.087 A
HETATM    5  C7  UNL     1      18.515  10.787   2.736  1.00  0.00     0.133 A
HETATM    6  N5  UNL     1      18.298  10.455   4.012  1.00  0.00    -0.176 N
ATOM      7  H5  UNL     1      19.033  10.638   4.695  1.00  0.00     0.186 HD
HETATM    8  C14 UNL     1      17.134   9.881   4.440  1.00  0.00     0.681 A
HETATM    9  N6  UNL     1      16.994   9.594   5.674  1.00  0.00    -0.221 N
ATOM     10  H6  UNL     1      17.756   9.798   6.320  1.00  0.00     0.178 HD
HETATM   11  N7  UNL     1      16.151   9.628   3.577  1.00  0.00    -0.175 N
ATOM     12  H7  UNL     1      15.281   9.201   3.897  1.00  0.00     0.186 HD
HETATM   13  C20 UNL     1      16.315   9.941   2.285  1.00  0.00     0.140 A
ENDROOT
BRANCH   5  14
HETATM   14  N3  UNL     1      19.598  11.324   2.416  1.00  0.00    -0.373 N
ATOM     15  H3  UNL     1      19.636  12.331   2.575  1.00  0.00     0.161 HD
BRANCH  14  16
HETATM   16  C8  UNL     1      20.784  10.768   1.869  1.00  0.00     0.140 C
BRANCH  16  17
HETATM   17  C9  UNL     1      21.885  10.613   2.887  1.00  0.00     0.136 C
BRANCH  17  18
HETATM   18  N4  UNL     1      23.022   9.888   2.436  1.00  0.00    -0.407 N
HETATM   19  C10 UNL     1      22.834   9.193   1.202  1.00  0.00     0.143 C
HETATM   20  C11 UNL     1      24.073   8.472   0.788  1.00  0.00     0.187 C
HETATM   21  O3  UNL     1      25.145   8.821   1.617  1.00  0.00    -0.388 OA
HETATM   22  C12 UNL     1      24.821   8.330   2.880  1.00  0.00     0.187 C
HETATM   23  C13 UNL     1      23.710   9.175   3.463  1.00  0.00     0.143 C
ENDBRANCH  17  18
ENDBRANCH  16  17
ENDBRANCH  14  16
ENDBRANCH   5  14
BRANCH   3  24
HETATM   24  N2  UNL     1      18.245  11.285  -0.411  1.00  0.00    -0.113 N
HETATM   25  O1  UNL     1      18.487  12.524  -0.298  1.00  0.00    -0.532 OA
HETATM   26  O2  UNL     1      18.891  10.660  -1.421  1.00  0.00    -0.532 OA
ENDBRANCH   3  24
BRANCH   1  27
HETATM   27  C2  UNL     1      14.139   9.223   1.252  1.00  0.00     0.083 C
HETATM   28  C1  UNL     1      13.299   9.844   0.168  1.00  0.00     0.032 C
HETATM   29  C3  UNL     1      14.226   7.715   1.071  1.00  0.00     0.032 C
ENDBRANCH   1  27
BRANCH   9  30
HETATM   30  C15 UNL     1      15.799   8.995   6.177  1.00  0.00     0.099 C
HETATM   31  C16 UNL     1      15.925   8.316   7.503  1.00  0.00     0.026 C
HETATM   32  C17 UNL     1      14.633   8.630   8.233  1.00  0.00     0.002 C
HETATM   33  C18 UNL     1      13.817   9.497   7.316  1.00  0.00     0.002 C
HETATM   34  C19 UNL     1      14.862  10.188   6.498  1.00  0.00     0.026 C
ENDBRANCH   9  30
TORSDOF 7
ENDMDL