MODEL 3
REMARK VINA RESULT: -8.483244751      0.975      1.234
REMARK  9 active torsions:
REMARK  status: ('A' for Active; 'I' for Inactive)
REMARK    1  A    between atoms: C3_5  and  N2_6
REMARK    2  A    between atoms: N2_6  and  C4_8
REMARK    3  A    between atoms: C4_8  and  C5_9
REMARK    4  A    between atoms: C5_9  and  C6_10
REMARK    5  A    between atoms: C6_10  and  C7_11
REMARK    6  A    between atoms: C7_11  and  O1_12
REMARK    7  A    between atoms: O1_12  and  N3_13
REMARK    8  A    between atoms: C8_18  and  N5_19
REMARK    9  A    between atoms: N5_19  and  C9_21
ROOT
HETATM    1  C1  UNL     1      13.659   9.085   5.038  1.00  0.00     0.070 C
HETATM    2  C2  UNL     1      14.682   9.599   4.071  1.00  0.00     0.047 A
HETATM    3  N1  UNL     1      15.906   9.953   4.491  1.00  0.00    -0.194 N
ATOM      4  H1  UNL     1      16.137   9.870   5.481  1.00  0.00     0.184 HD
HETATM    5  C3  UNL     1      16.837  10.415   3.637  1.00  0.00     0.679 A
HETATM    6  N4  UNL     1      16.506  10.510   2.360  1.00  0.00    -0.175 N
ATOM      7  H4  UNL     1      17.212  10.859   1.712  1.00  0.00     0.186 HD
HETATM    8  C8  UNL     1      15.273  10.170   1.843  1.00  0.00     0.144 A
HETATM    9  C18 UNL     1      14.333   9.700   2.729  1.00  0.00     0.111 A
HETATM   10  C19 UNL     1      12.994   9.299   2.321  1.00  0.00     0.105 C
HETATM   11  N7  UNL     1      11.931   8.970   2.024  1.00  0.00    -0.191 NA
ENDROOT
BRANCH   8  12
HETATM   12  N5  UNL     1      15.073  10.289   0.660  1.00  0.00    -0.343 N
ATOM     13  H5  UNL     1      14.658  11.219   0.596  1.00  0.00     0.167 HD
BRANCH  12  14
HETATM   14  C9  UNL     1      15.090   9.889  -0.613  1.00  0.00     0.032 C
HETATM   15  C10 UNL     1      14.838   8.612  -1.106  1.00  0.00     0.111 C
HETATM   16  N6  UNL     1      14.976   8.692  -2.476  1.00  0.00    -0.387 N
HETATM   17  C11 UNL     1      16.196   9.548  -2.589  1.00  0.00     0.133 C
HETATM   18  C17 UNL     1      14.316   8.441  -3.700  1.00  0.00     0.131 C
HETATM   19  C12 UNL     1      15.332  10.672  -1.916  1.00  0.00     0.056 C
HETATM   20  C13 UNL     1      14.037  10.725  -2.634  1.00  0.00     0.022 C
HETATM   21  C14 UNL     1      13.815   9.958  -3.906  1.00  0.00    -0.031 C
HETATM   22  C15 UNL     1      12.335   9.812  -4.125  1.00  0.00     0.016 C
HETATM   23  C16 UNL     1      14.437  10.528  -5.131  1.00  0.00     0.016 C
ENDBRANCH  12  14
ENDBRANCH   8  12
BRANCH   5  24
HETATM   24  N2  UNL     1      18.023  10.768   4.074  1.00  0.00    -0.226 N
ATOM     25  H2  UNL     1      18.370  11.719   3.948  1.00  0.00     0.177 HD
BRANCH  24  26
HETATM   26  C4  UNL     1      18.844   9.736   4.759  1.00  0.00     0.138 C
BRANCH  26  27
HETATM   27  C5  UNL     1      20.195   9.661   4.153  1.00  0.00     0.022 C
BRANCH  27  28
HETATM   28  C6  UNL     1      20.299   8.711   3.023  1.00  0.00     0.030 C
BRANCH  28  29
HETATM   29  C7  UNL     1      20.480   9.246   1.654  1.00  0.00     0.208 C
BRANCH  29  30
HETATM   30  O1  UNL     1      19.400  10.036   1.240  1.00  0.00    -0.221 OA
BRANCH  30  31
HETATM   31  N3  UNL     1      19.510  11.372   0.992  1.00  0.00     0.004 N
HETATM   32  O2  UNL     1      19.140  12.263   1.816  1.00  0.00    -0.511 OA
HETATM   33  O3  UNL     1      20.045  11.830  -0.206  1.00  0.00    -0.511 OA
ENDBRANCH  30  31
ENDBRANCH  29  30
ENDBRANCH  28  29
ENDBRANCH  27  28
ENDBRANCH  26  27
ENDBRANCH  24  26
ENDBRANCH   5  24
TORSDOF 9
ENDMDL