MODEL 1
REMARK VINA RESULT: -7.731302676      0.000      0.000
REMARK  11 active torsions:
REMARK  status: ('A' for Active; 'I' for Inactive)
REMARK    1  A    between atoms: C2_2  and  C3_3
REMARK    2  A    between atoms: C3_3  and  N1_4
REMARK    3  A    between atoms: N1_4  and  C4_5
REMARK    4  A    between atoms: N1_4  and  C16_23
REMARK    5  A    between atoms: C4_5  and  O1_6
REMARK    6  A    between atoms: C4_5  and  C5_8
REMARK    7  A    between atoms: C5_8  and  S1_9
REMARK    8  A    between atoms: S1_9  and  C6_10
REMARK    9  A    between atoms: C7_11  and  C8_12
REMARK   10  A    between atoms: C9_13  and  C10_14
REMARK   11  A    between atoms: C10_14  and  O2_17
ROOT
HETATM    1  C5  UNL     1      15.690  10.712   1.669  1.00  0.00     0.134 C
ENDROOT
BRANCH   1   2
HETATM    2  C4  UNL     1      15.998  10.420   0.217  1.00  0.00     0.229 C
BRANCH   2   3
HETATM    3  N1  UNL     1      14.985   9.821  -0.509  1.00  0.00    -0.361 N
BRANCH   3   4
HETATM    4  C3  UNL     1      14.022   9.028   0.133  1.00  0.00     0.061 C
BRANCH   4   5
HETATM    5  C2  UNL     1      14.419   7.649   0.505  1.00  0.00     0.040 C
HETATM    6  C1  UNL     1      13.691   7.335   1.826  1.00  0.00     0.010 C
ENDBRANCH   4   5
ENDBRANCH   3   4
BRANCH   3   7
HETATM    7  C16 UNL     1      14.661  10.271  -1.815  1.00  0.00     0.100 C
HETATM    8  C17 UNL     1      13.218  10.082  -2.072  1.00  0.00     0.041 C
HETATM    9  C18 UNL     1      12.943  10.094  -3.534  1.00  0.00     0.142 C
HETATM   10  S2  UNL     1      14.320   9.143  -4.140  1.00  0.00     0.146 S
HETATM   11  O3  UNL     1      13.929   7.706  -4.230  1.00  0.00    -0.228 OA
HETATM   12  O4  UNL     1      14.828   9.680  -5.442  1.00  0.00    -0.228 OA
HETATM   13  C19 UNL     1      15.452   9.460  -2.809  1.00  0.00     0.165 C
ENDBRANCH   3   7
ENDBRANCH   2   3
BRANCH   2  14
HETATM   14  O1  UNL     1      16.338  11.673  -0.344  1.00  0.00    -0.376 OA
ATOM     15  H1  UNL     1      16.594  11.574  -1.253  1.00  0.00     0.212 HD
ENDBRANCH   2  14
ENDBRANCH   1   2
BRANCH   1  16
HETATM   16  S1  UNL     1      17.118  11.319   2.591  1.00  0.00    -0.106 SA
BRANCH  16  17
HETATM   17  C6  UNL     1      18.289  10.049   2.969  1.00  0.00     0.090 A
HETATM   18  C7  UNL     1      18.076   9.112   3.984  1.00  0.00     0.052 A
HETATM   19  C13 UNL     1      19.206   8.311   3.966  1.00  0.00     0.040 A
HETATM   20  C14 UNL     1      20.062   8.752   2.981  1.00  0.00     0.093 A
HETATM   21  N2  UNL     1      19.475   9.811   2.392  1.00  0.00    -0.355 N
HETATM   22  C15 UNL     1      20.073  10.558   1.309  1.00  0.00     0.156 C
BRANCH  18  23
HETATM   23  C8  UNL     1      16.922   9.043   4.829  1.00  0.00    -0.061 C
HETATM   24  C9  UNL     1      15.937   8.963   5.544  1.00  0.00    -0.064 C
BRANCH  24  25
HETATM   25  C10 UNL     1      14.760   8.844   6.417  1.00  0.00     0.114 C
HETATM   26  C11 UNL     1      15.057   7.987   7.626  1.00  0.00     0.060 C
HETATM   27  C12 UNL     1      14.351  10.222   6.945  1.00  0.00     0.060 C
BRANCH  25  28
HETATM   28  O2  UNL     1      13.739   8.326   5.639  1.00  0.00    -0.378 OA
ATOM     29  H2  UNL     1      13.677   7.403   5.853  1.00  0.00     0.211 HD
ENDBRANCH  25  28
ENDBRANCH  24  25
ENDBRANCH  18  23
ENDBRANCH  16  17
ENDBRANCH   1  16
TORSDOF 11
ENDMDL