MODEL 5
REMARK VINA RESULT: -8.159391788      3.033      4.798
REMARK  6 active torsions:
REMARK  status: ('A' for Active; 'I' for Inactive)
REMARK    1  A    between atoms: N2_6  and  C3_8
REMARK    2  A    between atoms: C3_8  and  C4_9
REMARK    3  A    between atoms: C4_9  and  C5_10
REMARK    4  A    between atoms: C5_10  and  C6_11
REMARK    5  A    between atoms: C6_11  and  C7_12
REMARK    6  A    between atoms: C7_12  and  N3_13
ROOT
HETATM    1  C4  UNL     1      18.483  11.582  -0.665  1.00  0.00     0.044 C
ENDROOT
BRANCH   1   2
HETATM    2  C3  UNL     1      17.985  10.201  -1.061  1.00  0.00     0.062 C
BRANCH   2   3
HETATM    3  N2  UNL     1      17.371  10.195  -2.320  1.00  0.00    -0.355 N
HETATM    4  C2  UNL     1      16.201  10.235  -2.759  1.00  0.00     0.128 A
HETATM    5  N1  UNL     1      16.047  10.205  -4.123  1.00  0.00    -0.293 N
HETATM    6  C16 UNL     1      15.085  10.308  -1.925  1.00  0.00     0.075 A
HETATM    7  C1  UNL     1      14.778  10.250  -4.551  1.00  0.00     0.326 A
ATOM      8  H1  UNL     1      16.840  10.152  -4.763  1.00  0.00     0.172 HD
HETATM    9  O1  UNL     1      14.644  10.221  -5.825  1.00  0.00    -0.247 OA
HETATM   10  N4  UNL     1      13.707  10.319  -3.788  1.00  0.00    -0.307 N
HETATM   11  C19 UNL     1      13.806  10.353  -2.414  1.00  0.00     0.057 A
ATOM     12  H4  UNL     1      12.784  10.348  -4.224  1.00  0.00     0.170 HD
HETATM   13  C18 UNL     1      12.802  10.423  -1.522  1.00  0.00     0.038 A
HETATM   14  C17 UNL     1      13.140  10.443  -0.197  1.00  0.00     0.053 A
HETATM   15  S1  UNL     1      14.841  10.366  -0.238  1.00  0.00    -0.096 SA
ATOM     16  H2  UNL     1      18.056  10.146  -3.074  1.00  0.00     0.166 HD
ENDBRANCH   2   3
ENDBRANCH   1   2
BRANCH   1  17
HETATM   17  C5  UNL     1      18.124  11.881   0.749  1.00  0.00     0.007 C
BRANCH  17  18
HETATM   18  C6  UNL     1      18.649  10.894   1.758  1.00  0.00     0.030 C
BRANCH  18  19
HETATM   19  C7  UNL     1      20.115  11.098   1.931  1.00  0.00     0.272 C
BRANCH  19  20
HETATM   20  N3  UNL     1      20.802   9.843   2.283  1.00  0.00     0.092 N
HETATM   21  C8  UNL     1      20.433   9.560   3.680  1.00  0.00     0.298 C
HETATM   22  C9  UNL     1      20.018   8.119   3.849  1.00  0.00     0.198 C
HETATM   23  O2  UNL     1      20.442   7.532   4.994  1.00  0.00    -0.387 OA
HETATM   24  C10 UNL     1      21.773   7.355   5.165  1.00  0.00     0.193 C
HETATM   25  C11 UNL     1      22.353   6.152   4.462  1.00  0.00     0.193 C
HETATM   26  O3  UNL     1      22.327   6.237   3.097  1.00  0.00    -0.387 OA
HETATM   27  C12 UNL     1      23.502   6.651   2.523  1.00  0.00     0.193 C
HETATM   28  C13 UNL     1      23.251   6.989   1.057  1.00  0.00     0.193 C
HETATM   29  O4  UNL     1      22.306   8.002   0.925  1.00  0.00    -0.387 OA
HETATM   30  C14 UNL     1      22.876   9.234   1.098  1.00  0.00     0.198 C
HETATM   31  C15 UNL     1      22.205  10.084   2.145  1.00  0.00     0.298 C
ENDBRANCH  19  20
ENDBRANCH  18  19
ENDBRANCH  17  18
ENDBRANCH   1  17
TORSDOF 6
ENDMDL