MODEL 5
REMARK VINA RESULT: -7.687772646      3.763      7.678
REMARK  8 active torsions:
REMARK  status: ('A' for Active; 'I' for Inactive)
REMARK    1  A    between atoms: C2_2  and  C4_4
REMARK    2  A    between atoms: C4_4  and  C5_5
REMARK    3  A    between atoms: C4_4  and  C6_7
REMARK    4  A    between atoms: C6_7  and  O2_8
REMARK    5  A    between atoms: C7_11  and  C8_12
REMARK    6  A    between atoms: C17_23  and  C18_24
REMARK    7  A    between atoms: C18_24  and  O6_26
REMARK    8  A    between atoms: O6_26  and  C20_27
ROOT
HETATM    1  C6  UNL     1      18.633   9.577   3.935  1.00  0.00     0.207 C
HETATM    2  O3  UNL     1      19.633   8.801   4.571  1.00  0.00    -0.321 OA
HETATM    3  C7  UNL     1      20.259   8.043   3.625  1.00  0.00     0.273 C
HETATM    4  O5  UNL     1      20.032   8.579   2.397  1.00  0.00    -0.347 OA
HETATM    5  C17 UNL     1      19.118   9.670   2.558  1.00  0.00     0.217 C
ENDROOT
BRANCH   3   6
HETATM    6  C8  UNL     1      21.681   7.653   3.936  1.00  0.00     0.019 C
HETATM    7  C9  UNL     1      21.594   6.257   4.578  1.00  0.00     0.021 C
HETATM    8  C10 UNL     1      22.644   7.646   2.825  1.00  0.00    -0.004 C
HETATM    9  C11 UNL     1      22.826   6.239   2.225  1.00  0.00     0.011 C
HETATM   10  C12 UNL     1      24.037   8.131   3.136  1.00  0.00     0.012 C
HETATM   11  C13 UNL     1      24.481   7.860   4.535  1.00  0.00     0.079 C
HETATM   12  C14 UNL     1      23.432   8.080   5.543  1.00  0.00     0.131 C
HETATM   13  O4  UNL     1      23.661   7.870   6.704  1.00  0.00    -0.298 OA
HETATM   14  C15 UNL     1      22.112   8.561   5.090  1.00  0.00     0.064 C
HETATM   15  C16 UNL     1      22.183  10.001   4.739  1.00  0.00     0.019 C
ENDBRANCH   3   6
BRANCH   1  16
HETATM   16  C4  UNL     1      17.346   8.918   4.228  1.00  0.00     0.140 C
BRANCH  16  17
HETATM   17  C2  UNL     1      16.598   9.299   5.428  1.00  0.00    -0.077 C
HETATM   18  C1  UNL     1      16.794   8.843   6.636  1.00  0.00     0.015 C
HETATM   19  C3  UNL     1      15.480  10.319   5.294  1.00  0.00     0.043 C
ENDBRANCH  16  17
BRANCH  16  20
HETATM   20  C5  UNL     1      16.367   8.892   3.097  1.00  0.00     0.245 C
HETATM   21  O1  UNL     1      15.723   7.895   2.820  1.00  0.00    -0.306 OA
ENDBRANCH  16  20
ENDBRANCH   1  16
BRANCH   1  22
HETATM   22  O2  UNL     1      18.667  10.790   4.659  1.00  0.00    -0.362 OA
ATOM     23  H2  UNL     1      19.140  10.630   5.467  1.00  0.00     0.213 HD
ENDBRANCH   1  22
BRANCH   5  24
HETATM   24  C18 UNL     1      19.965  10.873   2.256  1.00  0.00     0.163 C
HETATM   25  C19 UNL     1      20.814  10.602   0.985  1.00  0.00     0.043 C
BRANCH  24  26
HETATM   26  O6  UNL     1      19.332  12.073   2.013  1.00  0.00    -0.299 OA
BRANCH  26  27
HETATM   27  C20 UNL     1      18.213  12.246   1.227  1.00  0.00     0.373 C
HETATM   28  N1  UNL     1      18.258  12.630  -0.132  1.00  0.00    -0.032 NA
HETATM   29  O7  UNL     1      17.069  12.057   1.719  1.00  0.00    -0.242 OA
ENDBRANCH  26  27
ENDBRANCH  24  26
ENDBRANCH   5  24
TORSDOF 8
ENDMDL