MODEL 3
REMARK VINA RESULT: -8.451232371      2.203      2.927
REMARK  7 active torsions:
REMARK  status: ('A' for Active; 'I' for Inactive)
REMARK    1  A    between atoms: O1_2  and  C2_3
REMARK    2  A    between atoms: C2_3  and  C3_4
REMARK    3  A    between atoms: C4_7  and  N2_8
REMARK    4  A    between atoms: C7_11  and  N3_12
REMARK    5  A    between atoms: C14_21  and  N5_22
REMARK    6  A    between atoms: C17_25  and  C18_26
REMARK    7  A    between atoms: C18_26  and  O2_27
ROOT
HETATM    1  C3  UNL     1      14.833   9.530   2.883  1.00  0.00     0.059 A
HETATM    2  N1  UNL     1      16.096   9.965   2.893  1.00  0.00    -0.193 N
ATOM      3  H1  UNL     1      16.588  10.000   3.786  1.00  0.00     0.184 HD
HETATM    4  C4  UNL     1      16.770  10.368   1.764  1.00  0.00     0.682 A
HETATM    5  N4  UNL     1      16.043  10.267   0.646  1.00  0.00    -0.176 N
ATOM      6  H4  UNL     1      16.499  10.551  -0.221  1.00  0.00     0.186 HD
HETATM    7  C14 UNL     1      14.777   9.832   0.544  1.00  0.00     0.127 A
HETATM    8  C21 UNL     1      14.094   9.451   1.679  1.00  0.00     0.008 A
HETATM    9  C22 UNL     1      12.677   9.102   1.710  1.00  0.00     0.054 C
ENDROOT
BRANCH   4  10
HETATM   10  N2  UNL     1      18.043  10.944   1.769  1.00  0.00    -0.217 N
HETATM   11  C5  UNL     1      18.759  11.072   3.074  1.00  0.00     0.143 C
HETATM   12  C6  UNL     1      19.642   9.775   2.984  1.00  0.00     0.056 C
HETATM   13  C7  UNL     1      20.201   9.621   1.598  1.00  0.00     0.226 C
HETATM   14  C12 UNL     1      20.284  10.883   0.855  1.00  0.00     0.056 C
HETATM   15  C13 UNL     1      18.817  11.394   0.669  1.00  0.00     0.143 C
BRANCH  13  16
HETATM   16  N3  UNL     1      21.293   8.711   1.625  1.00  0.00     0.093 N
HETATM   17  C8  UNL     1      21.538   8.034   2.880  1.00  0.00     0.273 C
HETATM   18  C9  UNL     1      22.920   7.417   2.587  1.00  0.00     0.032 C
HETATM   19  C10 UNL     1      23.665   8.612   2.005  1.00  0.00     0.032 C
HETATM   20  C11 UNL     1      22.563   9.234   1.174  1.00  0.00     0.273 C
ENDBRANCH  13  16
ENDBRANCH   4  10
BRANCH   1  21
HETATM   21  C2  UNL     1      14.060   9.211   4.092  1.00  0.00     0.225 C
BRANCH  21  22
HETATM   22  O1  UNL     1      14.896   8.830   5.219  1.00  0.00    -0.390 OA
HETATM   23  C1  UNL     1      14.578   9.803   6.223  1.00  0.00     0.201 C
ENDBRANCH  21  22
ENDBRANCH   1  21
BRANCH   7  24
HETATM   24  N5  UNL     1      14.272   9.527  -0.749  1.00  0.00    -0.366 N
HETATM   25  C15 UNL     1      13.236  10.484  -1.234  1.00  0.00     0.125 C
HETATM   26  C16 UNL     1      12.995  10.333  -2.707  1.00  0.00     0.026 C
HETATM   27  C17 UNL     1      14.244  10.309  -3.509  1.00  0.00     0.012 C
HETATM   28  C19 UNL     1      15.237   9.309  -2.957  1.00  0.00     0.026 C
HETATM   29  C20 UNL     1      14.618   8.563  -1.738  1.00  0.00     0.125 C
BRANCH  27  30
HETATM   30  C18 UNL     1      13.922   9.848  -4.934  1.00  0.00     0.168 C
BRANCH  30  31
HETATM   31  O2  UNL     1      14.684  10.522  -5.884  1.00  0.00    -0.400 OA
ATOM     32  H2  UNL     1      15.345   9.961  -6.273  1.00  0.00     0.209 HD
ENDBRANCH  30  31
ENDBRANCH  27  30
ENDBRANCH   7  24
TORSDOF 7
ENDMDL