MODEL 2
REMARK VINA RESULT: -8.406045455      2.522      7.605
REMARK  6 active torsions:
REMARK  status: ('A' for Active; 'I' for Inactive)
REMARK    1  A    between atoms: C2_2  and  C4_4
REMARK    2  A    between atoms: C8_12  and  N3_13
REMARK    3  A    between atoms: N4_20  and  C15_21
REMARK    4  A    between atoms: C15_21  and  C16_22
REMARK    5  A    between atoms: C16_22  and  N5_23
REMARK    6  A    between atoms: N5_23  and  C17_26
ROOT
HETATM    1  C4  UNL     1      17.482   9.864   3.652  1.00  0.00     0.085 A
HETATM    2  N1  UNL     1      17.052   9.673   2.393  1.00  0.00    -0.353 N
ATOM      3  H1  UNL     1      17.716   9.798   1.628  1.00  0.00     0.166 HD
HETATM    4  C5  UNL     1      15.799   9.329   2.098  1.00  0.00     0.121 A
HETATM    5  C6  UNL     1      14.894   9.159   3.124  1.00  0.00     0.079 A
HETATM    6  C7  UNL     1      15.322   9.352   4.419  1.00  0.00     0.090 A
HETATM    7  N2  UNL     1      16.602   9.699   4.653  1.00  0.00    -0.342 N
ATOM      8  H2  UNL     1      16.912   9.841   5.615  1.00  0.00     0.167 HD
HETATM    9  C8  UNL     1      14.234   9.120   5.227  1.00  0.00     0.075 A
HETATM   10  C14 UNL     1      13.158   8.790   4.433  1.00  0.00     0.123 A
HETATM   11  N4  UNL     1      13.593   8.823   3.167  1.00  0.00    -0.350 N
ENDROOT
BRANCH  11  12
HETATM   12  C15 UNL     1      12.754   8.528   2.004  1.00  0.00     0.156 C
BRANCH  12  13
HETATM   13  C16 UNL     1      12.719   9.768   1.126  1.00  0.00     0.253 C
BRANCH  13  14
HETATM   14  N5  UNL     1      13.042   9.336  -0.207  1.00  0.00    -0.069 N
ATOM     15  H52 UNL     1      13.875   8.747  -0.202  1.00  0.00     0.277 HD
ATOM     16  H51 UNL     1      12.356   8.660  -0.543  1.00  0.00     0.277 HD
BRANCH  14  17
HETATM   17  C17 UNL     1      13.192  10.427  -1.153  1.00  0.00     0.195 C
HETATM   18  C18 UNL     1      12.704   9.972  -2.486  1.00  0.00     0.034 C
HETATM   19  C19 UNL     1      13.623  10.320  -3.629  1.00  0.00     0.012 C
HETATM   20  C20 UNL     1      14.812   9.356  -3.689  1.00  0.00     0.074 C
HETATM   21  S1  UNL     1      15.512   9.363  -1.993  1.00  0.00    -0.167 SA
HETATM   22  C21 UNL     1      14.679  10.771  -1.157  1.00  0.00     0.106 C
ENDBRANCH  14  17
ENDBRANCH  13  14
ENDBRANCH  12  13
ENDBRANCH  11  12
BRANCH   9  23
HETATM   23  N3  UNL     1      14.209   9.206   6.640  1.00  0.00    -0.374 N
HETATM   24  C9  UNL     1      13.947  10.475   7.306  1.00  0.00     0.150 C
HETATM   25  C10 UNL     1      12.916  10.181   8.354  1.00  0.00    -0.011 C
HETATM   26  C11 UNL     1      13.140   9.154   9.149  1.00  0.00    -0.027 C
HETATM   27  C12 UNL     1      14.409   8.385   8.917  1.00  0.00     0.047 C
HETATM   28  C13 UNL     1      14.443   8.045   7.446  1.00  0.00     0.127 C
ENDBRANCH   9  23
BRANCH   1  29
HETATM   29  C2  UNL     1      18.901  10.247   3.869  1.00  0.00     0.045 C
HETATM   30  C1  UNL     1      19.582  10.512   2.537  1.00  0.00     0.017 C
HETATM   31  C3  UNL     1      19.595   9.122   4.587  1.00  0.00     0.017 C
ENDBRANCH   1  29
TORSDOF 6
ENDMDL