MODEL 1
REMARK VINA RESULT: -8.359138564      0.000      0.000
REMARK  10 active torsions:
REMARK  status: ('A' for Active; 'I' for Inactive)
REMARK    1  A    between atoms: C2_2  and  O2_4
REMARK    2  A    between atoms: O2_4  and  C3_5
REMARK    3  A    between atoms: C3_5  and  C4_6
REMARK    4  A    between atoms: C3_5  and  C12_14
REMARK    5  A    between atoms: C4_6  and  C5_7
REMARK    6  A    between atoms: C6_8  and  C8_10
REMARK    7  A    between atoms: C12_14  and  C13_15
REMARK    8  A    between atoms: C17_20  and  O4_21
REMARK    9  A    between atoms: C19_24  and  O5_25
REMARK   10  A    between atoms: O5_25  and  C20_26
ROOT
HETATM    1  C13 UNL     1      14.520  10.534   2.447  1.00  0.00     0.080 C
HETATM    2  O3  UNL     1      13.988  10.648   3.697  1.00  0.00    -0.340 OA
HETATM    3  C14 UNL     1      14.857  10.131   4.643  1.00  0.00     0.086 C
HETATM    4  C15 UNL     1      14.102  10.255   5.977  1.00  0.00     0.049 C
HETATM    5  C16 UNL     1      15.127   8.652   4.470  1.00  0.00     0.049 C
HETATM    6  C17 UNL     1      16.156  10.891   4.706  1.00  0.00     0.158 C
HETATM    7  C18 UNL     1      16.302  11.858   3.545  1.00  0.00     0.102 C
HETATM    8  C19 UNL     1      15.806  11.225   2.257  1.00  0.00     0.088 C
ENDROOT
BRANCH   1   9
HETATM    9  C12 UNL     1      13.523  10.559   1.339  1.00  0.00     0.100 C
BRANCH   9  10
HETATM   10  C3  UNL     1      14.019   9.925   0.094  1.00  0.00     0.141 C
BRANCH  10  11
HETATM   11  O2  UNL     1      13.463   8.695  -0.180  1.00  0.00    -0.316 OA
BRANCH  11  12
HETATM   12  C2  UNL     1      14.120   7.481   0.031  1.00  0.00     0.255 C
HETATM   13  C1  UNL     1      13.991   6.793   1.332  1.00  0.00     0.126 C
HETATM   14  O1  UNL     1      14.802   7.006  -0.899  1.00  0.00    -0.266 OA
ENDBRANCH  11  12
ENDBRANCH  10  11
BRANCH  10  15
HETATM   15  C4  UNL     1      13.735  10.908  -1.080  1.00  0.00     0.060 C
BRANCH  15  16
HETATM   16  C5  UNL     1      12.759  10.386  -2.022  1.00  0.00    -0.021 C
HETATM   17  C6  UNL     1      12.851   9.761  -3.149  1.00  0.00    -0.080 C
HETATM   18  C7  UNL     1      11.481   9.413  -3.788  1.00  0.00     0.044 C
BRANCH  17  19
HETATM   19  C8  UNL     1      13.983   9.313  -3.951  1.00  0.00    -0.029 C
HETATM   20  C9  UNL     1      13.763   7.842  -4.392  1.00  0.00     0.019 C
HETATM   21  C10 UNL     1      14.102  10.090  -5.259  1.00  0.00     0.019 C
HETATM   22  C11 UNL     1      15.340   9.325  -3.319  1.00  0.00     0.019 C
ENDBRANCH  17  19
ENDBRANCH  15  16
ENDBRANCH  10  15
ENDBRANCH   9  10
ENDBRANCH   1   9
BRANCH   8  23
HETATM   23  O5  UNL     1      15.978  11.995   1.115  1.00  0.00    -0.281 OA
BRANCH  23  24
HETATM   24  C20 UNL     1      17.059  11.981   0.253  1.00  0.00     0.259 C
HETATM   25  C21 UNL     1      17.704  10.681  -0.098  1.00  0.00     0.126 C
HETATM   26  O6  UNL     1      17.427  13.092  -0.181  1.00  0.00    -0.265 OA
ENDBRANCH  23  24
ENDBRANCH   8  23
BRANCH   6  27
HETATM   27  O4  UNL     1      17.226  10.001   4.738  1.00  0.00    -0.392 OA
ATOM     28  H4  UNL     1      18.034  10.472   4.902  1.00  0.00     0.210 HD
ENDBRANCH   6  27
TORSDOF 10
ENDMDL