MODEL 3
REMARK VINA RESULT: -8.511222646      3.144      5.890
REMARK  7 active torsions:
REMARK  status: ('A' for Active; 'I' for Inactive)
REMARK    1  A    between atoms: C2_2  and  C4_4
REMARK    2  A    between atoms: C4_4  and  O1_5
REMARK    3  A    between atoms: C4_4  and  C5_7
REMARK    4  A    between atoms: C7_12  and  N3_13
REMARK    5  A    between atoms: N3_13  and  C8_14
REMARK    6  A    between atoms: N3_13  and  C14_23
REMARK    7  A    between atoms: C8_14  and  C9_15
ROOT
HETATM    1  C5  UNL     1      20.058   9.553   1.632  1.00  0.00     0.060 A
HETATM    2  C6  UNL     1      19.420   8.794   2.645  1.00  0.00     0.126 A
HETATM    3  N1  UNL     1      18.186   9.243   2.781  1.00  0.00    -0.301 N
ATOM      4  H1  UNL     1      17.506   8.870   3.445  1.00  0.00     0.186 HD
HETATM    5  N2  UNL     1      17.945  10.239   1.944  1.00  0.00    -0.223 N
HETATM    6  C7  UNL     1      16.828  10.990   1.769  1.00  0.00     0.129 A
HETATM    7  C20 UNL     1      16.844  11.995   0.841  1.00  0.00     0.067 A
HETATM    8  C21 UNL     1      17.987  12.221   0.110  1.00  0.00     0.093 A
HETATM    9  N5  UNL     1      19.043  11.439   0.340  1.00  0.00    -0.350 N
ATOM     10  H5  UNL     1      19.884  11.616  -0.209  1.00  0.00     0.166 HD
HETATM   11  C22 UNL     1      19.091  10.436   1.235  1.00  0.00     0.143 A
ENDROOT
BRANCH   6  12
HETATM   12  N3  UNL     1      15.683  10.712   2.574  1.00  0.00    -0.359 N
BRANCH  12  13
HETATM   13  C8  UNL     1      15.680  11.032   3.956  1.00  0.00     0.158 C
BRANCH  13  14
HETATM   14  C9  UNL     1      15.153   9.984   4.894  1.00  0.00     0.203 C
HETATM   15  C10 UNL     1      16.293   9.609   5.856  1.00  0.00     0.035 C
HETATM   16  C11 UNL     1      15.744   8.608   6.838  1.00  0.00     0.004 C
HETATM   17  C12 UNL     1      14.598   9.178   7.649  1.00  0.00     0.027 C
HETATM   18  C13 UNL     1      13.557   9.751   6.696  1.00  0.00     0.233 C
HETATM   19  N4  UNL     1      14.177  10.633   5.762  1.00  0.00    -0.069 N
ATOM     20  H42 UNL     1      14.598  11.427   6.243  1.00  0.00     0.277 HD
ATOM     21  H41 UNL     1      13.473  11.120   5.208  1.00  0.00     0.277 HD
ENDBRANCH  13  14
ENDBRANCH  12  13
BRANCH  12  22
HETATM   22  C14 UNL     1      14.518  10.100   1.906  1.00  0.00     0.086 C
HETATM   23  C15 UNL     1      13.274  10.728   2.376  1.00  0.00     0.025 C
HETATM   24  C16 UNL     1      12.065   9.829   2.394  1.00  0.00     0.002 C
HETATM   25  C17 UNL     1      12.228   8.642   1.466  1.00  0.00     0.000 C
HETATM   26  C18 UNL     1      13.387   7.844   2.036  1.00  0.00     0.002 C
HETATM   27  C19 UNL     1      14.653   8.619   2.086  1.00  0.00     0.025 C
ENDBRANCH  12  22
ENDBRANCH   6  12
BRANCH   1  28
HETATM   28  C4  UNL     1      21.407   9.326   1.169  1.00  0.00     0.086 C
BRANCH  28  29
HETATM   29  C2  UNL     1      22.204   8.145   1.210  1.00  0.00    -0.037 C
HETATM   30  C1  UNL     1      22.270   7.200   2.102  1.00  0.00     0.021 C
HETATM   31  C3  UNL     1      23.120   7.921  -0.005  1.00  0.00     0.050 C
ENDBRANCH  28  29
BRANCH  28  32
HETATM   32  O1  UNL     1      21.986  10.375   0.631  1.00  0.00    -0.359 OA
ATOM     33  H1  UNL     1      21.650  10.632  -0.219  1.00  0.00     0.217 HD
ENDBRANCH  28  32
ENDBRANCH   1  28
TORSDOF 7
ENDMDL