MODEL 3
REMARK VINA RESULT: -7.530585880      1.079      1.502
REMARK  8 active torsions:
REMARK  status: ('A' for Active; 'I' for Inactive)
REMARK    1  A    between atoms: C2_2  and  C3_3
REMARK    2  A    between atoms: C3_3  and  C10_15
REMARK    3  A    between atoms: C4_4  and  C5_5
REMARK    4  A    between atoms: C5_5  and  C6_6
REMARK    5  A    between atoms: C6_6  and  C7_7
REMARK    6  A    between atoms: C10_15  and  O1_16
REMARK    7  A    between atoms: C13_22  and  C14_23
REMARK    8  A    between atoms: C13_22  and  C16_25
ROOT
HETATM    1  C10 UNL     1      15.050   9.677   2.297  1.00  0.00     0.152 C
HETATM    2  C11 UNL     1      15.716  10.779   1.516  1.00  0.00     0.234 C
HETATM    3  O2  UNL     1      16.389  11.702   1.993  1.00  0.00    -0.285 OA
HETATM    4  C12 UNL     1      15.510  10.692   0.055  1.00  0.00     0.207 C
HETATM    5  O3  UNL     1      16.228  11.459  -0.628  1.00  0.00    -0.288 OA
HETATM    6  C13 UNL     1      14.557   9.798  -0.593  1.00  0.00     0.031 C
HETATM    7  C19 UNL     1      13.602   9.125   0.332  1.00  0.00     0.026 C
HETATM    8  C20 UNL     1      13.681   9.541   1.801  1.00  0.00     0.030 C
HETATM    9  C21 UNL     1      12.769  10.694   2.057  1.00  0.00     0.014 C
ENDROOT
BRANCH   1  10
HETATM   10  C3  UNL     1      15.215   9.881   3.744  1.00  0.00    -0.042 C
HETATM   11  C4  UNL     1      16.229   9.417   4.465  1.00  0.00    -0.020 C
BRANCH  10  12
HETATM   12  C2  UNL     1      14.214  10.719   4.516  1.00  0.00     0.033 C
HETATM   13  C1  UNL     1      14.162  10.377   5.989  1.00  0.00     0.010 C
ENDBRANCH  10  12
BRANCH  11  14
HETATM   14  C5  UNL     1      17.384   8.593   4.127  1.00  0.00     0.035 C
BRANCH  14  15
HETATM   15  C6  UNL     1      18.644   9.439   3.909  1.00  0.00     0.082 C
BRANCH  15  16
HETATM   16  C7  UNL     1      19.684   8.570   3.323  1.00  0.00     0.098 A
HETATM   17  N1  UNL     1      19.949   8.419   2.026  1.00  0.00    -0.288 N
HETATM   18  N2  UNL     1      20.941   7.563   1.905  1.00  0.00    -0.295 N
ATOM     19  H1  UNL     1      19.467   8.888   1.259  1.00  0.00     0.188 HD
HETATM   20  C8  UNL     1      21.322   7.155   3.125  1.00  0.00     0.200 A
ATOM     21  H2  UNL     1      21.354   7.257   1.024  1.00  0.00     0.187 HD
HETATM   22  N3  UNL     1      20.539   7.780   4.021  1.00  0.00    -0.335 N
HETATM   23  C9  UNL     1      20.546   7.684   5.467  1.00  0.00     0.158 C
ENDBRANCH  15  16
ENDBRANCH  14  15
ENDBRANCH  11  14
ENDBRANCH   1  10
BRANCH   1  24
HETATM   24  O1  UNL     1      15.796   8.513   1.971  1.00  0.00    -0.377 OA
ATOM     25  H1  UNL     1      15.823   8.471   1.022  1.00  0.00     0.211 HD
ENDBRANCH   1  24
BRANCH   6  26
HETATM   26  C14 UNL     1      15.239   8.695  -1.394  1.00  0.00     0.013 C
HETATM   27  C15 UNL     1      14.809   7.311  -1.143  1.00  0.00     0.006 C
ENDBRANCH   6  26
BRANCH   6  28
HETATM   28  C16 UNL     1      13.878  10.643  -1.682  1.00  0.00    -0.006 C
HETATM   29  C17 UNL     1      14.282  10.284  -3.068  1.00  0.00     0.011 C
HETATM   30  C18 UNL     1      12.402  10.758  -1.536  1.00  0.00     0.011 C
ENDBRANCH   6  28
TORSDOF 8
ENDMDL