MODEL 5
REMARK VINA RESULT: -7.707281138      1.756      3.206
REMARK  6 active torsions:
REMARK  status: ('A' for Active; 'I' for Inactive)
REMARK    1  A    between atoms: S1_2  and  C2_3
REMARK    2  A    between atoms: C2_3  and  C3_4
REMARK    3  A    between atoms: C3_4  and  S2_5
REMARK    4  A    between atoms: C3_4  and  C12_19
REMARK    5  A    between atoms: S2_5  and  C4_6
REMARK       I    between atoms: C12_19  and  N4_21
REMARK    6  A    between atoms: N4_21  and  C13_23
ROOT
HETATM    1  C3  UNL     1      16.842   9.941   2.376  1.00  0.00     0.156 C
ENDROOT
BRANCH   1   2
HETATM    2  C2  UNL     1      16.370  10.512   3.685  1.00  0.00     0.098 C
BRANCH   2   3
HETATM    3  S1  UNL     1      14.740   9.799   4.131  1.00  0.00    -0.172 SA
HETATM    4  C1  UNL     1      14.215  10.330   5.777  1.00  0.00     0.089 C
ENDBRANCH   2   3
ENDBRANCH   1   2
BRANCH   1   5
HETATM    5  S2  UNL     1      18.573  10.321   2.128  1.00  0.00    -0.078 SA
BRANCH   5   6
HETATM    6  C4  UNL     1      19.674   8.967   2.454  1.00  0.00     0.153 A
HETATM    7  N1  UNL     1      19.386   7.999   3.360  1.00  0.00    -0.340 N
HETATM    8  C5  UNL     1      20.198   6.961   3.619  1.00  0.00     0.011 A
ATOM      9  H1  UNL     1      18.505   8.063   3.872  1.00  0.00     0.167 HD
HETATM   10  C6  UNL     1      19.827   5.915   4.636  1.00  0.00     0.068 C
HETATM   11  C7  UNL     1      21.378   6.905   2.910  1.00  0.00     0.073 A
HETATM   12  C8  UNL     1      21.711   7.878   1.970  1.00  0.00     0.115 A
HETATM   13  N2  UNL     1      22.784   8.031   1.167  1.00  0.00    -0.344 N
HETATM   14  N3  UNL     1      20.828   8.893   1.775  1.00  0.00    -0.286 N
HETATM   15  C9  UNL     1      22.617   9.146   0.435  1.00  0.00     0.023 A
ATOM     16  H2  UNL     1      23.589   7.405   1.122  1.00  0.00     0.167 HD
HETATM   17  C10 UNL     1      23.518   9.737  -0.585  1.00  0.00     0.069 C
HETATM   18  C11 UNL     1      21.401   9.665   0.826  1.00  0.00     0.125 A
ENDBRANCH   5   6
ENDBRANCH   1   5
BRANCH   1  19
HETATM   19  C12 UNL     1      16.082  10.463   1.224  1.00  0.00     0.233 C
HETATM   20  O1  UNL     1      15.805  11.672   1.168  1.00  0.00    -0.272 OA
HETATM   21  N4  UNL     1      15.677   9.589   0.199  1.00  0.00    -0.355 N
ATOM     22  H4  UNL     1      15.918   8.601   0.268  1.00  0.00     0.162 HD
BRANCH  21  23
HETATM   23  C13 UNL     1      14.937  10.048  -0.940  1.00  0.00     0.084 C
HETATM   24  C14 UNL     1      15.379   9.303  -2.183  1.00  0.00     0.025 C
HETATM   25  C15 UNL     1      14.674   9.828  -3.402  1.00  0.00     0.002 C
HETATM   26  C16 UNL     1      13.194   9.963  -3.227  1.00  0.00     0.000 C
HETATM   27  C17 UNL     1      12.787  10.608  -1.932  1.00  0.00     0.002 C
HETATM   28  C18 UNL     1      13.441   9.865  -0.795  1.00  0.00     0.025 C
ENDBRANCH  21  23
ENDBRANCH   1  19
TORSDOF 6
ENDMDL