MODEL 2
REMARK VINA RESULT: -9.579975901      0.109      1.383
REMARK  6 active torsions:
REMARK  status: ('A' for Active; 'I' for Inactive)
REMARK    1  A    between atoms: C2_2  and  C3_3
REMARK    2  A    between atoms: C3_3  and  N1_4
REMARK    3  A    between atoms: C5_6  and  C6_7
REMARK    4  A    between atoms: C7_10  and  C8_11
REMARK    5  A    between atoms: C8_11  and  N3_12
REMARK    6  A    between atoms: N3_12  and  C9_15
ROOT
HETATM    1  C6  UNL     1      14.847   9.965   0.110  1.00  0.00     0.091 A
HETATM    2  N2  UNL     1      14.478   9.564   1.336  1.00  0.00    -0.340 N
ATOM      3  H2  UNL     1      13.550   9.217   1.583  1.00  0.00     0.167 HD
HETATM    4  C7  UNL     1      15.507   9.687   2.196  1.00  0.00     0.115 A
HETATM    5  N4  UNL     1      16.548  10.176   1.495  1.00  0.00    -0.294 N
HETATM    6  C19 UNL     1      17.826  10.499   1.826  1.00  0.00     0.101 A
HETATM    7  C20 UNL     1      18.739  10.995   0.920  1.00  0.00     0.035 A
HETATM    8  C21 UNL     1      18.309  11.161  -0.374  1.00  0.00     0.091 A
HETATM    9  N5  UNL     1      17.047  10.843  -0.706  1.00  0.00    -0.350 N
ATOM     10  H5  UNL     1      16.744  10.971  -1.671  1.00  0.00     0.166 HD
HETATM   11  C22 UNL     1      16.165  10.358   0.196  1.00  0.00     0.141 A
ENDROOT
BRANCH   4  12
HETATM   12  C8  UNL     1      15.563   9.368   3.639  1.00  0.00     0.309 C
BRANCH  12  13
HETATM   13  N3  UNL     1      14.537  10.030   4.382  1.00  0.00    -0.060 N
ATOM     14  H32 UNL     1      14.716  11.032   4.444  1.00  0.00     0.278 HD
ATOM     15  H31 UNL     1      13.661  10.053   3.861  1.00  0.00     0.278 HD
BRANCH  13  16
HETATM   16  C9  UNL     1      14.352   9.457   5.677  1.00  0.00     0.127 C
HETATM   17  C10 UNL     1      15.549   8.743   6.218  1.00  0.00     0.043 C
HETATM   18  C11 UNL     1      15.244   8.209   7.591  1.00  0.00    -0.012 C
HETATM   19  C12 UNL     1      15.022   9.363   8.521  1.00  0.00     0.009 C
HETATM   20  C16 UNL     1      14.073   7.261   7.550  1.00  0.00     0.009 C
HETATM   21  C13 UNL     1      13.818  10.136   8.032  1.00  0.00    -0.012 C
HETATM   22  C14 UNL     1      12.630   9.194   8.078  1.00  0.00     0.009 C
HETATM   23  C18 UNL     1      14.007  10.614   6.625  1.00  0.00     0.043 C
HETATM   24  C15 UNL     1      12.865   8.084   7.110  1.00  0.00    -0.012 C
HETATM   25  C17 UNL     1      13.140   8.529   5.707  1.00  0.00     0.043 C
ENDBRANCH  13  16
ENDBRANCH  12  13
ENDBRANCH   4  12
BRANCH   1  26
HETATM   26  C5  UNL     1      14.032   9.998  -1.123  1.00  0.00     0.028 A
HETATM   27  C4  UNL     1      14.067   9.088  -2.154  1.00  0.00     0.125 A
HETATM   28  N1  UNL     1      13.183   9.464  -3.086  1.00  0.00    -0.299 N
HETATM   29  N6  UNL     1      12.611  10.571  -2.657  1.00  0.00    -0.309 N
HETATM   30  C23 UNL     1      13.090  10.943  -1.466  1.00  0.00     0.122 A
ATOM     31  H6  UNL     1      11.891  11.081  -3.170  1.00  0.00     0.186 HD
BRANCH  28  32
HETATM   32  C3  UNL     1      12.882   8.789  -4.358  1.00  0.00     0.174 C
BRANCH  32  33
HETATM   33  C2  UNL     1      11.663   9.385  -4.936  1.00  0.00    -0.015 C
HETATM   34  C1  UNL     1      10.483   8.828  -4.790  1.00  0.00     0.008 C
ENDBRANCH  32  33
ENDBRANCH  28  32
ENDBRANCH   1  26
TORSDOF 6
ENDMDL