MODEL 5
REMARK VINA RESULT: -8.406609879      4.805      8.074
REMARK  6 active torsions:
REMARK  status: ('A' for Active; 'I' for Inactive)
REMARK    1  A    between atoms: C1_2  and  C2_3
REMARK       I    between atoms: C1_2  and  N2_12
REMARK    2  A    between atoms: C2_3  and  C3_4
REMARK    3  A    between atoms: C3_4  and  C4_5
REMARK    4  A    between atoms: C4_5  and  N1_6
REMARK    5  A    between atoms: N2_12  and  C10_14
REMARK    6  A    between atoms: C10_14  and  C11_15
ROOT
HETATM    1  C11 UNL     1      16.412  11.047  -0.529  1.00  0.00     0.064 A
HETATM    2  N3  UNL     1      16.711  10.739  -1.820  1.00  0.00    -0.262 N
ATOM      3  H3  UNL     1      17.330  11.293  -2.412  1.00  0.00     0.194 HD
HETATM    4  O2  UNL     1      16.120   9.663  -2.205  1.00  0.00    -0.229 OA
HETATM    5  C12 UNL     1      15.402   9.223  -1.164  1.00  0.00     0.153 A
HETATM    6  S1  UNL     1      14.335   8.008  -0.605  1.00  0.00    -0.066 SA
HETATM    7  C13 UNL     1      14.092   8.567   0.976  1.00  0.00    -0.007 A
HETATM    8  C14 UNL     1      14.858   9.707   1.040  1.00  0.00    -0.029 A
HETATM    9  C15 UNL     1      15.541  10.044  -0.084  1.00  0.00     0.040 A
HETATM   10  C16 UNL     1      14.900  10.505   2.337  1.00  0.00     0.040 C
HETATM   11  C17 UNL     1      13.509  10.948   2.711  1.00  0.00     0.005 C
HETATM   12  C18 UNL     1      12.446  10.321   1.848  1.00  0.00     0.001 C
HETATM   13  C19 UNL     1      12.138   8.934   2.426  1.00  0.00     0.005 C
HETATM   14  C20 UNL     1      13.221   7.942   2.045  1.00  0.00     0.047 C
ENDROOT
BRANCH   1  15
HETATM   15  C10 UNL     1      16.963  12.217   0.189  1.00  0.00     0.182 C
BRANCH  15  16
HETATM   16  N2  UNL     1      17.916  11.793   1.210  1.00  0.00    -0.355 N
HETATM   17  C1  UNL     1      19.072  11.044   0.923  1.00  0.00     0.217 C
HETATM   18  O1  UNL     1      19.299  10.740  -0.278  1.00  0.00    -0.274 OA
ATOM     19  H2  UNL     1      17.734  12.053   2.180  1.00  0.00     0.162 HD
BRANCH  17  20
HETATM   20  C2  UNL     1      20.032  10.591   1.935  1.00  0.00     0.104 C
BRANCH  20  21
HETATM   21  C3  UNL     1      21.006   9.555   1.490  1.00  0.00     0.029 C
BRANCH  21  22
HETATM   22  C4  UNL     1      20.819   8.191   2.046  1.00  0.00     0.127 C
BRANCH  22  23
HETATM   23  N1  UNL     1      21.894   7.334   1.574  1.00  0.00    -0.374 N
HETATM   24  C5  UNL     1      22.399   6.470   2.562  1.00  0.00     0.063 C
HETATM   25  C6  UNL     1      23.846   6.235   2.694  1.00  0.00     0.045 C
HETATM   26  C7  UNL     1      24.756   7.086   1.880  1.00  0.00     0.010 C
HETATM   27  C8  UNL     1      24.141   7.383   0.527  1.00  0.00     0.045 C
HETATM   28  C9  UNL     1      22.766   7.962   0.666  1.00  0.00     0.063 C
ENDBRANCH  22  23
ENDBRANCH  21  22
ENDBRANCH  20  21
ENDBRANCH  17  20
ENDBRANCH  15  16
ENDBRANCH   1  15
TORSDOF 6
ENDMDL