MODEL 2
REMARK VINA RESULT: -7.997013494      4.802      7.741
REMARK  7 active torsions:
REMARK  status: ('A' for Active; 'I' for Inactive)
REMARK    1  A    between atoms: C7_8  and  C8_9
REMARK    2  A    between atoms: C8_9  and  N1_10
REMARK    3  A    between atoms: C12_14  and  O1_15
REMARK    4  A    between atoms: O1_15  and  C13_16
REMARK    5  A    between atoms: C13_16  and  C14_17
REMARK    6  A    between atoms: C14_17  and  O2_18
REMARK    7  A    between atoms: N3_23  and  C16_24
ROOT
HETATM    1  C1  UNL     1      19.041  10.688   3.875  1.00  0.00     0.057 C
HETATM    2  C2  UNL     1      18.258  10.563   2.576  1.00  0.00    -0.006 A
HETATM    3  S1  UNL     1      18.835  10.688   0.989  1.00  0.00    -0.097 SA
HETATM    4  C3  UNL     1      17.354  10.431   0.132  1.00  0.00     0.009 A
HETATM    5  C4  UNL     1      17.202  10.420  -1.368  1.00  0.00     0.059 C
HETATM    6  C5  UNL     1      16.441  10.252   1.147  1.00  0.00     0.082 A
HETATM    7  C6  UNL     1      16.916  10.322   2.402  1.00  0.00     0.032 A
HETATM    8  C7  UNL     1      15.822  10.112   3.283  1.00  0.00     0.068 A
HETATM    9  N2  UNL     1      14.779   9.933   2.506  1.00  0.00    -0.295 N
ATOM     10  H2  UNL     1      13.837   9.758   2.856  1.00  0.00     0.187 HD
HETATM   11  N3  UNL     1      15.090  10.007   1.191  1.00  0.00    -0.263 N
ENDROOT
BRANCH   8  12
HETATM   12  C8  UNL     1      15.869  10.130   4.756  1.00  0.00     0.331 C
BRANCH  12  13
HETATM   13  N1  UNL     1      14.757   9.431   5.314  1.00  0.00     0.096 N
HETATM   14  C9  UNL     1      15.112   8.296   6.066  1.00  0.00     0.273 C
HETATM   15  C10 UNL     1      13.978   7.749   6.919  1.00  0.00     0.033 C
HETATM   16  C11 UNL     1      13.182   8.798   7.612  1.00  0.00     0.035 C
HETATM   17  C12 UNL     1      13.870  10.172   7.420  1.00  0.00     0.149 C
HETATM   18  C15 UNL     1      13.871  10.375   5.913  1.00  0.00     0.304 C
BRANCH  17  19
HETATM   19  O1  UNL     1      13.200  11.144   8.076  1.00  0.00    -0.382 OA
BRANCH  19  20
HETATM   20  C13 UNL     1      13.385  11.218   9.412  1.00  0.00     0.194 C
BRANCH  20  21
HETATM   21  C14 UNL     1      12.515  12.175  10.162  1.00  0.00     0.190 C
BRANCH  21  22
HETATM   22  O2  UNL     1      11.506  12.722   9.429  1.00  0.00    -0.399 OA
ATOM     23  H2  UNL     1      11.437  13.667   9.491  1.00  0.00     0.209 HD
ENDBRANCH  21  22
ENDBRANCH  20  21
ENDBRANCH  19  20
ENDBRANCH  17  19
ENDBRANCH  12  13
ENDBRANCH   8  12
BRANCH  11  24
HETATM   24  C16 UNL     1      14.138   9.852   0.159  1.00  0.00     0.012 C
HETATM   25  C17 UNL     1      13.800  11.041  -0.679  1.00  0.00     0.054 C
HETATM   26  C18 UNL     1      12.926  10.425  -1.759  1.00  0.00     0.006 C
HETATM   27  C19 UNL     1      13.590   9.090  -1.994  1.00  0.00     0.006 C
HETATM   28  C20 UNL     1      14.138   8.616  -0.658  1.00  0.00     0.054 C
ENDBRANCH  11  24
TORSDOF 7
ENDMDL