MODEL 3
REMARK VINA RESULT: -9.275105996      0.986      1.130
REMARK  7 active torsions:
REMARK  status: ('A' for Active; 'I' for Inactive)
REMARK    1  A    between atoms: C1_2  and  C2_3
REMARK    2  A    between atoms: C1_2  and  O2_19
REMARK    3  A    between atoms: C2_3  and  C3_4
REMARK    4  A    between atoms: C3_4  and  C4_5
REMARK    5  A    between atoms: C4_5  and  S1_6
REMARK    6  A    between atoms: S1_6  and  C5_7
REMARK    7  A    between atoms: O2_19  and  N4_20
ROOT
HETATM    1  C2  UNL     1      16.018  11.443   2.738  1.00  0.00     0.114 C
ENDROOT
BRANCH   1   2
HETATM    2  C1  UNL     1      14.897  10.515   2.962  1.00  0.00     0.281 C
HETATM    3  O1  UNL     1      14.862   9.479   2.244  1.00  0.00    -0.263 OA
BRANCH   2   4
HETATM    4  O2  UNL     1      13.880  10.676   3.886  1.00  0.00    -0.200 OA
BRANCH   4   5
HETATM    5  N4  UNL     1      13.392   9.603   4.558  1.00  0.00    -0.265 N
HETATM    6  C11 UNL     1      13.642   9.379   5.817  1.00  0.00     0.019 C
HETATM    7  C12 UNL     1      14.493  10.287   6.637  1.00  0.00     0.034 C
HETATM    8  C19 UNL     1      13.083   8.187   6.508  1.00  0.00     0.034 C
HETATM    9  C13 UNL     1      13.605  10.799   7.760  1.00  0.00     0.015 C
HETATM   10  C17 UNL     1      15.584   9.409   7.238  1.00  0.00     0.015 C
HETATM   11  C14 UNL     1      13.044   9.638   8.514  1.00  0.00    -0.013 C
HETATM   12  C15 UNL     1      14.181   8.879   9.152  1.00  0.00     0.009 C
HETATM   13  C20 UNL     1      12.238   8.695   7.677  1.00  0.00     0.015 C
HETATM   14  C16 UNL     1      15.008   8.283   8.047  1.00  0.00    -0.013 C
HETATM   15  C18 UNL     1      14.217   7.377   7.146  1.00  0.00     0.015 C
ATOM     16  H4  UNL     1      12.802   8.940   4.054  1.00  0.00     0.194 HD
ENDBRANCH   4   5
ENDBRANCH   2   4
ENDBRANCH   1   2
BRANCH   1  17
HETATM   17  C3  UNL     1      16.988  11.016   1.687  1.00  0.00     0.020 C
BRANCH  17  18
HETATM   18  C4  UNL     1      16.935  11.868   0.439  1.00  0.00     0.081 C
BRANCH  18  19
HETATM   19  S1  UNL     1      17.041  10.754  -0.985  1.00  0.00    -0.111 SA
BRANCH  19  20
HETATM   20  C5  UNL     1      15.402  10.471  -1.685  1.00  0.00     0.086 A
HETATM   21  C6  UNL     1      14.255  10.723  -0.965  1.00  0.00     0.126 A
HETATM   22  N1  UNL     1      13.028  10.514  -1.477  1.00  0.00    -0.348 N
HETATM   23  C7  UNL     1      12.876  10.044  -2.734  1.00  0.00     0.132 A
ATOM     24  H1  UNL     1      12.205  10.713  -0.910  1.00  0.00     0.167 HD
HETATM   25  N2  UNL     1      11.784   9.758  -3.462  1.00  0.00    -0.350 N
HETATM   26  C10 UNL     1      14.014   9.789  -3.466  1.00  0.00     0.079 A
HETATM   27  C8  UNL     1      12.207   9.319  -4.660  1.00  0.00     0.092 A
ATOM     28  H2  UNL     1      10.815   9.857  -3.162  1.00  0.00     0.166 HD
HETATM   29  C9  UNL     1      13.584   9.327  -4.691  1.00  0.00     0.050 A
HETATM   30  N3  UNL     1      15.258  10.005  -2.935  1.00  0.00    -0.347 N
ATOM     31  H3  UNL     1      16.085   9.808  -3.498  1.00  0.00     0.167 HD
ENDBRANCH  19  20
ENDBRANCH  18  19
ENDBRANCH  17  18
ENDBRANCH   1  17
TORSDOF 7
ENDMDL