MODEL 1
REMARK VINA RESULT: -8.101252074      0.000      0.000
REMARK  7 active torsions:
REMARK  status: ('A' for Active; 'I' for Inactive)
REMARK    1  A    between atoms: C3_6  and  C4_7
REMARK    2  A    between atoms: C4_7  and  O2_8
REMARK    3  A    between atoms: C4_7  and  C5_10
REMARK    4  A    between atoms: C5_10  and  N2_11
REMARK       I    between atoms: N2_11  and  C6_12
REMARK    5  A    between atoms: N2_11  and  C15_23
REMARK    6  A    between atoms: C6_12  and  C7_14
REMARK    7  A    between atoms: C10_18  and  C11_19
ROOT
HETATM    1  N2  UNL     1      15.061   9.801   3.438  1.00  0.00    -0.340 N
HETATM    2  C6  UNL     1      14.889  10.640   2.323  1.00  0.00     0.261 C
HETATM    3  O3  UNL     1      13.883  11.409   2.318  1.00  0.00    -0.267 OA
ENDROOT
BRANCH   1   4
HETATM    4  C5  UNL     1      16.148   8.855   3.602  1.00  0.00     0.166 C
BRANCH   4   5
HETATM    5  C4  UNL     1      17.183   9.315   4.570  1.00  0.00     0.213 C
BRANCH   5   6
HETATM    6  C3  UNL     1      18.265   8.317   4.771  1.00  0.00     0.178 A
HETATM    7  O1  UNL     1      19.329   8.502   5.531  1.00  0.00    -0.220 OA
HETATM    8  N1  UNL     1      20.092   7.427   5.493  1.00  0.00    -0.247 N
HETATM    9  C2  UNL     1      19.526   6.510   4.693  1.00  0.00     0.100 A
ATOM     10  H1  UNL     1      20.973   7.310   5.993  1.00  0.00     0.196 HD
HETATM   11  C1  UNL     1      20.037   5.157   4.361  1.00  0.00     0.091 C
HETATM   12  N3  UNL     1      18.386   7.086   4.253  1.00  0.00    -0.325 N
ATOM     13  H3  UNL     1      17.717   6.649   3.620  1.00  0.00     0.169 HD
ENDBRANCH   5   6
BRANCH   5  14
HETATM   14  O2  UNL     1      17.698  10.537   4.115  1.00  0.00    -0.386 OA
ATOM     15  H2  UNL     1      17.951  11.096   4.841  1.00  0.00     0.210 HD
ENDBRANCH   5  14
ENDBRANCH   4   5
ENDBRANCH   1   4
BRANCH   1  16
HETATM   16  C15 UNL     1      14.066   9.913   4.512  1.00  0.00     0.087 C
HETATM   17  C16 UNL     1      13.517   8.584   4.926  1.00  0.00     0.025 C
HETATM   18  C17 UNL     1      13.517   8.548   6.425  1.00  0.00     0.002 C
HETATM   19  C18 UNL     1      13.636   9.977   6.841  1.00  0.00     0.002 C
HETATM   20  C19 UNL     1      14.540  10.575   5.751  1.00  0.00     0.025 C
ENDBRANCH   1  16
BRANCH   2  21
HETATM   21  C7  UNL     1      15.766  10.708   1.165  1.00  0.00     0.079 A
HETATM   22  S1  UNL     1      17.107  11.735   0.877  1.00  0.00    -0.096 SA
HETATM   23  C8  UNL     1      17.580  11.206  -0.653  1.00  0.00     0.051 A
HETATM   24  C9  UNL     1      16.667  10.221  -0.915  1.00  0.00     0.016 A
HETATM   25  C10 UNL     1      15.732   9.952   0.005  1.00  0.00    -0.031 A
BRANCH  25  26
HETATM   26  C11 UNL     1      14.670   8.883  -0.171  1.00  0.00     0.020 C
HETATM   27  C12 UNL     1      14.722   8.162  -1.510  1.00  0.00     0.009 C
HETATM   28  C13 UNL     1      13.834   9.262  -2.050  1.00  0.00     0.001 C
HETATM   29  C14 UNL     1      13.330   9.424  -0.621  1.00  0.00     0.009 C
ENDBRANCH  25  26
ENDBRANCH   2  21
TORSDOF 7
ENDMDL