MODEL 4
REMARK VINA RESULT: -6.632171893      1.871      2.407
REMARK  9 active torsions:
REMARK  status: ('A' for Active; 'I' for Inactive)
REMARK    1  A    between atoms: C2_2  and  C3_3
REMARK    2  A    between atoms: C4_4  and  C5_5
REMARK    3  A    between atoms: C5_5  and  C6_6
REMARK    4  A    between atoms: C6_6  and  C7_7
REMARK    5  A    between atoms: C10_11  and  O2_12
REMARK    6  A    between atoms: C19_22  and  C20_23
REMARK    7  A    between atoms: C20_23  and  C21_24
REMARK    8  A    between atoms: C21_24  and  C22_25
REMARK    9  A    between atoms: C22_25  and  O3_26
ROOT
HETATM    1  C7  UNL     1       1.170 -11.019  33.605  1.00  0.00     0.066 C
HETATM    2  C8  UNL     1       0.089 -10.144  33.202  1.00  0.00     0.047 C
HETATM    3  C9  UNL     1       0.782  -8.793  32.936  1.00  0.00     0.172 C
HETATM    4  O1  UNL     1       1.984  -8.651  33.564  1.00  0.00    -0.354 OA
HETATM    5  C10 UNL     1       2.098  -9.239  34.839  1.00  0.00     0.176 C
HETATM    6  C11 UNL     1       1.147  -8.288  35.535  1.00  0.00     0.045 C
HETATM    7  C12 UNL     1       1.833  -6.898  35.504  1.00  0.00     0.015 C
HETATM    8  C13 UNL     1       0.800  -8.583  36.918  1.00  0.00     0.010 C
HETATM    9  C14 UNL     1       1.375  -9.905  37.251  1.00  0.00     0.007 C
HETATM   10  C15 UNL     1       1.155 -10.996  36.204  1.00  0.00     0.011 C
HETATM   11  C16 UNL     1       1.764 -12.187  36.902  1.00  0.00    -0.037 C
HETATM   12  C17 UNL     1       0.891 -13.372  37.033  1.00  0.00     0.015 C
HETATM   13  C18 UNL     1       2.166 -11.952  38.377  1.00  0.00     0.015 C
HETATM   14  C19 UNL     1       3.079 -12.310  36.251  1.00  0.00     0.024 C
HETATM   15  C23 UNL     1       2.861 -11.708  34.855  1.00  0.00     0.152 C
HETATM   16  O4  UNL     1       2.187 -12.829  34.242  1.00  0.00    -0.314 OA
HETATM   17  C24 UNL     1       0.920 -12.463  33.795  1.00  0.00     0.269 C
HETATM   18  O5  UNL     1      -0.070 -13.174  33.628  1.00  0.00    -0.264 OA
HETATM   19  C25 UNL     1       1.814 -10.672  34.934  1.00  0.00     0.065 C
ENDROOT
BRANCH   1  20
HETATM   20  C6  UNL     1       2.143 -11.155  32.458  1.00  0.00     0.025 C
BRANCH  20  21
HETATM   21  C5  UNL     1       1.382 -11.389  31.125  1.00  0.00     0.028 C
BRANCH  21  22
HETATM   22  C4  UNL     1       2.101 -10.587  30.069  1.00  0.00    -0.027 C
HETATM   23  C3  UNL     1       1.507  -9.578  29.451  1.00  0.00    -0.005 C
BRANCH  23  24
HETATM   24  C2  UNL     1       2.158  -8.786  28.436  1.00  0.00    -0.011 C
HETATM   25  C1  UNL     1       2.058  -9.111  27.171  1.00  0.00     0.011 C
ENDBRANCH  23  24
ENDBRANCH  21  22
ENDBRANCH  20  21
ENDBRANCH   1  20
BRANCH   5  26
HETATM   26  O2  UNL     1       3.408  -8.894  35.230  1.00  0.00    -0.364 OA
ATOM     27  H2  UNL     1       3.868  -8.831  34.401  1.00  0.00     0.213 HD
ENDBRANCH   5  26
BRANCH  14  28
HETATM   28  C20 UNL     1       3.685 -13.672  36.202  1.00  0.00     0.010 C
BRANCH  28  29
HETATM   29  C21 UNL     1       4.614 -13.860  37.401  1.00  0.00     0.027 C
BRANCH  29  30
HETATM   30  C22 UNL     1       4.500 -15.267  37.950  1.00  0.00     0.164 C
BRANCH  30  31
HETATM   31  O3  UNL     1       3.286 -15.397  38.613  1.00  0.00    -0.401 OA
ATOM     32  H3  UNL     1       2.989 -16.296  38.541  1.00  0.00     0.209 HD
ENDBRANCH  30  31
ENDBRANCH  29  30
ENDBRANCH  28  29
ENDBRANCH  14  28
TORSDOF 9
ENDMDL