MODEL 5
REMARK VINA RESULT: -8.551056147      0.747      1.145
REMARK  7 active torsions:
REMARK  status: ('A' for Active; 'I' for Inactive)
REMARK       I    between atoms: C1_2  and  N1_3
REMARK    1  A    between atoms: C1_2  and  C13_27
REMARK    2  A    between atoms: N1_3  and  C2_5
REMARK    3  A    between atoms: N2_8  and  C5_9
REMARK    4  A    between atoms: C7_15  and  C8_16
REMARK    5  A    between atoms: C13_27  and  C14_28
REMARK    6  A    between atoms: C13_27  and  C20_34
REMARK    7  A    between atoms: C14_28  and  C15_29
ROOT
HETATM    1  C2  UNL     1       0.842 -10.429  35.356  1.00  0.00     0.087 C
HETATM    2  C3  UNL     1       0.971  -8.975  34.993  1.00  0.00     0.045 C
HETATM    3  C4  UNL     1       0.844  -8.704  33.529  1.00  0.00     0.143 C
HETATM    4  N2  UNL     1       1.211  -9.789  32.678  1.00  0.00    -0.217 N
HETATM    5  C11 UNL     1       1.038 -11.185  33.052  1.00  0.00     0.143 C
HETATM    6  C12 UNL     1       1.614 -11.337  34.441  1.00  0.00     0.045 C
ENDROOT
BRANCH   4   7
HETATM    7  C5  UNL     1       1.771  -9.512  31.406  1.00  0.00     0.682 A
HETATM    8  N3  UNL     1       2.766  -8.639  31.264  1.00  0.00    -0.188 N
HETATM    9  C6  UNL     1       3.280  -8.392  30.056  1.00  0.00     0.199 A
ATOM     10  H3  UNL     1       3.138  -8.156  32.083  1.00  0.00     0.185 HD
HETATM   11  N4  UNL     1       2.787  -9.031  28.975  1.00  0.00    -0.337 N
HETATM   12  C7  UNL     1       1.784  -9.917  29.087  1.00  0.00     0.135 A
ATOM     13  H4  UNL     1       3.185  -8.838  28.056  1.00  0.00     0.168 HD
HETATM   14  N7  UNL     1       1.293 -10.139  30.314  1.00  0.00    -0.176 N
ATOM     15  H7  UNL     1       0.530 -10.807  30.424  1.00  0.00     0.186 HD
BRANCH  12  16
HETATM   16  C8  UNL     1       1.266 -10.598  27.907  1.00  0.00     0.042 A
HETATM   17  C9  UNL     1      -0.045 -10.761  27.514  1.00  0.00     0.123 A
HETATM   18  N5  UNL     1      -0.109 -11.448  26.363  1.00  0.00    -0.311 N
HETATM   19  N6  UNL     1       1.148 -11.731  26.008  1.00  0.00    -0.311 N
ATOM     20  H5  UNL     1      -0.956 -11.706  25.856  1.00  0.00     0.186 HD
HETATM   21  C10 UNL     1       2.007 -11.229  26.923  1.00  0.00     0.123 A
ATOM     22  H6  UNL     1       1.420 -12.248  25.171  1.00  0.00     0.186 HD
ENDBRANCH  12  16
ENDBRANCH   4   7
BRANCH   1  23
HETATM   23  N1  UNL     1       1.221 -10.605  36.726  1.00  0.00    -0.356 N
HETATM   24  C1  UNL     1       0.951 -11.783  37.419  1.00  0.00     0.226 C
HETATM   25  O1  UNL     1       0.350 -12.736  36.804  1.00  0.00    -0.273 OA
ATOM     26  H1  UNL     1       1.702  -9.846  37.208  1.00  0.00     0.162 HD
BRANCH  24  27
HETATM   27  C13 UNL     1       1.282 -12.086  38.840  1.00  0.00     0.104 C
BRANCH  27  28
HETATM   28  C14 UNL     1       0.287 -11.406  39.673  1.00  0.00    -0.010 C
BRANCH  28  29
HETATM   29  C15 UNL     1       0.395 -10.041  40.160  1.00  0.00    -0.083 C
HETATM   30  C16 UNL     1      -0.061  -8.942  39.250  1.00  0.00     0.034 C
HETATM   31  C17 UNL     1      -1.263  -8.366  40.024  1.00  0.00     0.005 C
HETATM   32  C18 UNL     1      -0.948  -8.592  41.467  1.00  0.00     0.005 C
HETATM   33  C19 UNL     1      -0.008  -9.735  41.563  1.00  0.00     0.034 C
ENDBRANCH  28  29
ENDBRANCH  27  28
BRANCH  27  34
HETATM   34  C20 UNL     1       2.709 -11.807  39.044  1.00  0.00     0.002 A
HETATM   35  C21 UNL     1       3.665 -12.917  39.530  1.00  0.00     0.006 A
HETATM   36  C22 UNL     1       3.704 -12.521  38.111  1.00  0.00     0.006 A
ENDBRANCH  27  34
ENDBRANCH  24  27
ENDBRANCH   1  23
TORSDOF 7
ENDMDL