MODEL 1
REMARK VINA RESULT: -7.189111355      0.000      0.000
REMARK  9 active torsions:
REMARK  status: ('A' for Active; 'I' for Inactive)
REMARK    1  A    between atoms: C2_2  and  C3_3
REMARK       I    between atoms: N1_5  and  C5_6
REMARK    2  A    between atoms: C5_6  and  C6_8
REMARK    3  A    between atoms: C7_9  and  O2_10
REMARK    4  A    between atoms: O2_10  and  C8_11
REMARK    5  A    between atoms: N3_16  and  C11_17
REMARK    6  A    between atoms: C11_17  and  C12_18
REMARK    7  A    between atoms: C12_18  and  O3_19
REMARK    8  A    between atoms: C13_21  and  C14_22
REMARK    9  A    between atoms: C22_30  and  O4_31
ROOT
HETATM    1  C6  UNL     1       0.919 -10.874  36.963  1.00  0.00     0.112 A
HETATM    2  C7  UNL     1       0.714  -9.812  37.866  1.00  0.00     0.176 A
HETATM    3  N2  UNL     1       0.537  -8.765  37.103  1.00  0.00    -0.276 N
ATOM      4  H2  UNL     1       0.364  -7.825  37.460  1.00  0.00     0.189 HD
HETATM    5  N3  UNL     1       0.609  -9.072  35.779  1.00  0.00    -0.287 N
HETATM    6  C13 UNL     1       0.842 -10.355  35.656  1.00  0.00     0.073 A
ENDROOT
BRANCH   1   7
HETATM    7  C5  UNL     1       1.103 -12.234  37.448  1.00  0.00     0.260 C
HETATM    8  N1  UNL     1       2.368 -12.797  37.719  1.00  0.00    -0.345 N
HETATM    9  C4  UNL     1       2.592 -14.144  38.203  1.00  0.00     0.133 C
HETATM   10  C21 UNL     1       3.634 -12.115  37.555  1.00  0.00     0.158 C
HETATM   11  C3  UNL     1       3.960 -14.423  37.655  1.00  0.00     0.034 C
HETATM   12  C22 UNL     1       4.691 -13.125  37.975  1.00  0.00     0.142 C
HETATM   13  O1  UNL     1       0.037 -12.916  37.626  1.00  0.00    -0.267 OA
BRANCH  11  14
HETATM   14  C2  UNL     1       4.618 -15.628  38.213  1.00  0.00     0.004 C
HETATM   15  C1  UNL     1       5.147 -16.580  37.177  1.00  0.00     0.005 C
ENDBRANCH  11  14
BRANCH  12  16
HETATM   16  O4  UNL     1       5.829 -13.010  37.185  1.00  0.00    -0.393 OA
ATOM     17  H4  UNL     1       5.700 -12.342  36.522  1.00  0.00     0.210 HD
ENDBRANCH  12  16
ENDBRANCH   1   7
BRANCH   2  18
HETATM   18  O2  UNL     1       0.717  -9.944  39.259  1.00  0.00    -0.329 OA
BRANCH  18  19
HETATM   19  C8  UNL     1      -0.512  -9.861  39.942  1.00  0.00     0.122 C
HETATM   20  C9  UNL     1      -0.280 -10.206  41.410  1.00  0.00     0.040 C
HETATM   21  C10 UNL     1      -1.095  -8.468  39.825  1.00  0.00     0.040 C
ENDBRANCH  18  19
ENDBRANCH   2  18
BRANCH   6  22
HETATM   22  C14 UNL     1       1.029 -11.191  34.464  1.00  0.00    -0.050 C
HETATM   23  C15 UNL     1       0.223 -10.984  33.250  1.00  0.00     0.036 C
HETATM   24  C16 UNL     1       1.039 -10.823  31.952  1.00  0.00     0.004 C
HETATM   25  C17 UNL     1       1.993  -9.703  31.939  1.00  0.00     0.000 C
HETATM   26  C18 UNL     1       3.369 -10.160  32.315  1.00  0.00     0.000 C
HETATM   27  C19 UNL     1       3.361 -10.386  33.840  1.00  0.00     0.004 C
HETATM   28  C20 UNL     1       2.484 -11.505  34.140  1.00  0.00     0.036 C
ENDBRANCH   6  22
BRANCH   5  29
HETATM   29  C11 UNL     1       0.377  -8.014  34.854  1.00  0.00     0.175 C
BRANCH  29  30
HETATM   30  C12 UNL     1       1.701  -7.279  34.632  1.00  0.00     0.185 C
BRANCH  30  31
HETATM   31  O3  UNL     1       2.257  -6.849  35.829  1.00  0.00    -0.399 OA
ATOM     32  H3  UNL     1       3.203  -6.933  35.827  1.00  0.00     0.209 HD
ENDBRANCH  30  31
ENDBRANCH  29  30
ENDBRANCH   5  29
TORSDOF 9
ENDMDL