MODEL 5
REMARK VINA RESULT: -7.929457936      4.407      6.070
REMARK  7 active torsions:
REMARK  status: ('A' for Active; 'I' for Inactive)
REMARK    1  A    between atoms: C2_2  and  C4_4
REMARK    2  A    between atoms: C4_4  and  C5_5
REMARK    3  A    between atoms: C6_6  and  C7_7
REMARK    4  A    between atoms: N5_21  and  C12_22
REMARK    5  A    between atoms: N6_24  and  C14_25
REMARK    6  A    between atoms: N7_28  and  C17_29
REMARK    7  A    between atoms: C17_29  and  C18_30
ROOT
HETATM    1  C5  UNL     1       0.814 -11.322  37.837  1.00  0.00     0.044 A
HETATM    2  C6  UNL     1       0.701 -11.244  39.204  1.00  0.00     0.049 A
HETATM    3  C11 UNL     1       1.540 -12.240  39.730  1.00  0.00     0.124 A
HETATM    4  N4  UNL     1       2.103 -12.843  38.686  1.00  0.00    -0.308 N
ATOM      5  H4  UNL     1       2.768 -13.612  38.759  1.00  0.00     0.186 HD
HETATM    6  N5  UNL     1       1.700 -12.327  37.560  1.00  0.00    -0.287 N
ENDROOT
BRANCH   6   7
HETATM    7  C12 UNL     1       2.193 -12.795  36.267  1.00  0.00     0.164 C
HETATM    8  C13 UNL     1       3.214 -13.920  36.462  1.00  0.00     0.302 C
HETATM    9  N6  UNL     1       2.284 -14.922  35.997  1.00  0.00     0.097 N
HETATM   10  C23 UNL     1       1.371 -13.875  35.622  1.00  0.00     0.302 C
BRANCH   9  11
HETATM   11  C14 UNL     1       2.862 -15.658  34.889  1.00  0.00     0.226 C
HETATM   12  C15 UNL     1       4.119 -16.326  35.398  1.00  0.00     0.066 C
HETATM   13  C16 UNL     1       4.017 -17.801  35.065  1.00  0.00     0.274 C
HETATM   14  N7  UNL     1       3.855 -17.902  33.653  1.00  0.00     0.088 N
HETATM   15  C21 UNL     1       2.481 -17.542  33.323  1.00  0.00     0.274 C
HETATM   16  C22 UNL     1       1.854 -16.665  34.373  1.00  0.00     0.066 C
BRANCH  14  17
HETATM   17  C17 UNL     1       4.125 -19.171  33.085  1.00  0.00     0.276 C
BRANCH  17  18
HETATM   18  C18 UNL     1       5.118 -19.198  31.971  1.00  0.00     0.006 C
HETATM   19  C19 UNL     1       4.319 -19.337  30.668  1.00  0.00     0.011 C
HETATM   20  C20 UNL     1       5.880 -17.887  31.843  1.00  0.00     0.011 C
ENDBRANCH  17  18
ENDBRANCH  14  17
ENDBRANCH   9  11
ENDBRANCH   6   7
BRANCH   1  21
HETATM   21  C4  UNL     1       0.108 -10.601  36.791  1.00  0.00     0.064 C
BRANCH  21  22
HETATM   22  C2  UNL     1       0.792  -9.516  36.068  1.00  0.00    -0.017 C
HETATM   23  C1  UNL     1      -0.024  -8.858  34.967  1.00  0.00     0.010 C
HETATM   24  C3  UNL     1       1.358  -8.452  36.948  1.00  0.00     0.010 C
ENDBRANCH  21  22
ENDBRANCH   1  21
BRANCH   2  25
HETATM   25  C7  UNL     1      -0.004 -10.266  40.056  1.00  0.00     0.120 A
HETATM   26  N1  UNL     1      -0.772  -9.296  39.558  1.00  0.00    -0.328 N
HETATM   27  C8  UNL     1      -1.358  -8.369  40.313  1.00  0.00     0.101 A
ATOM     28  H1  UNL     1      -0.919  -9.263  38.549  1.00  0.00     0.169 HD
HETATM   29  N2  UNL     1      -2.110  -7.425  39.795  1.00  0.00    -0.385 N
HETATM   30  C9  UNL     1      -1.157  -8.422  41.673  1.00  0.00     0.065 A
ATOM     31  H22 UNL     1      -2.259  -7.386  38.787  1.00  0.00     0.157 HD
ATOM     32  H21 UNL     1      -2.559  -6.715  40.374  1.00  0.00     0.157 HD
HETATM   33  C10 UNL     1      -0.364  -9.426  42.174  1.00  0.00     0.093 A
HETATM   34  N3  UNL     1       0.208 -10.340  41.378  1.00  0.00    -0.351 N
ATOM     35  H3  UNL     1       0.794 -11.077  41.770  1.00  0.00     0.166 HD
ENDBRANCH   2  25
TORSDOF 7
ENDMDL