MODEL 4
REMARK VINA RESULT: -8.732667978      1.484      2.230
REMARK  10 active torsions:
REMARK  status: ('A' for Active; 'I' for Inactive)
REMARK    1  A    between atoms: C2_2  and  C3_4
REMARK    2  A    between atoms: C3_4  and  C19_24
REMARK    3  A    between atoms: C4_5  and  C5_6
REMARK    4  A    between atoms: C6_7  and  C7_8
REMARK    5  A    between atoms: C8_9  and  C9_10
REMARK    6  A    between atoms: C9_10  and  C11_12
REMARK    7  A    between atoms: C12_13  and  C13_14
REMARK    8  A    between atoms: C16_18  and  O3_19
REMARK    9  A    between atoms: C19_24  and  O6_26
REMARK   10  A    between atoms: O6_26  and  C20_27
ROOT
HETATM    1  C5  UNL     1       4.046 -12.785  35.783  1.00  0.00     0.001 C
HETATM    2  C6  UNL     1       3.852 -11.912  34.779  1.00  0.00    -0.000 C
ENDROOT
BRANCH   2   3
HETATM    3  C7  UNL     1       2.672 -11.087  34.618  1.00  0.00    -0.003 C
HETATM    4  C8  UNL     1       2.799  -9.815  34.290  1.00  0.00    -0.019 C
BRANCH   4   5
HETATM    5  C9  UNL     1       1.624  -8.942  34.116  1.00  0.00     0.026 C
HETATM    6  C10 UNL     1       0.562  -9.351  35.102  1.00  0.00     0.018 C
BRANCH   5   7
HETATM    7  C11 UNL     1       1.137  -9.078  32.713  1.00  0.00    -0.020 C
HETATM    8  C12 UNL     1       1.936  -8.938  31.668  1.00  0.00     0.004 C
BRANCH   8   9
HETATM    9  C13 UNL     1       1.385  -9.086  30.303  1.00  0.00     0.176 C
HETATM   10  O2  UNL     1       2.172  -8.383  29.417  1.00  0.00    -0.350 OA
HETATM   11  C14 UNL     1       3.020  -9.302  28.804  1.00  0.00     0.263 C
HETATM   12  C15 UNL     1       2.611  -9.496  27.371  1.00  0.00     0.092 C
HETATM   13  O4  UNL     1       2.913 -10.499  29.471  1.00  0.00    -0.353 OA
HETATM   14  C16 UNL     1       1.570 -10.571  27.298  1.00  0.00     0.125 C
HETATM   15  C17 UNL     1       0.707 -10.639  28.536  1.00  0.00     0.067 C
HETATM   16  C18 UNL     1       1.535 -10.501  29.787  1.00  0.00     0.160 C
BRANCH  14  17
HETATM   17  O3  UNL     1       2.185 -11.828  27.134  1.00  0.00    -0.395 OA
ATOM     18  H3  UNL     1       1.911 -12.219  26.313  1.00  0.00     0.210 HD
ENDBRANCH  14  17
ENDBRANCH   8   9
ENDBRANCH   5   7
ENDBRANCH   4   5
ENDBRANCH   2   3
BRANCH   1  19
HETATM   19  C4  UNL     1       3.095 -13.004  36.831  1.00  0.00     0.021 C
HETATM   20  C3  UNL     1       3.347 -13.239  38.098  1.00  0.00     0.085 C
BRANCH  20  21
HETATM   21  C2  UNL     1       4.634 -13.329  38.723  1.00  0.00     0.161 C
HETATM   22  C1  UNL     1       5.484 -14.533  38.608  1.00  0.00     0.097 C
HETATM   23  O1  UNL     1       5.096 -12.392  39.396  1.00  0.00    -0.293 OA
ENDBRANCH  20  21
BRANCH  20  24
HETATM   24  C19 UNL     1       2.121 -13.421  38.923  1.00  0.00     0.303 C
HETATM   25  O5  UNL     1       1.406 -14.405  38.724  1.00  0.00    -0.259 OA
BRANCH  24  26
HETATM   26  O6  UNL     1       1.739 -12.536  39.909  1.00  0.00    -0.257 OA
BRANCH  26  27
HETATM   27  C20 UNL     1       0.936 -11.430  39.677  1.00  0.00     0.151 A
HETATM   28  C21 UNL     1       0.615 -10.802  38.504  1.00  0.00     0.058 A
HETATM   29  C22 UNL     1      -0.234  -9.722  38.766  1.00  0.00     0.021 A
HETATM   30  C23 UNL     1      -0.402  -9.735  40.128  1.00  0.00     0.090 A
HETATM   31  N1  UNL     1       0.302 -10.758  40.651  1.00  0.00    -0.347 N
ATOM     32  H1  UNL     1       0.346 -10.988  41.644  1.00  0.00     0.167 HD
ENDBRANCH  26  27
ENDBRANCH  24  26
ENDBRANCH  20  24
ENDBRANCH   1  19
TORSDOF 10
ENDMDL