MODEL 5
REMARK VINA RESULT: -8.796415834      1.344      5.735
REMARK  8 active torsions:
REMARK  status: ('A' for Active; 'I' for Inactive)
REMARK    1  A    between atoms: C2_2  and  C3_3
REMARK       I    between atoms: C3_3  and  N1_5
REMARK    2  A    between atoms: N1_5  and  C4_7
REMARK    3  A    between atoms: C4_7  and  C5_8
REMARK    4  A    between atoms: C5_8  and  C6_9
REMARK    5  A    between atoms: C6_9  and  N2_10
REMARK    6  A    between atoms: N2_10  and  C7_12
REMARK    7  A    between atoms: N5_20  and  C11_21
REMARK    8  A    between atoms: C16_26  and  N6_27
ROOT
HETATM    1  C7  UNL     1       0.154  -9.995  36.182  1.00  0.00     0.685 A
HETATM    2  N3  UNL     1       1.070 -10.977  36.277  1.00  0.00    -0.174 N
ATOM      3  H3  UNL     1       1.512 -11.309  35.420  1.00  0.00     0.186 HD
HETATM    4  C8  UNL     1       1.431 -11.541  37.434  1.00  0.00     0.153 A
HETATM    5  C9  UNL     1       0.842 -11.108  38.629  1.00  0.00     0.071 A
HETATM    6  C10 UNL     1       1.419 -11.850  39.608  1.00  0.00     0.126 A
HETATM    7  N4  UNL     1       2.304 -12.680  39.014  1.00  0.00    -0.307 N
ATOM      8  H4  UNL     1       2.882 -13.354  39.515  1.00  0.00     0.186 HD
HETATM    9  N5  UNL     1       2.327 -12.515  37.735  1.00  0.00    -0.271 N
HETATM   10  C16 UNL     1      -0.099 -10.106  38.566  1.00  0.00     0.134 A
HETATM   11  N7  UNL     1      -0.394  -9.599  37.326  1.00  0.00    -0.175 N
ATOM     12  H7  UNL     1      -1.092  -8.857  37.278  1.00  0.00     0.186 HD
ENDROOT
BRANCH   1  13
HETATM   13  N2  UNL     1      -0.154  -9.488  35.032  1.00  0.00    -0.205 N
ATOM     14  H2  UNL     1      -0.917  -9.953  34.541  1.00  0.00     0.183 HD
BRANCH  13  15
HETATM   15  C6  UNL     1       0.410  -8.391  34.361  1.00  0.00     0.080 C
BRANCH  15  16
HETATM   16  C5  UNL     1       1.425  -8.673  33.306  1.00  0.00     0.065 C
BRANCH  16  17
HETATM   17  C4  UNL     1       1.347 -10.041  32.708  1.00  0.00     0.128 C
BRANCH  17  18
HETATM   18  N1  UNL     1       0.804 -10.133  31.396  1.00  0.00    -0.361 N
HETATM   19  C3  UNL     1       1.679 -10.598  30.350  1.00  0.00     0.217 C
HETATM   20  O1  UNL     1       2.880 -10.913  30.586  1.00  0.00    -0.274 OA
ATOM     21  H1  UNL     1      -0.165  -9.880  31.204  1.00  0.00     0.162 HD
BRANCH  19  22
HETATM   22  C2  UNL     1       1.192 -10.723  28.960  1.00  0.00     0.098 C
HETATM   23  C1  UNL     1       1.977  -9.836  28.039  1.00  0.00     0.014 C
ENDBRANCH  19  22
ENDBRANCH  17  18
ENDBRANCH  16  17
ENDBRANCH  15  16
ENDBRANCH  13  15
ENDBRANCH   1  13
BRANCH  10  24
HETATM   24  N6  UNL     1      -0.773  -9.657  39.700  1.00  0.00    -0.366 N
HETATM   25  C17 UNL     1      -0.792 -10.098  41.042  1.00  0.00     0.124 C
HETATM   26  C18 UNL     1      -0.085  -9.059  41.909  1.00  0.00     0.020 C
HETATM   27  C19 UNL     1      -0.517  -7.694  41.498  1.00  0.00     0.007 C
HETATM   28  C20 UNL     1      -1.838  -7.745  40.768  1.00  0.00    -0.001 C
HETATM   29  C21 UNL     1      -2.324  -6.346  40.420  1.00  0.00     0.011 C
HETATM   30  C22 UNL     1      -1.630  -8.460  39.467  1.00  0.00     0.128 C
ENDBRANCH  10  24
BRANCH   9  31
HETATM   31  C11 UNL     1       3.142 -13.220  36.775  1.00  0.00     0.110 C
HETATM   32  C12 UNL     1       2.867 -14.708  36.770  1.00  0.00     0.027 C
HETATM   33  C13 UNL     1       3.991 -15.186  35.838  1.00  0.00     0.002 C
HETATM   34  C14 UNL     1       5.133 -14.215  36.057  1.00  0.00     0.002 C
HETATM   35  C15 UNL     1       4.606 -13.176  37.060  1.00  0.00     0.027 C
ENDBRANCH   9  31
TORSDOF 8
ENDMDL