MODEL 5
REMARK VINA RESULT: -6.696350335      2.497      7.090
REMARK  12 active torsions:
REMARK  status: ('A' for Active; 'I' for Inactive)
REMARK    1  A    between atoms: C3_3  and  C4_4
REMARK    2  A    between atoms: C4_4  and  O2_6
REMARK    3  A    between atoms: O2_6  and  C5_7
REMARK    4  A    between atoms: C7_9  and  O3_10
REMARK    5  A    between atoms: C10_14  and  C11_15
REMARK    6  A    between atoms: C11_15  and  C12_16
REMARK    7  A    between atoms: C12_16  and  O4_17
REMARK    8  A    between atoms: C14_22  and  C23_31
REMARK    9  A    between atoms: C15_23  and  C17_25
REMARK   10  A    between atoms: C18_26  and  C19_27
REMARK   11  A    between atoms: C19_27  and  C20_28
REMARK   12  A    between atoms: C20_28  and  C21_29
ROOT
HETATM    1  C11 UNL     1       0.305 -10.455  37.278  1.00  0.00     0.109 C
HETATM    2  O5  UNL     1       0.018 -11.736  37.896  1.00  0.00    -0.306 OA
HETATM    3  C13 UNL     1       1.074 -12.057  38.778  1.00  0.00     0.266 C
HETATM    4  O6  UNL     1       1.034 -13.064  39.509  1.00  0.00    -0.265 OA
HETATM    5  C14 UNL     1       2.094 -10.985  38.595  1.00  0.00     0.113 C
HETATM    6  C15 UNL     1       1.111  -9.864  38.345  1.00  0.00     0.021 C
HETATM    7  C16 UNL     1       1.605  -8.507  38.302  1.00  0.00     0.024 C
ENDROOT
BRANCH   6   8
HETATM    8  C17 UNL     1       0.265  -9.955  39.616  1.00  0.00    -0.018 C
HETATM    9  C18 UNL     1       0.225  -8.896  40.439  1.00  0.00    -0.030 C
BRANCH   9  10
HETATM   10  C19 UNL     1      -0.581  -8.926  41.688  1.00  0.00     0.027 C
BRANCH  10  11
HETATM   11  C20 UNL     1      -1.844  -8.100  41.587  1.00  0.00     0.003 C
BRANCH  11  12
HETATM   12  C21 UNL     1      -1.545  -6.789  40.923  1.00  0.00    -0.004 C
HETATM   13  C22 UNL     1      -2.786  -6.228  40.283  1.00  0.00     0.005 C
ENDBRANCH  11  12
ENDBRANCH  10  11
ENDBRANCH   9  10
ENDBRANCH   6   8
BRANCH   1  14
HETATM   14  C10 UNL     1       0.866 -10.813  35.969  1.00  0.00     0.054 C
HETATM   15  C5  UNL     1      -0.024 -11.196  34.843  1.00  0.00     0.142 C
HETATM   16  C6  UNL     1      -0.500 -10.056  33.998  1.00  0.00     0.072 C
HETATM   17  C7  UNL     1      -0.099  -8.715  34.362  1.00  0.00     0.078 A
HETATM   18  C8  UNL     1       1.361  -8.630  34.831  1.00  0.00     0.004 A
HETATM   19  C23 UNL     1       0.316  -8.062  35.579  1.00  0.00     0.017 A
HETATM   20  C9  UNL     1       1.910  -9.878  35.388  1.00  0.00     0.024 C
HETATM   21  C24 UNL     1       1.620  -7.264  35.288  1.00  0.00     0.028 A
BRANCH  15  22
HETATM   22  O2  UNL     1       0.753 -12.023  33.978  1.00  0.00    -0.312 OA
BRANCH  22  23
HETATM   23  C4  UNL     1       1.015 -13.359  34.215  1.00  0.00     0.282 C
HETATM   24  O1  UNL     1       0.207 -14.167  33.702  1.00  0.00    -0.260 OA
BRANCH  23  25
HETATM   25  C3  UNL     1       2.161 -13.768  35.011  1.00  0.00     0.077 C
HETATM   26  C2  UNL     1       1.990 -14.432  36.137  1.00  0.00    -0.025 C
HETATM   27  C1  UNL     1       3.166 -14.851  36.955  1.00  0.00     0.036 C
ENDBRANCH  23  25
ENDBRANCH  22  23
ENDBRANCH  15  22
BRANCH  17  28
HETATM   28  O3  UNL     1      -0.331  -7.760  33.325  1.00  0.00    -0.388 OA
ATOM     29  H3  UNL     1       0.463  -7.333  33.026  1.00  0.00     0.210 HD
ENDBRANCH  17  28
ENDBRANCH   1  14
BRANCH   1  30
HETATM   30  C12 UNL     1      -1.034  -9.758  37.169  1.00  0.00     0.204 C
BRANCH  30  31
HETATM   31  O4  UNL     1      -2.039 -10.459  37.828  1.00  0.00    -0.398 OA
ATOM     32  H4  UNL     1      -2.685  -9.877  38.210  1.00  0.00     0.209 HD
ENDBRANCH  30  31
ENDBRANCH   1  30
TORSDOF 12
ENDMDL