MODEL 3
REMARK VINA RESULT: -7.288739101      4.510      7.915
REMARK  10 active torsions:
REMARK  status: ('A' for Active; 'I' for Inactive)
REMARK    1  A    between atoms: C2_2  and  C3_3
REMARK    2  A    between atoms: C3_3  and  C5_5
REMARK    3  A    between atoms: C5_5  and  C6_6
REMARK    4  A    between atoms: C5_5  and  O4_29
REMARK    5  A    between atoms: C6_6  and  C7_7
REMARK    6  A    between atoms: C7_7  and  C8_8
REMARK    7  A    between atoms: C8_8  and  C9_9
REMARK    8  A    between atoms: C9_9  and  O1_10
REMARK    9  A    between atoms: C12_14  and  O2_15
REMARK   10  A    between atoms: O4_29  and  C23_30
ROOT
HETATM    1  C9  UNL     1       1.749  -9.712  34.129  1.00  0.00     0.091 C
HETATM    2  C10 UNL     1       2.776 -10.467  34.857  1.00  0.00     0.048 C
HETATM    3  C11 UNL     1       4.060 -10.571  34.070  1.00  0.00     0.016 C
HETATM    4  C12 UNL     1       2.439 -11.843  35.324  1.00  0.00     0.134 C
HETATM    5  C13 UNL     1       2.289 -11.796  36.838  1.00  0.00     0.057 A
HETATM    6  C14 UNL     1       0.815 -11.514  37.109  1.00  0.00    -0.060 A
HETATM    7  C15 UNL     1       0.058 -10.488  36.779  1.00  0.00     0.056 C
HETATM    8  C16 UNL     1       0.200  -9.236  36.072  1.00  0.00     0.174 C
HETATM    9  O3  UNL     1      -0.573  -8.363  36.620  1.00  0.00    -0.291 OA
HETATM   10  C17 UNL     1       0.961  -8.725  34.937  1.00  0.00     0.141 C
HETATM   11  C18 UNL     1       0.112  -7.821  34.043  1.00  0.00     0.043 C
HETATM   12  C19 UNL     1       1.980  -7.798  35.509  1.00  0.00     0.080 C
HETATM   13  N1  UNL     1       2.782  -7.088  35.969  1.00  0.00    -0.196 NA
HETATM   14  C20 UNL     1       1.495 -12.759  37.578  1.00  0.00    -0.014 A
HETATM   15  C21 UNL     1       1.680 -12.827  39.067  1.00  0.00     0.020 C
HETATM   16  C22 UNL     1       1.035 -14.063  36.946  1.00  0.00     0.020 C
ENDROOT
BRANCH   1  17
HETATM   17  C8  UNL     1       0.809 -10.466  33.250  1.00  0.00     0.041 C
BRANCH  17  18
HETATM   18  C7  UNL     1       0.716  -9.922  31.840  1.00  0.00     0.006 C
BRANCH  18  19
HETATM   19  C6  UNL     1       1.410 -10.826  30.848  1.00  0.00     0.033 C
BRANCH  19  20
HETATM   20  C5  UNL     1       1.283 -10.250  29.450  1.00  0.00     0.135 C
BRANCH  20  21
HETATM   21  C3  UNL     1       2.549  -9.656  28.923  1.00  0.00     0.011 C
HETATM   22  C4  UNL     1       2.253  -8.380  28.116  1.00  0.00     0.012 C
BRANCH  21  23
HETATM   23  C2  UNL     1       3.496  -9.229  30.021  1.00  0.00     0.002 C
HETATM   24  C1  UNL     1       3.641  -7.752  30.173  1.00  0.00     0.005 C
ENDBRANCH  21  23
ENDBRANCH  20  21
BRANCH  20  25
HETATM   25  O4  UNL     1       0.878 -11.305  28.586  1.00  0.00    -0.316 OA
BRANCH  25  26
HETATM   26  C23 UNL     1       0.336 -11.117  27.342  1.00  0.00     0.255 C
HETATM   27  C24 UNL     1       1.162 -11.344  26.126  1.00  0.00     0.126 C
HETATM   28  O5  UNL     1      -0.853 -10.753  27.207  1.00  0.00    -0.266 OA
ENDBRANCH  25  26
ENDBRANCH  20  25
ENDBRANCH  19  20
ENDBRANCH  18  19
ENDBRANCH  17  18
ENDBRANCH   1  17
BRANCH   1  29
HETATM   29  O1  UNL     1       2.474  -8.882  33.204  1.00  0.00    -0.387 OA
ATOM     30  H1  UNL     1       2.585  -8.068  33.681  1.00  0.00     0.210 HD
ENDBRANCH   1  29
BRANCH   4  31
HETATM   31  O2  UNL     1       3.474 -12.776  35.109  1.00  0.00    -0.394 OA
ATOM     32  H2  UNL     1       4.336 -12.380  35.071  1.00  0.00     0.210 HD
ENDBRANCH   4  31
TORSDOF 10
ENDMDL