MODEL 4
REMARK VINA RESULT: -8.573075952      2.521      3.058
REMARK  7 active torsions:
REMARK  status: ('A' for Active; 'I' for Inactive)
REMARK    1  A    between atoms: C2_2  and  C3_3
REMARK    2  A    between atoms: C3_3  and  N1_4
REMARK    3  A    between atoms: C6_12  and  C7_13
REMARK    4  A    between atoms: C7_13  and  C8_14
REMARK    5  A    between atoms: C8_14  and  C9_15
REMARK    6  A    between atoms: C9_15  and  N4_16
REMARK    7  A    between atoms: C13_20  and  C14_21
ROOT
HETATM    1  N1  UNL     1       6.423 -13.963  38.197  1.00  0.00    -0.289 N
HETATM    2  C4  UNL     1       6.960 -13.059  37.325  1.00  0.00     0.182 A
HETATM    3  S1  UNL     1       8.551 -12.690  37.365  1.00  0.00    -0.040 SA
HETATM    4  N2  UNL     1       6.120 -12.498  36.442  1.00  0.00    -0.317 N
ATOM      5  H2  UNL     1       6.493 -11.819  35.779  1.00  0.00     0.170 HD
HETATM    6  C5  UNL     1       4.802 -12.791  36.392  1.00  0.00     0.141 A
HETATM    7  N3  UNL     1       3.977 -12.210  35.491  1.00  0.00    -0.339 N
ATOM      8  H3  UNL     1       4.358 -11.531  34.831  1.00  0.00     0.167 HD
HETATM    9  C6  UNL     1       2.665 -12.507  35.445  1.00  0.00     0.079 A
HETATM   10  C19 UNL     1       2.154 -13.431  36.347  1.00  0.00     0.268 A
HETATM   11  O1  UNL     1       0.928 -13.708  36.303  1.00  0.00    -0.266 OA
HETATM   12  N5  UNL     1       2.952 -14.029  37.260  1.00  0.00    -0.314 N
ATOM     13  H5  UNL     1       2.575 -14.708  37.921  1.00  0.00     0.169 HD
HETATM   14  C20 UNL     1       4.257 -13.703  37.272  1.00  0.00     0.148 A
HETATM   15  C21 UNL     1       5.125 -14.285  38.188  1.00  0.00     0.280 A
HETATM   16  O2  UNL     1       4.604 -15.108  38.973  1.00  0.00    -0.265 OA
ENDROOT
BRANCH   9  17
HETATM   17  C7  UNL     1       1.723 -11.886  34.468  1.00  0.00     0.064 C
BRANCH  17  18
HETATM   18  C8  UNL     1       1.513 -10.421  34.835  1.00  0.00     0.025 C
BRANCH  18  19
HETATM   19  C9  UNL     1       0.154 -10.213  35.459  1.00  0.00     0.117 C
BRANCH  19  20
HETATM   20  N4  UNL     1       0.298  -9.981  36.853  1.00  0.00    -0.412 N
HETATM   21  C10 UNL     1       0.059 -11.066  37.726  1.00  0.00     0.117 C
HETATM   22  C11 UNL     1       0.886 -10.876  38.991  1.00  0.00     0.020 C
HETATM   23  C12 UNL     1       0.016 -10.306  40.097  1.00  0.00     0.006 C
HETATM   24  C13 UNL     1      -0.340  -8.873  39.777  1.00  0.00    -0.010 C
HETATM   25  C17 UNL     1      -1.043  -8.705  38.469  1.00  0.00     0.024 C
HETATM   26  C18 UNL     1      -0.077  -8.698  37.315  1.00  0.00     0.117 C
BRANCH  24  27
HETATM   27  C14 UNL     1      -1.249  -8.343  40.876  1.00  0.00    -0.019 C
HETATM   28  C15 UNL     1      -1.028  -6.847  41.085  1.00  0.00     0.010 C
HETATM   29  C16 UNL     1      -0.972  -9.048  42.179  1.00  0.00     0.010 C
ENDBRANCH  24  27
ENDBRANCH  19  20
ENDBRANCH  18  19
ENDBRANCH  17  18
ENDBRANCH   9  17
BRANCH   1  30
HETATM   30  C3  UNL     1       7.322 -14.555  39.144  1.00  0.00     0.134 C
BRANCH  30  31
HETATM   31  C2  UNL     1       7.432 -13.854  40.454  1.00  0.00     0.016 C
HETATM   32  C1  UNL     1       7.061 -14.672  41.651  1.00  0.00     0.006 C
ENDBRANCH  30  31
ENDBRANCH   1  30
TORSDOF 7
ENDMDL