MODEL 1
REMARK VINA RESULT: -7.223557221      0.000      0.000
REMARK  9 active torsions:
REMARK  status: ('A' for Active; 'I' for Inactive)
REMARK    1  A    between atoms: C2_2  and  O1_3
REMARK    2  A    between atoms: O1_3  and  C3_4
REMARK    3  A    between atoms: C9_10  and  C10_11
REMARK    4  A    between atoms: C10_11  and  O2_12
REMARK    5  A    between atoms: C12_16  and  O4_17
REMARK    6  A    between atoms: O4_17  and  C13_18
REMARK    7  A    between atoms: C15_21  and  C16_22
REMARK    8  A    between atoms: C16_22  and  C17_23
REMARK    9  A    between atoms: C19_26  and  O7_28
ROOT
HETATM    1  C3  UNL     1      19.769   8.798   2.858  1.00  0.00     0.169 C
HETATM    2  C4  UNL     1      18.349   9.332   2.898  1.00  0.00     0.073 C
HETATM    3  C5  UNL     1      18.585  10.674   3.619  1.00  0.00    -0.013 C
HETATM    4  C6  UNL     1      17.317  11.303   4.066  1.00  0.00     0.010 C
HETATM    5  C7  UNL     1      19.362  10.046   4.800  1.00  0.00     0.015 C
HETATM    6  C8  UNL     1      20.505   9.520   3.978  1.00  0.00     0.062 C
HETATM    7  C9  UNL     1      21.385   8.526   4.671  1.00  0.00     0.028 C
HETATM    8  C11 UNL     1      21.013   7.278   3.993  1.00  0.00     0.167 C
HETATM    9  O3  UNL     1      19.888   7.503   3.209  1.00  0.00    -0.346 OA
HETATM   10  C12 UNL     1      22.029   6.557   3.143  1.00  0.00     0.169 C
HETATM   11  C15 UNL     1      23.343   7.206   3.082  1.00  0.00     0.059 C
HETATM   12  C19 UNL     1      23.812   7.881   4.357  1.00  0.00     0.068 C
HETATM   13  C20 UNL     1      24.240   6.849   5.328  1.00  0.00     0.047 C
HETATM   14  C21 UNL     1      22.828   8.904   4.775  1.00  0.00    -0.004 C
HETATM   15  C22 UNL     1      23.083  10.123   3.846  1.00  0.00     0.019 C
HETATM   16  C23 UNL     1      23.255   9.503   6.091  1.00  0.00     0.019 C
ENDROOT
BRANCH  10  17
HETATM   17  O4  UNL     1      22.157   5.213   3.608  1.00  0.00    -0.313 OA
BRANCH  17  18
HETATM   18  C13 UNL     1      21.114   4.372   3.903  1.00  0.00     0.255 C
HETATM   19  C14 UNL     1      20.646   3.318   2.945  1.00  0.00     0.126 C
HETATM   20  O5  UNL     1      20.521   4.471   5.000  1.00  0.00    -0.266 OA
ENDBRANCH  17  18
ENDBRANCH  10  17
BRANCH  11  21
HETATM   21  C16 UNL     1      24.470   6.358   2.580  1.00  0.00     0.088 C
BRANCH  21  22
HETATM   22  C17 UNL     1      24.886   6.607   1.189  1.00  0.00     0.123 C
HETATM   23  C18 UNL     1      24.083   7.487   0.337  1.00  0.00     0.091 C
HETATM   24  O6  UNL     1      25.885   6.085   0.755  1.00  0.00    -0.298 OA
ENDBRANCH  21  22
ENDBRANCH  11  21
BRANCH   7  25
HETATM   25  C10 UNL     1      20.843   8.417   6.108  1.00  0.00     0.177 C
BRANCH  25  26
HETATM   26  O2  UNL     1      20.210   7.198   6.337  1.00  0.00    -0.400 OA
ATOM     27  H2  UNL     1      19.264   7.283   6.343  1.00  0.00     0.209 HD
ENDBRANCH  25  26
ENDBRANCH   7  25
BRANCH  12  28
HETATM   28  O7  UNL     1      25.013   8.522   3.941  1.00  0.00    -0.389 OA
ATOM     29  H7  UNL     1      25.534   8.517   4.735  1.00  0.00     0.210 HD
ENDBRANCH  12  28
BRANCH   1  30
HETATM   30  O1  UNL     1      20.302   9.157   1.652  1.00  0.00    -0.355 OA
BRANCH  30  31
HETATM   31  C2  UNL     1      19.461   9.655   0.707  1.00  0.00     0.167 C
HETATM   32  C1  UNL     1      19.894  11.010   0.172  1.00  0.00     0.033 C
ENDBRANCH  30  31
ENDBRANCH   1  30
TORSDOF 9
ENDMDL