MODEL 3
REMARK VINA RESULT: -7.909986555      2.234      3.064
REMARK  10 active torsions:
REMARK  status: ('A' for Active; 'I' for Inactive)
REMARK    1  A    between atoms: C2_2  and  C3_3
REMARK    2  A    between atoms: C3_3  and  O1_4
REMARK    3  A    between atoms: O1_4  and  C4_5
REMARK    4  A    between atoms: C4_5  and  C5_7
REMARK    5  A    between atoms: C5_7  and  C6_8
REMARK    6  A    between atoms: C6_8  and  C7_9
REMARK    7  A    between atoms: C7_9  and  O4_11
REMARK    8  A    between atoms: O4_11  and  C8_12
REMARK    9  A    between atoms: C20_25  and  O6_26
REMARK   10  A    between atoms: C23_30  and  O7_32
ROOT
HETATM    1  C8  UNL     1      17.052   9.563   2.301  1.00  0.00     0.146 C
HETATM    2  C9  UNL     1      16.322   9.428   3.555  1.00  0.00     0.038 C
HETATM    3  C10 UNL     1      15.162  10.242   3.931  1.00  0.00     0.036 C
HETATM    4  C11 UNL     1      13.933   9.409   3.953  1.00  0.00    -0.085 C
HETATM    5  C12 UNL     1      13.507   8.799   5.282  1.00  0.00     0.043 C
HETATM    6  C13 UNL     1      13.207   9.172   2.905  1.00  0.00     0.010 C
HETATM    7  C14 UNL     1      13.451   9.657   1.572  1.00  0.00     0.182 A
HETATM    8  O5  UNL     1      14.273  10.724   1.380  1.00  0.00    -0.363 OA
HETATM    9  C15 UNL     1      15.195  10.015   0.566  1.00  0.00     0.110 A
HETATM   10  C16 UNL     1      15.166  10.782  -0.772  1.00  0.00     0.020 C
HETATM   11  C17 UNL     1      13.865  11.370  -1.143  1.00  0.00     0.013 C
HETATM   12  C18 UNL     1      15.825   9.935  -1.836  1.00  0.00     0.010 C
HETATM   13  C19 UNL     1      17.254   9.868  -1.399  1.00  0.00     0.033 C
HETATM   14  C20 UNL     1      17.578   9.840   0.008  1.00  0.00     0.132 C
HETATM   15  C21 UNL     1      16.556  10.162   1.073  1.00  0.00     0.043 C
HETATM   16  C22 UNL     1      16.720  11.693   1.298  1.00  0.00     0.024 C
HETATM   17  C23 UNL     1      14.330   8.882   0.649  1.00  0.00     0.116 A
HETATM   18  C24 UNL     1      14.677   7.489   0.911  1.00  0.00     0.052 C
ENDROOT
BRANCH   1  19
HETATM   19  O4  UNL     1      18.254  10.293   2.673  1.00  0.00    -0.315 OA
BRANCH  19  20
HETATM   20  C7  UNL     1      19.271   9.775   3.413  1.00  0.00     0.259 C
HETATM   21  O3  UNL     1      19.728  10.435   4.380  1.00  0.00    -0.265 OA
BRANCH  20  22
HETATM   22  C6  UNL     1      19.890   8.430   3.129  1.00  0.00     0.121 C
BRANCH  22  23
HETATM   23  C5  UNL     1      19.440   7.510   4.226  1.00  0.00     0.121 C
BRANCH  23  24
HETATM   24  C4  UNL     1      20.559   6.801   4.875  1.00  0.00     0.259 C
HETATM   25  O2  UNL     1      21.488   7.485   5.374  1.00  0.00    -0.265 OA
BRANCH  24  26
HETATM   26  O1  UNL     1      20.650   5.428   4.970  1.00  0.00    -0.318 OA
BRANCH  26  27
HETATM   27  C3  UNL     1      19.762   4.555   4.253  1.00  0.00     0.205 C
BRANCH  27  28
HETATM   28  C2  UNL     1      20.504   3.454   3.605  1.00  0.00    -0.011 C
HETATM   29  C1  UNL     1      19.915   2.584   2.803  1.00  0.00     0.009 C
ENDBRANCH  27  28
ENDBRANCH  26  27
ENDBRANCH  24  26
ENDBRANCH  23  24
ENDBRANCH  22  23
ENDBRANCH  20  22
ENDBRANCH  19  20
ENDBRANCH   1  19
BRANCH  14  30
HETATM   30  O6  UNL     1      18.708  10.713   0.145  1.00  0.00    -0.395 OA
ATOM     31  H6  UNL     1      18.341  11.550   0.406  1.00  0.00     0.210 HD
ENDBRANCH  14  30
BRANCH  17  32
HETATM   32  O7  UNL     1      13.541   8.779  -0.565  1.00  0.00    -0.384 OA
ATOM     33  H7  UNL     1      14.194   8.785  -1.255  1.00  0.00     0.210 HD
ENDBRANCH  17  32
TORSDOF 10
ENDMDL