MODEL 2
REMARK VINA RESULT: -9.544408303      1.655      2.507
REMARK  6 active torsions:
REMARK  status: ('A' for Active; 'I' for Inactive)
REMARK    1  A    between atoms: C4_4  and  S1_5
REMARK    2  A    between atoms: S1_5  and  C5_6
REMARK    3  A    between atoms: C5_6  and  C6_7
REMARK    4  A    between atoms: C6_7  and  N1_8
REMARK    5  A    between atoms: N4_17  and  C10_18
REMARK    6  A    between atoms: N5_21  and  C13_22
ROOT
HETATM    1  N1  UNL     1      19.138   7.539   5.837  1.00  0.00    -0.370 N
ATOM      2  H1  UNL     1      19.217   7.286   6.822  1.00  0.00     0.161 HD
HETATM    3  C7  UNL     1      18.129   8.251   5.577  1.00  0.00     0.185 A
HETATM    4  N2  UNL     1      17.330   8.552   6.649  1.00  0.00    -0.280 N
ATOM      5  H2  UNL     1      17.559   8.208   7.581  1.00  0.00     0.188 HD
HETATM    6  N3  UNL     1      16.267   9.290   6.454  1.00  0.00    -0.287 N
ATOM      7  H3  UNL     1      15.678   9.509   7.257  1.00  0.00     0.188 HD
HETATM    8  C8  UNL     1      15.901   9.784   5.229  1.00  0.00     0.097 A
HETATM    9  C9  UNL     1      14.712  10.607   5.053  1.00  0.00     0.091 C
HETATM   10  N4  UNL     1      16.640   9.523   4.152  1.00  0.00    -0.294 N
HETATM   11  C21 UNL     1      17.748   8.752   4.363  1.00  0.00     0.294 A
HETATM   12  O1  UNL     1      18.499   8.465   3.367  1.00  0.00    -0.264 OA
ENDROOT
BRANCH   1  13
HETATM   13  C6  UNL     1      20.178   7.024   5.034  1.00  0.00     0.132 C
BRANCH  13  14
HETATM   14  C5  UNL     1      21.548   7.597   5.398  1.00  0.00     0.100 C
BRANCH  14  15
HETATM   15  S1  UNL     1      21.894   9.041   4.381  1.00  0.00    -0.109 SA
BRANCH  15  16
HETATM   16  C4  UNL     1      21.972   8.647   2.650  1.00  0.00     0.086 A
HETATM   17  C3  UNL     1      23.078   8.534   1.834  1.00  0.00     0.064 A
HETATM   18  C2  UNL     1      22.675   8.216   0.531  1.00  0.00     0.024 A
HETATM   19  C1  UNL     1      23.589   8.014  -0.622  1.00  0.00     0.070 C
HETATM   20  N7  UNL     1      21.346   8.147   0.601  1.00  0.00    -0.304 N
HETATM   21  N6  UNL     1      20.920   8.394   1.822  1.00  0.00    -0.294 N
ATOM     22  H7  UNL     1      20.739   7.930  -0.189  1.00  0.00     0.186 HD
ATOM     23  H6  UNL     1      19.940   8.396   2.107  1.00  0.00     0.187 HD
ENDBRANCH  15  16
ENDBRANCH  14  15
ENDBRANCH  13  14
ENDBRANCH   1  13
BRANCH  10  24
HETATM   24  C10 UNL     1      16.401   9.951   2.865  1.00  0.00     0.104 C
HETATM   25  C11 UNL     1      17.389  10.304   1.862  1.00  0.00     0.071 C
HETATM   26  C12 UNL     1      16.666  11.103   0.755  1.00  0.00     0.065 C
HETATM   27  N5  UNL     1      15.406  10.644   0.422  1.00  0.00    -0.369 N
HETATM   28  C19 UNL     1      14.811   9.558   1.061  1.00  0.00     0.065 C
HETATM   29  C20 UNL     1      15.516   8.887   2.173  1.00  0.00     0.071 C
BRANCH  27  30
HETATM   30  C13 UNL     1      15.041  10.746  -0.970  1.00  0.00     0.088 C
HETATM   31  C14 UNL     1      15.613   9.621  -1.766  1.00  0.00     0.026 C
HETATM   32  C15 UNL     1      15.143   9.562  -3.173  1.00  0.00     0.002 C
HETATM   33  C16 UNL     1      13.806  10.217  -3.399  1.00  0.00     0.000 C
HETATM   34  C17 UNL     1      12.922  10.157  -2.174  1.00  0.00     0.002 C
HETATM   35  C18 UNL     1      13.573  10.952  -1.088  1.00  0.00     0.026 C
ENDBRANCH  27  30
ENDBRANCH  10  24
TORSDOF 6
ENDMDL