MODEL 3
REMARK VINA RESULT: -8.028634619      3.227      7.202
REMARK  7 active torsions:
REMARK  status: ('A' for Active; 'I' for Inactive)
REMARK    1  A    between atoms: C2_2  and  C3_3
REMARK    2  A    between atoms: C2_2  and  N3_16
REMARK    3  A    between atoms: C3_3  and  C4_4
REMARK    4  A    between atoms: C3_3  and  C7_11
REMARK    5  A    between atoms: C7_11  and  O1_14
REMARK    6  A    between atoms: C13_20  and  C14_21
REMARK    7  A    between atoms: C13_20  and  N5_24
ROOT
HETATM    1  C14 UNL     1      17.815  10.237   3.654  1.00  0.00     0.157 C
HETATM    2  C15 UNL     1      17.800   8.783   3.783  1.00  0.00     0.061 C
HETATM    3  N4  UNL     1      17.769   7.642   3.890  1.00  0.00    -0.197 NA
ENDROOT
BRANCH   1   4
HETATM    4  C13 UNL     1      18.087  10.553   2.179  1.00  0.00     0.083 C
HETATM    5  C11 UNL     1      18.740  11.913   2.043  1.00  0.00     0.041 C
HETATM    6  C10 UNL     1      20.199  11.613   1.699  1.00  0.00     0.279 C
HETATM    7  C12 UNL     1      18.166  12.705   0.899  1.00  0.00     0.014 C
HETATM    8  N3  UNL     1      20.364  10.314   2.266  1.00  0.00     0.096 N
HETATM    9  C23 UNL     1      19.175   9.654   1.681  1.00  0.00     0.305 C
BRANCH   8  10
HETATM   10  C2  UNL     1      21.571   9.614   1.893  1.00  0.00     0.231 C
HETATM   11  C1  UNL     1      21.670   9.343   0.431  1.00  0.00     0.043 C
BRANCH  10  12
HETATM   12  C3  UNL     1      21.688   8.382   2.738  1.00  0.00     0.103 C
BRANCH  12  13
HETATM   13  C4  UNL     1      21.764   8.769   4.204  1.00  0.00     0.034 A
HETATM   14  C5  UNL     1      21.021   8.333   5.263  1.00  0.00     0.114 A
HETATM   15  N1  UNL     1      21.402   8.936   6.390  1.00  0.00    -0.360 N
HETATM   16  C6  UNL     1      22.396   9.761   6.040  1.00  0.00     0.180 A
ATOM     17  H1  UNL     1      21.017   8.797   7.324  1.00  0.00     0.166 HD
HETATM   18  N2  UNL     1      22.620   9.663   4.710  1.00  0.00    -0.354 N
ATOM     19  H2  UNL     1      23.322  10.182   4.184  1.00  0.00     0.166 HD
ENDBRANCH  12  13
BRANCH  12  20
HETATM   20  C7  UNL     1      22.877   7.519   2.516  1.00  0.00     0.062 C
HETATM   21  C8  UNL     1      23.040   6.854   1.202  1.00  0.00     0.046 C
HETATM   22  C9  UNL     1      22.814   6.397   3.563  1.00  0.00     0.046 C
BRANCH  20  23
HETATM   23  O1  UNL     1      24.065   8.222   2.785  1.00  0.00    -0.390 OA
ATOM     24  H1  UNL     1      24.814   7.638   2.778  1.00  0.00     0.210 HD
ENDBRANCH  20  23
ENDBRANCH  12  20
ENDBRANCH  10  12
ENDBRANCH   8  10
BRANCH   4  25
HETATM   25  N5  UNL     1      16.832  10.447   1.511  1.00  0.00    -0.314 N
HETATM   26  C16 UNL     1      15.668  10.646   2.204  1.00  0.00     0.186 A
HETATM   27  N6  UNL     1      14.644  10.491   1.361  1.00  0.00    -0.349 N
HETATM   28  C17 UNL     1      15.160  10.193   0.131  1.00  0.00     0.079 A
ATOM     29  H6  UNL     1      13.655  10.579   1.594  1.00  0.00     0.166 HD
HETATM   30  C18 UNL     1      14.532   9.947  -1.053  1.00  0.00     0.057 A
HETATM   31  C22 UNL     1      16.531  10.168   0.237  1.00  0.00     0.136 A
HETATM   32  C19 UNL     1      15.288   9.665  -2.174  1.00  0.00     0.062 A
HETATM   33  C20 UNL     1      14.688   9.395  -3.456  1.00  0.00     0.101 C
HETATM   34  C21 UNL     1      16.655   9.655  -2.003  1.00  0.00     0.112 A
HETATM   35  N7  UNL     1      14.214   9.167  -4.505  1.00  0.00    -0.191 NA
HETATM   36  N8  UNL     1      17.276   9.897  -0.840  1.00  0.00    -0.349 N
ATOM     37  H8  UNL     1      18.294   9.876  -0.778  1.00  0.00     0.167 HD
ENDBRANCH   4  25
ENDBRANCH   1   4
TORSDOF 7
ENDMDL