MODEL 1
REMARK VINA RESULT: -8.984328861      0.000      0.000
REMARK  7 active torsions:
REMARK  status: ('A' for Active; 'I' for Inactive)
REMARK    1  A    between atoms: C2_2  and  C3_4
REMARK    2  A    between atoms: C3_4  and  N1_5
REMARK    3  A    between atoms: C3_4  and  C4_9
REMARK    4  A    between atoms: C4_9  and  C5_10
REMARK    5  A    between atoms: C19_27  and  C20_28
REMARK    6  A    between atoms: C20_28  and  O5_29
REMARK    7  A    between atoms: O5_29  and  C21_30
ROOT
HETATM    1  C5  UNL     1      18.570   9.473   2.836  1.00  0.00     0.129 C
HETATM    2  C6  UNL     1      17.660  10.656   2.879  1.00  0.00     0.069 C
HETATM    3  C7  UNL     1      16.918  10.929   1.629  1.00  0.00     0.183 C
HETATM    4  O2  UNL     1      16.350   9.785   1.053  1.00  0.00    -0.344 OA
HETATM    5  C8  UNL     1      15.926  10.288  -0.151  1.00  0.00     0.172 C
HETATM    6  C9  UNL     1      14.516  10.889  -0.020  1.00  0.00     0.073 C
HETATM    7  C10 UNL     1      13.645  10.031  -0.972  1.00  0.00    -0.009 C
HETATM    8  C11 UNL     1      13.531  10.675  -2.244  1.00  0.00     0.010 C
HETATM    9  C12 UNL     1      13.827  10.078  -3.548  1.00  0.00    -0.010 A
HETATM   10  C13 UNL     1      14.044   8.719  -3.945  1.00  0.00     0.010 A
HETATM   11  C14 UNL     1      15.227   9.488  -3.698  1.00  0.00    -0.010 A
HETATM   12  C15 UNL     1      16.006   9.748  -2.492  1.00  0.00     0.015 C
HETATM   13  C16 UNL     1      15.739   9.157  -1.196  1.00  0.00     0.049 C
HETATM   14  C17 UNL     1      14.380   8.761  -0.781  1.00  0.00     0.014 C
HETATM   15  O3  UNL     1      16.830  11.225  -0.587  1.00  0.00    -0.322 OA
HETATM   16  C18 UNL     1      17.707  11.479   0.497  1.00  0.00     0.295 C
HETATM   17  O4  UNL     1      18.873  10.816   0.207  1.00  0.00    -0.327 OA
HETATM   18  C19 UNL     1      19.754  10.684   1.251  1.00  0.00     0.287 C
HETATM   19  O6  UNL     1      19.531   9.494   1.880  1.00  0.00    -0.354 OA
ENDROOT
BRANCH   1  20
HETATM   20  C4  UNL     1      19.225   9.275   4.182  1.00  0.00     0.072 C
BRANCH  20  21
HETATM   21  C3  UNL     1      19.140   7.882   4.698  1.00  0.00     0.254 C
BRANCH  21  22
HETATM   22  C2  UNL     1      20.560   7.397   4.866  1.00  0.00     0.153 C
HETATM   23  C1  UNL     1      21.713   8.301   4.687  1.00  0.00     0.093 C
HETATM   24  O1  UNL     1      20.776   6.229   5.160  1.00  0.00    -0.296 OA
ENDBRANCH  21  22
BRANCH  21  25
HETATM   25  N1  UNL     1      18.461   7.053   3.753  1.00  0.00    -0.068 N
ATOM     26  H13 UNL     1      17.996   7.598   3.026  1.00  0.00     0.275 HD
ATOM     27  H12 UNL     1      19.108   6.537   3.157  1.00  0.00     0.275 HD
ATOM     28  H11 UNL     1      17.814   6.435   4.243  1.00  0.00     0.275 HD
ENDBRANCH  21  25
ENDBRANCH  20  21
ENDBRANCH   1  20
BRANCH  18  29
HETATM   29  C20 UNL     1      21.209  10.663   0.755  1.00  0.00     0.228 C
BRANCH  29  30
HETATM   30  O5  UNL     1      21.388   9.509  -0.038  1.00  0.00    -0.382 OA
BRANCH  30  31
HETATM   31  C21 UNL     1      22.598   8.933   0.239  1.00  0.00     0.113 C
HETATM   32  C22 UNL     1      23.340   8.523  -1.031  1.00  0.00     0.039 C
HETATM   33  C23 UNL     1      22.328   7.642   1.017  1.00  0.00     0.039 C
ENDBRANCH  30  31
ENDBRANCH  29  30
ENDBRANCH  18  29
TORSDOF 7
ENDMDL