MODEL 1
REMARK VINA RESULT: -8.219689876      0.000      0.000
REMARK  10 active torsions:
REMARK  status: ('A' for Active; 'I' for Inactive)
REMARK    1  A    between atoms: C2_2  and  C4_4
REMARK    2  A    between atoms: C4_4  and  C5_5
REMARK    3  A    between atoms: C5_5  and  C6_6
REMARK    4  A    between atoms: C6_6  and  O2_8
REMARK    5  A    between atoms: O2_8  and  C7_9
REMARK    6  A    between atoms: C9_11  and  O3_12
REMARK    7  A    between atoms: C16_21  and  C17_22
REMARK    8  A    between atoms: C17_22  and  O6_24
REMARK    9  A    between atoms: O6_24  and  C18_25
REMARK   10  A    between atoms: C21_28  and  O7_29
ROOT
HETATM    1  C7  UNL     1      17.659  10.954   1.734  1.00  0.00     0.145 C
HETATM    2  C8  UNL     1      17.330  11.536   0.398  1.00  0.00     0.066 C
HETATM    3  C9  UNL     1      16.901  10.409  -0.501  1.00  0.00     0.128 C
HETATM    4  C10 UNL     1      15.580   9.921   0.018  1.00  0.00    -0.017 C
HETATM    5  C11 UNL     1      14.540  10.977  -0.295  1.00  0.00     0.018 C
HETATM    6  C12 UNL     1      15.196   8.725  -0.872  1.00  0.00     0.018 C
HETATM    7  C13 UNL     1      15.597   9.501   1.448  1.00  0.00     0.016 C
HETATM    8  C14 UNL     1      14.132   9.548   1.919  1.00  0.00     0.085 C
HETATM    9  C15 UNL     1      14.155   9.325   3.413  1.00  0.00     0.143 C
HETATM   10  O4  UNL     1      13.727   8.341   3.945  1.00  0.00    -0.297 OA
HETATM   11  C16 UNL     1      14.773  10.481   4.147  1.00  0.00     0.184 C
HETATM   12  C21 UNL     1      15.938  11.036   3.421  1.00  0.00     0.150 C
HETATM   13  C22 UNL     1      16.539  10.141   2.359  1.00  0.00     0.015 C
HETATM   14  C23 UNL     1      17.304   9.065   3.163  1.00  0.00     0.021 C
ENDROOT
BRANCH   1  15
HETATM   15  O2  UNL     1      18.859  10.198   1.602  1.00  0.00    -0.315 OA
BRANCH  15  16
HETATM   16  C6  UNL     1      20.127  10.786   1.597  1.00  0.00     0.259 C
HETATM   17  O1  UNL     1      20.258  11.774   2.356  1.00  0.00    -0.265 OA
BRANCH  16  18
HETATM   18  C5  UNL     1      21.226  10.272   0.756  1.00  0.00     0.111 C
BRANCH  18  19
HETATM   19  C4  UNL     1      21.355   8.789   0.920  1.00  0.00     0.013 C
BRANCH  19  20
HETATM   20  C2  UNL     1      22.768   8.328   0.904  1.00  0.00    -0.022 C
HETATM   21  C1  UNL     1      23.230   8.394  -0.563  1.00  0.00     0.009 C
HETATM   22  C3  UNL     1      22.910   6.886   1.367  1.00  0.00     0.009 C
ENDBRANCH  19  20
ENDBRANCH  18  19
ENDBRANCH  16  18
ENDBRANCH  15  16
ENDBRANCH   1  15
BRANCH   3  23
HETATM   23  O3  UNL     1      17.863   9.427  -0.559  1.00  0.00    -0.395 OA
ATOM     24  H3  UNL     1      18.032   9.165  -1.456  1.00  0.00     0.210 HD
ENDBRANCH   3  23
BRANCH  12  25
HETATM   25  O7  UNL     1      15.713  12.342   2.931  1.00  0.00    -0.393 OA
ATOM     26  H7  UNL     1      16.333  12.599   2.259  1.00  0.00     0.210 HD
ENDBRANCH  12  25
BRANCH  11  27
HETATM   27  C17 UNL     1      15.062  10.148   5.565  1.00  0.00     0.273 C
HETATM   28  O5  UNL     1      16.059   9.416   5.890  1.00  0.00    -0.264 OA
BRANCH  27  29
HETATM   29  O6  UNL     1      14.293  10.594   6.619  1.00  0.00    -0.316 OA
BRANCH  29  30
HETATM   30  C18 UNL     1      13.941   9.750   7.717  1.00  0.00     0.123 C
HETATM   31  C19 UNL     1      13.387  10.678   8.806  1.00  0.00     0.040 C
HETATM   32  C20 UNL     1      12.947   8.697   7.364  1.00  0.00     0.040 C
ENDBRANCH  29  30
ENDBRANCH  27  29
ENDBRANCH  11  27
TORSDOF 10
ENDMDL