MODEL 3
REMARK VINA RESULT: -8.352168373      3.528      7.419
REMARK  9 active torsions:
REMARK  status: ('A' for Active; 'I' for Inactive)
REMARK    1  A    between atoms: O1_2  and  C2_3
REMARK       I    between atoms: C2_3  and  N1_5
REMARK    2  A    between atoms: N1_5  and  C3_7
REMARK    3  A    between atoms: C3_7  and  C4_8
REMARK    4  A    between atoms: C4_8  and  O3_9
REMARK    5  A    between atoms: O3_9  and  N2_10
REMARK    6  A    between atoms: C9_16  and  O4_17
REMARK    7  A    between atoms: O4_17  and  C10_18
REMARK    8  A    between atoms: C10_18  and  C11_20
REMARK    9  A    between atoms: C11_20  and  O6_21
ROOT
HETATM    1  N2  UNL     1      17.705  12.322   2.760  1.00  0.00    -0.275 N
ATOM      2  H2  UNL     1      17.719  12.873   3.618  1.00  0.00     0.193 HD
HETATM    3  C5  UNL     1      16.714  11.587   2.700  1.00  0.00     0.011 C
HETATM    4  C6  UNL     1      16.403  10.662   1.585  1.00  0.00     0.059 C
HETATM    5  C7  UNL     1      14.934  10.650   1.363  1.00  0.00    -0.002 C
HETATM    6  C8  UNL     1      14.696  10.572  -0.125  1.00  0.00     0.038 C
HETATM    7  C9  UNL     1      15.175   9.206  -0.560  1.00  0.00     0.132 C
HETATM    8  C12 UNL     1      14.388   8.185   0.136  1.00  0.00     0.037 C
HETATM    9  C13 UNL     1      14.306   8.245   1.618  1.00  0.00    -0.011 C
HETATM   10  C14 UNL     1      13.094   7.362   1.965  1.00  0.00     0.010 C
HETATM   11  C15 UNL     1      14.139   9.652   2.146  1.00  0.00    -0.001 C
HETATM   12  C16 UNL     1      14.174   9.835   3.588  1.00  0.00    -0.001 C
HETATM   13  C17 UNL     1      13.871   8.647   4.445  1.00  0.00     0.006 C
HETATM   14  C18 UNL     1      14.051   9.216   5.847  1.00  0.00     0.001 C
HETATM   15  C19 UNL     1      14.798  10.510   5.699  1.00  0.00     0.010 C
HETATM   16  C20 UNL     1      15.387  10.357   4.277  1.00  0.00    -0.035 C
HETATM   17  C21 UNL     1      16.539   9.444   4.403  1.00  0.00     0.016 C
HETATM   18  C22 UNL     1      15.809  11.731   3.909  1.00  0.00     0.064 C
ENDROOT
BRANCH   1  19
HETATM   19  O3  UNL     1      18.765  12.578   1.981  1.00  0.00    -0.279 OA
BRANCH  19  20
HETATM   20  C4  UNL     1      19.215  11.724   0.978  1.00  0.00     0.220 C
BRANCH  20  21
HETATM   21  C3  UNL     1      20.313  10.795   1.308  1.00  0.00     0.153 C
BRANCH  21  22
HETATM   22  N1  UNL     1      21.096  10.300   0.228  1.00  0.00    -0.335 N
HETATM   23  C2  UNL     1      21.787   9.077   0.151  1.00  0.00     0.360 C
HETATM   24  O2  UNL     1      21.773   8.252   1.089  1.00  0.00    -0.239 OA
ATOM     25  H1  UNL     1      21.165  10.907  -0.589  1.00  0.00     0.164 HD
BRANCH  23  26
HETATM   26  O1  UNL     1      22.520   8.766  -1.020  1.00  0.00    -0.309 OA
HETATM   27  C1  UNL     1      23.674   7.982  -0.869  1.00  0.00     0.215 C
ENDBRANCH  23  26
ENDBRANCH  21  22
ENDBRANCH  20  21
ENDBRANCH  19  20
ENDBRANCH   1  19
BRANCH   7  28
HETATM   28  O4  UNL     1      14.815   9.131  -1.953  1.00  0.00    -0.314 OA
BRANCH  28  29
HETATM   29  C10 UNL     1      15.561   9.780  -2.918  1.00  0.00     0.282 C
HETATM   30  O5  UNL     1      16.765  10.031  -2.578  1.00  0.00    -0.263 OA
BRANCH  29  31
HETATM   31  C11 UNL     1      15.038  10.169  -4.254  1.00  0.00     0.275 C
BRANCH  31  32
HETATM   32  O6  UNL     1      15.988   9.801  -5.228  1.00  0.00    -0.391 OA
ATOM     33  H6  UNL     1      16.670  10.462  -5.246  1.00  0.00     0.210 HD
ENDBRANCH  31  32
ENDBRANCH  29  31
ENDBRANCH  28  29
ENDBRANCH   7  28
TORSDOF 9
ENDMDL