MODEL 4
REMARK VINA RESULT: -7.626620933      2.528      3.522
REMARK  9 active torsions:
REMARK  status: ('A' for Active; 'I' for Inactive)
REMARK    1  A    between atoms: C2_2  and  O2_4
REMARK    2  A    between atoms: O2_4  and  C3_5
REMARK    3  A    between atoms: C4_6  and  O3_7
REMARK    4  A    between atoms: O3_7  and  C5_8
REMARK    5  A    between atoms: C5_8  and  C6_9
REMARK    6  A    between atoms: C6_9  and  C7_10
REMARK    7  A    between atoms: C7_10  and  C8_11
REMARK    8  A    between atoms: C8_11  and  N1_12
REMARK    9  A    between atoms: C9_16  and  O4_17
ROOT
HETATM    1  C3  UNL     1      17.655  10.101   1.917  1.00  0.00     0.089 C
HETATM    2  C4  UNL     1      17.578   9.469   3.115  1.00  0.00     0.105 C
HETATM    3  C9  UNL     1      18.822   9.573   3.922  1.00  0.00     0.182 C
HETATM    4  C10 UNL     1      19.946   9.036   3.056  1.00  0.00     0.038 C
HETATM    5  C11 UNL     1      20.149   9.956   1.894  1.00  0.00    -0.031 C
HETATM    6  C12 UNL     1      20.381   9.102   0.633  1.00  0.00     0.016 C
HETATM    7  C13 UNL     1      21.232  10.970   2.064  1.00  0.00     0.010 C
HETATM    8  C14 UNL     1      22.146  10.750   3.223  1.00  0.00     0.007 C
HETATM    9  C15 UNL     1      22.378   9.278   3.327  1.00  0.00     0.010 C
HETATM   10  C16 UNL     1      23.675   8.942   3.908  1.00  0.00     0.120 C
HETATM   11  C17 UNL     1      24.064   9.304   5.256  1.00  0.00     0.266 C
HETATM   12  O5  UNL     1      24.073  10.275   6.040  1.00  0.00    -0.265 OA
HETATM   13  O6  UNL     1      24.504   7.971   5.411  1.00  0.00    -0.315 OA
HETATM   14  C18 UNL     1      23.882   7.496   4.205  1.00  0.00     0.145 C
HETATM   15  C19 UNL     1      22.660   6.680   4.369  1.00  0.00     0.034 C
HETATM   16  C20 UNL     1      21.480   7.106   3.534  1.00  0.00     0.012 C
HETATM   17  C21 UNL     1      21.154   8.595   3.803  1.00  0.00    -0.032 C
HETATM   18  C22 UNL     1      20.852   8.632   5.267  1.00  0.00     0.016 C
HETATM   19  C23 UNL     1      18.894  10.771   1.592  1.00  0.00     0.077 C
ENDROOT
BRANCH   2  20
HETATM   20  O3  UNL     1      16.422   8.834   3.435  1.00  0.00    -0.350 OA
BRANCH  20  21
HETATM   21  C5  UNL     1      15.393   9.208   4.259  1.00  0.00     0.175 C
BRANCH  21  22
HETATM   22  C6  UNL     1      14.125   9.647   3.624  1.00  0.00     0.028 C
BRANCH  22  23
HETATM   23  C7  UNL     1      13.347   8.545   2.938  1.00  0.00     0.029 C
BRANCH  23  24
HETATM   24  C8  UNL     1      13.528   8.590   1.435  1.00  0.00     0.230 C
BRANCH  24  25
HETATM   25  N1  UNL     1      14.626   7.707   1.102  1.00  0.00    -0.079 N
ATOM     26  H13 UNL     1      15.414   7.793   1.744  1.00  0.00     0.274 HD
ATOM     27  H12 UNL     1      14.415   6.725   1.280  1.00  0.00     0.274 HD
ATOM     28  H11 UNL     1      14.882   7.888   0.132  1.00  0.00     0.274 HD
ENDBRANCH  24  25
ENDBRANCH  23  24
ENDBRANCH  22  23
ENDBRANCH  21  22
ENDBRANCH  20  21
ENDBRANCH   2  20
BRANCH   1  29
HETATM   29  O2  UNL     1      16.540  10.046   1.115  1.00  0.00    -0.281 OA
BRANCH  29  30
HETATM   30  C2  UNL     1      16.609  10.538  -0.171  1.00  0.00     0.259 C
HETATM   31  C1  UNL     1      17.134   9.785  -1.333  1.00  0.00     0.126 C
HETATM   32  O1  UNL     1      16.194  11.704  -0.344  1.00  0.00    -0.265 OA
ENDBRANCH  29  30
ENDBRANCH   1  29
BRANCH   3  33
HETATM   33  O4  UNL     1      18.965  10.914   4.246  1.00  0.00    -0.388 OA
ATOM     34  H4  UNL     1      18.320  11.096   4.919  1.00  0.00     0.210 HD
ENDBRANCH   3  33
TORSDOF 9
ENDMDL