MODEL 4
REMARK VINA RESULT: -8.144555875      3.244      6.315
REMARK  10 active torsions:
REMARK  status: ('A' for Active; 'I' for Inactive)
REMARK    1  A    between atoms: C4_4  and  C5_5
REMARK    2  A    between atoms: C5_5  and  C6_6
REMARK    3  A    between atoms: C6_6  and  C7_7
REMARK    4  A    between atoms: C7_7  and  O2_9
REMARK    5  A    between atoms: O2_9  and  C8_10
REMARK    6  A    between atoms: C15_19  and  O5_20
REMARK    7  A    between atoms: C18_24  and  O6_25
REMARK    8  A    between atoms: C18_24  and  C19_27
REMARK    9  A    between atoms: C20_28  and  C21_29
REMARK   10  A    between atoms: C21_29  and  O8_31
ROOT
HETATM    1  C1  UNL     1      22.397   7.607   0.965  1.00  0.00     0.036 C
HETATM    2  C2  UNL     1      21.862   8.032   2.282  1.00  0.00    -0.027 C
HETATM    3  C3  UNL     1      20.789   8.766   2.432  1.00  0.00    -0.071 C
HETATM    4  C4  UNL     1      19.789   9.403   1.539  1.00  0.00     0.024 C
HETATM    5  C10 UNL     1      19.555  10.434   2.666  1.00  0.00    -0.026 C
HETATM    6  C11 UNL     1      20.577  11.582   2.582  1.00  0.00     0.016 C
HETATM    7  C12 UNL     1      18.218  10.969   2.565  1.00  0.00     0.013 C
HETATM    8  C13 UNL     1      17.492  11.218   3.876  1.00  0.00     0.042 C
HETATM    9  C14 UNL     1      16.123  10.573   3.851  1.00  0.00     0.225 C
HETATM   10  O3  UNL     1      15.137  11.328   4.503  1.00  0.00    -0.227 OA
HETATM   11  O4  UNL     1      15.646  10.901   5.641  1.00  0.00    -0.197 OA
HETATM   12  C15 UNL     1      15.865   9.683   5.016  1.00  0.00     0.224 C
HETATM   13  C16 UNL     1      17.069   8.914   5.472  1.00  0.00     0.077 C
HETATM   14  C17 UNL     1      17.721   8.333   4.229  1.00  0.00     0.048 C
HETATM   15  C18 UNL     1      19.199   8.428   4.283  1.00  0.00     0.084 C
HETATM   16  C23 UNL     1      19.975   9.378   3.548  1.00  0.00     0.061 C
ENDROOT
BRANCH  15  17
HETATM   17  O6  UNL     1      19.492   8.535   5.678  1.00  0.00    -0.385 OA
ATOM     18  H6  UNL     1      19.647   9.464   5.812  1.00  0.00     0.211 HD
ENDBRANCH  15  17
BRANCH  15  19
HETATM   19  C19 UNL     1      19.716   7.054   3.939  1.00  0.00     0.017 C
HETATM   20  C20 UNL     1      19.816   6.062   4.784  1.00  0.00     0.081 C
BRANCH  20  21
HETATM   21  C21 UNL     1      20.318   4.761   4.408  1.00  0.00     0.282 C
HETATM   22  O7  UNL     1      21.506   4.477   4.653  1.00  0.00    -0.260 OA
BRANCH  21  23
HETATM   23  O8  UNL     1      19.525   3.819   3.789  1.00  0.00    -0.323 OA
HETATM   24  C22 UNL     1      20.119   2.818   2.956  1.00  0.00     0.213 C
ENDBRANCH  21  23
ENDBRANCH  20  21
ENDBRANCH  15  19
BRANCH  12  25
HETATM   25  O5  UNL     1      14.773   8.876   4.831  1.00  0.00    -0.361 OA
ATOM     26  H5  UNL     1      14.876   8.024   5.240  1.00  0.00     0.213 HD
ENDBRANCH  12  25
BRANCH   4  27
HETATM   27  C5  UNL     1      20.276   9.902   0.245  1.00  0.00     0.019 C
BRANCH  27  28
HETATM   28  C6  UNL     1      19.257   9.695  -0.834  1.00  0.00     0.112 C
BRANCH  28  29
HETATM   29  C7  UNL     1      18.435  10.951  -1.025  1.00  0.00     0.258 C
HETATM   30  O1  UNL     1      18.836  12.062  -0.645  1.00  0.00    -0.265 OA
BRANCH  29  31
HETATM   31  O2  UNL     1      17.222  10.827  -1.637  1.00  0.00    -0.322 OA
BRANCH  31  32
HETATM   32  C8  UNL     1      16.295   9.859  -1.160  1.00  0.00     0.174 C
HETATM   33  C9  UNL     1      15.544  10.435   0.006  1.00  0.00     0.034 C
ENDBRANCH  31  32
ENDBRANCH  29  31
ENDBRANCH  28  29
ENDBRANCH  27  28
ENDBRANCH   4  27
TORSDOF 10
ENDMDL