MODEL 1
REMARK VINA RESULT: -7.671367899      0.000      0.000
REMARK  10 active torsions:
REMARK  status: ('A' for Active; 'I' for Inactive)
REMARK    1  A    between atoms: C2_2  and  C4_4
REMARK    2  A    between atoms: C4_4  and  C5_6
REMARK    3  A    between atoms: C6_7  and  C7_8
REMARK    4  A    between atoms: C7_8  and  O2_9
REMARK    5  A    between atoms: O2_9  and  C8_10
REMARK    6  A    between atoms: C8_10  and  C9_12
REMARK    7  A    between atoms: C18_21  and  C19_22
REMARK    8  A    between atoms: C20_26  and  C21_27
REMARK    9  A    between atoms: C21_27  and  O5_28
REMARK   10  A    between atoms: C22_30  and  O6_31
ROOT
HETATM    1  C9  UNL     1      24.325   6.791   5.283  1.00  0.00     0.049 C
HETATM    2  C10 UNL     1      24.184   5.324   5.721  1.00  0.00     0.026 C
HETATM    3  C11 UNL     1      25.197   7.438   6.370  1.00  0.00     0.020 C
HETATM    4  C12 UNL     1      24.302   7.923   7.481  1.00  0.00     0.002 C
HETATM    5  C13 UNL     1      23.483   9.127   7.050  1.00  0.00     0.010 C
HETATM    6  C14 UNL     1      22.949   8.866   5.662  1.00  0.00    -0.035 C
HETATM    7  C15 UNL     1      23.617   9.743   4.674  1.00  0.00     0.016 C
HETATM    8  C16 UNL     1      21.433   9.117   5.582  1.00  0.00     0.043 C
HETATM    9  C17 UNL     1      20.932   8.083   4.662  1.00  0.00    -0.077 C
HETATM   10  C18 UNL     1      19.726   7.817   4.323  1.00  0.00     0.032 C
HETATM   11  C23 UNL     1      22.130   7.309   4.142  1.00  0.00     0.041 C
HETATM   12  C24 UNL     1      22.997   7.408   5.370  1.00  0.00     0.016 C
ENDROOT
BRANCH   1  13
HETATM   13  C8  UNL     1      25.005   6.868   3.991  1.00  0.00     0.268 C
HETATM   14  O3  UNL     1      25.954   7.670   3.830  1.00  0.00    -0.264 OA
BRANCH  13  15
HETATM   15  O2  UNL     1      24.647   6.084   2.919  1.00  0.00    -0.317 OA
BRANCH  15  16
HETATM   16  C7  UNL     1      24.774   6.403   1.561  1.00  0.00     0.206 C
BRANCH  16  17
HETATM   17  C6  UNL     1      23.650   7.146   0.967  1.00  0.00     0.004 C
HETATM   18  C5  UNL     1      23.392   8.420   1.067  1.00  0.00     0.053 C
BRANCH  18  19
HETATM   19  C4  UNL     1      22.251   9.067   0.444  1.00  0.00     0.176 C
HETATM   20  O1  UNL     1      22.194   9.021  -0.835  1.00  0.00    -0.288 OA
BRANCH  19  21
HETATM   21  C2  UNL     1      21.190   9.751   1.141  1.00  0.00    -0.021 C
HETATM   22  C1  UNL     1      19.940   9.417   0.916  1.00  0.00     0.022 C
HETATM   23  C3  UNL     1      21.477  10.831   2.111  1.00  0.00     0.051 C
ENDBRANCH  19  21
ENDBRANCH  18  19
ENDBRANCH  16  17
ENDBRANCH  15  16
ENDBRANCH  13  15
ENDBRANCH   1  13
BRANCH  10  24
HETATM   24  C19 UNL     1      18.515   8.508   4.794  1.00  0.00     0.063 C
HETATM   25  N1  UNL     1      17.955   8.253   5.954  1.00  0.00    -0.268 N
HETATM   26  O4  UNL     1      16.850   9.006   6.178  1.00  0.00    -0.270 OA
ATOM     27  H1  UNL     1      18.313   7.562   6.615  1.00  0.00     0.194 HD
HETATM   28  C20 UNL     1      16.363   9.464   4.905  1.00  0.00     0.210 C
HETATM   29  C22 UNL     1      17.712   9.569   4.164  1.00  0.00     0.203 C
BRANCH  28  30
HETATM   30  C21 UNL     1      15.705  10.800   5.014  1.00  0.00     0.201 C
BRANCH  30  31
HETATM   31  O5  UNL     1      15.431  11.237   3.707  1.00  0.00    -0.398 OA
ATOM     32  H5  UNL     1      14.703  10.720   3.385  1.00  0.00     0.209 HD
ENDBRANCH  30  31
ENDBRANCH  28  30
BRANCH  29  33
HETATM   33  O6  UNL     1      18.184  10.854   4.543  1.00  0.00    -0.387 OA
ATOM     34  H6  UNL     1      17.465  11.471   4.613  1.00  0.00     0.210 HD
ENDBRANCH  29  33
ENDBRANCH  10  24
TORSDOF 10
ENDMDL