MODEL 4
REMARK VINA RESULT: -9.376569742      1.147      2.187
REMARK  9 active torsions:
REMARK  status: ('A' for Active; 'I' for Inactive)
REMARK    1  A    between atoms: S1_2  and  N1_4
REMARK    2  A    between atoms: S1_2  and  C20_32
REMARK    3  A    between atoms: N1_4  and  C1_6
REMARK    4  A    between atoms: C1_6  and  C2_7
REMARK    5  A    between atoms: C2_7  and  C3_8
REMARK    6  A    between atoms: C3_8  and  C4_9
REMARK    7  A    between atoms: C4_9  and  N2_10
REMARK    8  A    between atoms: C7_13  and  C8_14
REMARK    9  A    between atoms: C17_27  and  O3_28
ROOT
HETATM    1  C1  UNL     1      20.680   2.631 -22.489  1.00  0.00     0.041 C
HETATM    2  C15 UNL     1      21.299   1.168 -22.729  1.00  0.00     0.034 C
HETATM    3  C16 UNL     1      20.875   0.760 -24.138  1.00  0.00     0.034 C
HETATM    4  C17 UNL     1      21.607   1.643 -25.086  1.00  0.00     0.118 C
HETATM    5  C18 UNL     1      22.348   2.743 -24.387  1.00  0.00     0.034 C
HETATM    6  C19 UNL     1      21.551   3.467 -23.320  1.00  0.00     0.034 C
ENDROOT
BRANCH   1   7
HETATM    7  N1  UNL     1      19.372   2.376 -22.739  1.00  0.00    -0.305 N
ATOM      8  H1  UNL     1      19.082   1.497 -22.309  1.00  0.00     0.173 HD
BRANCH   7   9
HETATM    9  S1  UNL     1      18.151   3.061 -23.519  1.00  0.00     0.266 S
HETATM   10  O1  UNL     1      18.192   3.067 -25.040  1.00  0.00    -0.200 OA
HETATM   11  O2  UNL     1      16.861   2.246 -23.272  1.00  0.00    -0.200 OA
BRANCH   9  12
HETATM   12  C20 UNL     1      17.755   4.690 -23.063  1.00  0.00     0.121 A
HETATM   13  C21 UNL     1      16.745   5.160 -22.264  1.00  0.00     0.035 A
HETATM   14  C22 UNL     1      16.685   6.461 -21.995  1.00  0.00     0.033 A
HETATM   15  C23 UNL     1      17.660   7.258 -22.547  1.00  0.00     0.075 A
HETATM   16 CL3  UNL     1      17.851   9.022 -22.352  1.00  0.00    -0.076 Cl
HETATM   17  S2  UNL     1      18.611   6.158 -23.417  1.00  0.00    -0.064 SA
ENDBRANCH   9  12
ENDBRANCH   7   9
ENDBRANCH   1   7
BRANCH   1  18
HETATM   18  C2  UNL     1      20.998   2.818 -21.031  1.00  0.00     0.033 C
BRANCH  18  19
HETATM   19  C3  UNL     1      21.186   1.554 -20.260  1.00  0.00     0.033 C
BRANCH  19  20
HETATM   20  C4  UNL     1      19.938   1.203 -19.486  1.00  0.00     0.272 C
BRANCH  20  21
HETATM   21  N2  UNL     1      20.091   0.038 -18.636  1.00  0.00     0.089 N
HETATM   22  C5  UNL     1      21.407  -0.189 -18.152  1.00  0.00     0.276 C
HETATM   23  C6  UNL     1      21.973  -1.520 -18.487  1.00  0.00     0.065 C
HETATM   24  C7  UNL     1      21.690  -1.898 -19.902  1.00  0.00    -0.063 C
HETATM   25  C13 UNL     1      20.347  -1.659 -20.415  1.00  0.00     0.065 C
HETATM   26  C14 UNL     1      19.460  -1.060 -19.309  1.00  0.00     0.276 C
BRANCH  24  27
HETATM   27  C8  UNL     1      22.571  -2.923 -20.451  1.00  0.00     0.013 A
HETATM   28  C9  UNL     1      23.792  -2.672 -21.090  1.00  0.00     0.061 A
HETATM   29 CL1  UNL     1      24.207  -1.053 -21.554  1.00  0.00    -0.082 Cl
HETATM   30  C10 UNL     1      24.672  -3.664 -21.452  1.00  0.00     0.112 A
HETATM   31  N3  UNL     1      24.387  -4.949 -21.203  1.00  0.00    -0.372 N
HETATM   32  C11 UNL     1      23.253  -5.270 -20.604  1.00  0.00     0.112 A
ATOM     33  H3  UNL     1      25.045  -5.680 -21.476  1.00  0.00     0.164 HD
HETATM   34  C12 UNL     1      22.373  -4.303 -20.236  1.00  0.00     0.061 A
HETATM   35 CL2  UNL     1      20.917  -4.805 -19.393  1.00  0.00    -0.082 Cl
ENDBRANCH  24  27
ENDBRANCH  20  21
ENDBRANCH  19  20
ENDBRANCH  18  19
ENDBRANCH   1  18
BRANCH   4  36
HETATM   36  O3  UNL     1      20.846   2.084 -26.163  1.00  0.00    -0.396 OA
ATOM     37  H3  UNL     1      19.912   2.123 -25.993  1.00  0.00     0.210 HD
ENDBRANCH   4  36
TORSDOF 9
ENDMDL