MODEL 1
REMARK VINA RESULT: -9.051228423      0.000      0.000
REMARK  10 active torsions:
REMARK  status: ('A' for Active; 'I' for Inactive)
REMARK    1  A    between atoms: C7_8  and  C8_9
REMARK    2  A    between atoms: C8_9  and  C9_10
REMARK    3  A    between atoms: C9_10  and  C10_11
REMARK    4  A    between atoms: C10_11  and  O2_13
REMARK    5  A    between atoms: O2_13  and  C11_14
REMARK    6  A    between atoms: C15_19  and  O4_21
REMARK    7  A    between atoms: C22_30  and  C23_31
REMARK    8  A    between atoms: C23_31  and  C24_32
REMARK    9  A    between atoms: C24_32  and  C25_33
REMARK   10  A    between atoms: C28_37  and  C29_38
ROOT
HETATM    1  C1  UNL     1      20.239  -1.324 -17.763  1.00  0.00     0.018 C
HETATM    2  C2  UNL     1      20.505  -1.188 -19.033  1.00  0.00    -0.047 C
HETATM    3  C3  UNL     1      19.527  -1.727 -20.039  1.00  0.00     0.199 C
HETATM    4  F1  UNL     1      18.364  -2.158 -19.438  1.00  0.00    -0.245 F
HETATM    5  C4  UNL     1      19.278  -0.649 -21.084  1.00  0.00     0.047 C
HETATM    6  C5  UNL     1      19.667   0.731 -20.650  1.00  0.00     0.003 C
HETATM    7  C6  UNL     1      19.345   1.677 -21.817  1.00  0.00     0.014 C
HETATM    8  C7  UNL     1      17.858   1.893 -21.816  1.00  0.00     0.061 C
HETATM    9  C13 UNL     1      17.586   3.279 -21.339  1.00  0.00     0.134 C
HETATM   10  O3  UNL     1      16.934   3.492 -20.355  1.00  0.00    -0.297 OA
HETATM   11  C14 UNL     1      18.146   4.404 -22.117  1.00  0.00     0.116 C
HETATM   12  C15 UNL     1      19.594   4.113 -22.460  1.00  0.00     0.070 C
HETATM   13  C16 UNL     1      20.377   5.360 -22.015  1.00  0.00     0.047 C
HETATM   14  C17 UNL     1      20.059   2.995 -21.568  1.00  0.00     0.097 C
HETATM   15  C18 UNL     1      21.534   2.807 -21.671  1.00  0.00     0.251 C
HETATM   16  F2  UNL     1      22.269   3.790 -21.036  1.00  0.00    -0.206 F
HETATM   17  F3  UNL     1      21.876   2.900 -23.016  1.00  0.00    -0.206 F
HETATM   18  C19 UNL     1      21.994   1.462 -21.136  1.00  0.00     0.090 C
HETATM   19  C20 UNL     1      21.061   0.896 -20.130  1.00  0.00    -0.024 C
HETATM   20  C21 UNL     1      20.988   1.726 -18.852  1.00  0.00     0.016 C
HETATM   21  C22 UNL     1      21.646  -0.469 -19.637  1.00  0.00     0.048 C
ENDROOT
BRANCH  21  22
HETATM   22  C23 UNL     1      22.473  -1.116 -20.611  1.00  0.00    -0.016 C
BRANCH  22  23
HETATM   23  C24 UNL     1      23.584  -1.986 -20.272  1.00  0.00     0.011 C
BRANCH  23  24
HETATM   24  C25 UNL     1      23.669  -3.411 -20.501  1.00  0.00     0.006 A
HETATM   25  C26 UNL     1      24.491  -4.004 -21.484  1.00  0.00     0.039 A
HETATM   26  C27 UNL     1      24.284  -5.348 -21.449  1.00  0.00     0.143 A
HETATM   27  O5  UNL     1      23.409  -5.591 -20.526  1.00  0.00    -0.315 OA
HETATM   28  C28 UNL     1      23.003  -4.481 -19.920  1.00  0.00     0.161 A
BRANCH  28  29
HETATM   29  C29 UNL     1      22.031  -4.436 -18.833  1.00  0.00     0.235 C
HETATM   30  O6  UNL     1      20.853  -4.779 -19.004  1.00  0.00    -0.642 OA
HETATM   31  O7  UNL     1      22.441  -4.000 -17.589  1.00  0.00    -0.642 OA
ENDBRANCH  28  29
ENDBRANCH  23  24
ENDBRANCH  22  23
ENDBRANCH  21  22
BRANCH   8  32
HETATM   32  C8  UNL     1      17.154   1.799 -23.118  1.00  0.00     0.022 C
BRANCH  32  33
HETATM   33  C9  UNL     1      17.679   0.892 -24.160  1.00  0.00     0.112 C
BRANCH  33  34
HETATM   34  C10 UNL     1      18.536   1.716 -25.063  1.00  0.00     0.258 C
HETATM   35  O1  UNL     1      18.161   2.819 -25.545  1.00  0.00    -0.265 OA
BRANCH  34  36
HETATM   36  O2  UNL     1      19.784   1.264 -25.391  1.00  0.00    -0.322 OA
BRANCH  36  37
HETATM   37  C11 UNL     1      20.234  -0.071 -25.313  1.00  0.00     0.174 C
HETATM   38  C12 UNL     1      21.245  -0.163 -24.172  1.00  0.00     0.034 C
ENDBRANCH  36  37
ENDBRANCH  34  36
ENDBRANCH  33  34
ENDBRANCH  32  33
ENDBRANCH   8  32
BRANCH  12  39
HETATM   39  O4  UNL     1      19.864   3.960 -23.785  1.00  0.00    -0.389 OA
ATOM     40  H4  UNL     1      20.487   3.276 -24.000  1.00  0.00     0.210 HD
ENDBRANCH  12  39
TORSDOF 10
ENDMDL