MODEL 4
REMARK VINA RESULT: -9.589135391      2.038      3.348
REMARK  9 active torsions:
REMARK  status: ('A' for Active; 'I' for Inactive)
REMARK    1  A    between atoms: N1_5  and  C5_6
REMARK    2  A    between atoms: N2_9  and  C8_10
REMARK    3  A    between atoms: C9_11  and  C10_12
REMARK    4  A    between atoms: C10_12  and  O1_13
REMARK    5  A    between atoms: C10_12  and  C11_15
REMARK    6  A    between atoms: C10_12  and  C17_24
REMARK    7  A    between atoms: N3_29  and  C22_30
REMARK    8  A    between atoms: C22_30  and  C23_31
REMARK    9  A    between atoms: C31_39  and  N4_40
ROOT
HETATM    1  C10 UNL     1      20.237   0.656 -21.166  1.00  0.00     0.131 C
ENDROOT
BRANCH   1   2
HETATM    2  C9  UNL     1      19.265   1.561 -20.527  1.00  0.00     0.035 C
HETATM    3  C8  UNL     1      18.182   2.324 -21.052  1.00  0.00     0.089 C
BRANCH   3   4
HETATM    4  N2  UNL     1      18.275   3.391 -21.945  1.00  0.00    -0.370 N
HETATM    5  C7  UNL     1      19.408   4.204 -21.999  1.00  0.00     0.065 C
HETATM    6  C6  UNL     1      19.003   5.628 -21.636  1.00  0.00     0.071 C
HETATM    7  C5  UNL     1      18.331   6.170 -22.905  1.00  0.00     0.113 C
HETATM    8  C30 UNL     1      17.325   5.148 -23.312  1.00  0.00     0.047 C
HETATM    9  C29 UNL     1      17.065   4.111 -22.237  1.00  0.00     0.129 C
BRANCH   7  10
HETATM   10  N1  UNL     1      17.837   7.505 -22.738  1.00  0.00    -0.189 N
HETATM   11  C4  UNL     1      16.963   7.888 -21.816  1.00  0.00     0.111 A
HETATM   12  C3  UNL     1      16.557   9.202 -21.751  1.00  0.00     0.043 A
HETATM   13  C2  UNL     1      17.035  10.143 -22.623  1.00  0.00     0.024 A
HETATM   14  C1  UNL     1      16.607  11.578 -22.572  1.00  0.00     0.068 C
HETATM   15  N5  UNL     1      17.918   9.728 -23.545  1.00  0.00    -0.196 N
HETATM   16  C31 UNL     1      18.312   8.450 -23.608  1.00  0.00     0.678 A
ATOM     17  H5  UNL     1      18.296  10.401 -24.213  1.00  0.00     0.184 HD
BRANCH  16  18
HETATM   18  N4  UNL     1      19.168   8.113 -24.522  1.00  0.00    -0.234 N
ATOM     19  H42 UNL     1      19.604   7.193 -24.461  1.00  0.00     0.174 HD
ATOM     20  H41 UNL     1      19.387   8.764 -25.275  1.00  0.00     0.174 HD
ENDBRANCH  16  18
ENDBRANCH   7  10
ENDBRANCH   3   4
ENDBRANCH   1   2
BRANCH   1  21
HETATM   21  O1  UNL     1      21.456   1.415 -20.903  1.00  0.00    -0.378 OA
ATOM     22  H1  UNL     1      21.257   2.192 -21.413  1.00  0.00     0.211 HD
ENDBRANCH   1  21
BRANCH   1  23
HETATM   23  C11 UNL     1      20.307   0.594 -22.639  1.00  0.00     0.062 A
HETATM   24  C12 UNL     1      19.535  -0.235 -23.438  1.00  0.00     0.129 A
HETATM   25  F1  UNL     1      18.773  -1.164 -22.837  1.00  0.00    -0.205 F
HETATM   26  C13 UNL     1      19.547  -0.238 -24.809  1.00  0.00     0.046 A
HETATM   27  C14 UNL     1      20.355   0.606 -25.502  1.00  0.00     0.048 A
HETATM   28  C15 UNL     1      21.155   1.458 -24.779  1.00  0.00     0.155 A
HETATM   29  F2  UNL     1      21.964   2.302 -25.459  1.00  0.00    -0.203 F
HETATM   30  C16 UNL     1      21.118   1.438 -23.403  1.00  0.00     0.167 A
HETATM   31  F3  UNL     1      21.965   2.329 -22.787  1.00  0.00    -0.202 F
ENDBRANCH   1  23
BRANCH   1  32
HETATM   32  C17 UNL     1      20.556  -0.631 -20.465  1.00  0.00     0.131 C
HETATM   33  C18 UNL     1      19.740  -0.872 -19.225  1.00  0.00     0.030 C
HETATM   34  C19 UNL     1      20.200  -0.108 -18.023  1.00  0.00     0.007 C
HETATM   35  C20 UNL     1      21.687  -0.084 -17.830  1.00  0.00     0.045 C
HETATM   36  C21 UNL     1      22.503  -0.304 -19.062  1.00  0.00     0.063 C
HETATM   37  N3  UNL     1      21.899  -0.897 -20.171  1.00  0.00    -0.365 N
BRANCH  37  38
HETATM   38  C22 UNL     1      22.600  -1.958 -20.731  1.00  0.00     0.068 C
BRANCH  38  39
HETATM   39  C23 UNL     1      23.470  -2.838 -19.918  1.00  0.00     0.024 C
HETATM   40  C24 UNL     1      22.580  -3.910 -19.280  1.00  0.00     0.010 C
HETATM   41  C25 UNL     1      22.102  -4.935 -20.248  1.00  0.00     0.001 C
HETATM   42  C26 UNL     1      23.349  -5.709 -20.699  1.00  0.00     0.000 C
HETATM   43  C27 UNL     1      24.150  -4.699 -21.491  1.00  0.00     0.001 C
HETATM   44  C28 UNL     1      24.560  -3.559 -20.632  1.00  0.00     0.010 C
ENDBRANCH  38  39
ENDBRANCH  37  38
ENDBRANCH   1  32
TORSDOF 9
ENDMDL