MODEL 5
REMARK VINA RESULT: -8.776822454      3.398     10.181
REMARK  8 active torsions:
REMARK  status: ('A' for Active; 'I' for Inactive)
REMARK    1  A    between atoms: O1_1  and  C1_3
REMARK    2  A    between atoms: C5_10  and  C6_11
REMARK    3  A    between atoms: C6_11  and  N2_12
REMARK    4  A    between atoms: C9_15  and  C10_16
REMARK    5  A    between atoms: C9_15  and  C17_25
REMARK    6  A    between atoms: C17_25  and  C18_26
REMARK    7  A    between atoms: N3_29  and  C21_30
REMARK    8  A    between atoms: C21_30  and  C22_31
ROOT
HETATM    1  N2  UNL     1      17.172   5.009 -22.429  1.00  0.00    -0.388 N
HETATM    2  C7  UNL     1      16.339   3.954 -22.379  1.00  0.00     0.123 C
HETATM    3  C8  UNL     1      17.067   2.628 -22.664  1.00  0.00     0.033 C
HETATM    4  C9  UNL     1      18.408   2.473 -21.992  1.00  0.00    -0.019 C
HETATM    5  C27 UNL     1      19.168   3.717 -21.968  1.00  0.00     0.033 C
HETATM    6  C28 UNL     1      18.301   4.865 -21.486  1.00  0.00     0.123 C
ENDROOT
BRANCH   4   7
HETATM    7  C10 UNL     1      18.112   1.999 -20.543  1.00  0.00    -0.006 C
HETATM    8  C11 UNL     1      18.753   0.862 -19.991  1.00  0.00    -0.037 A
HETATM    9  C12 UNL     1      18.563  -0.456 -20.196  1.00  0.00     0.013 A
HETATM   10  C16 UNL     1      19.728   1.116 -19.004  1.00  0.00     0.036 A
HETATM   11  C13 UNL     1      19.251  -1.477 -19.515  1.00  0.00     0.026 A
HETATM   12  C14 UNL     1      20.180  -1.147 -18.571  1.00  0.00     0.055 A
HETATM   13 CL2  UNL     1      21.107  -2.343 -17.683  1.00  0.00    -0.083 Cl
HETATM   14  C15 UNL     1      20.420   0.187 -18.313  1.00  0.00     0.056 A
HETATM   15 CL3  UNL     1      21.588   0.628 -17.076  1.00  0.00    -0.083 Cl
ENDBRANCH   4   7
BRANCH   4  16
HETATM   16  C17 UNL     1      19.018   1.246 -22.600  1.00  0.00     0.018 C
BRANCH  16  17
HETATM   17  C18 UNL     1      20.381   1.099 -23.073  1.00  0.00    -0.010 C
HETATM   18  C19 UNL     1      20.851  -0.190 -23.653  1.00  0.00     0.035 C
HETATM   19  C20 UNL     1      21.260  -1.015 -22.391  1.00  0.00     0.273 C
HETATM   20  N3  UNL     1      22.613  -0.599 -22.100  1.00  0.00     0.094 N
HETATM   21  C25 UNL     1      22.715   0.852 -22.187  1.00  0.00     0.273 C
HETATM   22  C26 UNL     1      21.393   1.561 -22.031  1.00  0.00     0.035 C
BRANCH  20  23
HETATM   23  C21 UNL     1      23.049  -1.057 -20.787  1.00  0.00     0.330 C
BRANCH  23  24
HETATM   24  C22 UNL     1      23.512  -2.467 -20.930  1.00  0.00     0.054 A
HETATM   25  C23 UNL     1      24.671  -2.977 -21.453  1.00  0.00     0.115 A
HETATM   26  N4  UNL     1      24.688  -4.322 -21.336  1.00  0.00    -0.360 N
HETATM   27  C24 UNL     1      23.546  -4.674 -20.744  1.00  0.00     0.180 A
ATOM     28  H4  UNL     1      25.432  -4.949 -21.642  1.00  0.00     0.166 HD
HETATM   29  N5  UNL     1      22.823  -3.569 -20.493  1.00  0.00    -0.353 N
ATOM     30  H5  UNL     1      21.905  -3.552 -20.047  1.00  0.00     0.166 HD
ENDBRANCH  23  24
ENDBRANCH  20  23
ENDBRANCH  16  17
ENDBRANCH   4  16
BRANCH   1  31
HETATM   31  C6  UNL     1      17.517   5.942 -23.370  1.00  0.00     0.118 C
BRANCH  31  32
HETATM   32  C5  UNL     1      17.860   7.321 -23.040  1.00  0.00     0.082 A
HETATM   33  C1  UNL     1      19.020   7.916 -23.540  1.00  0.00     0.093 A
HETATM   34  C2  UNL     1      19.288   9.258 -23.422  1.00  0.00     0.042 A
HETATM   35  C3  UNL     1      18.332  10.008 -22.769  1.00  0.00     0.045 A
HETATM   36  C4  UNL     1      17.190   9.445 -22.271  1.00  0.00     0.104 A
HETATM   37 CL1  UNL     1      16.006  10.514 -21.503  1.00  0.00    -0.065 Cl
HETATM   38  N1  UNL     1      16.986   8.131 -22.415  1.00  0.00    -0.344 N
ATOM     39  H1  UNL     1      16.131   7.724 -22.034  1.00  0.00     0.167 HD
BRANCH  33  40
HETATM   40  O1  UNL     1      19.900   7.036 -24.168  1.00  0.00    -0.358 OA
ATOM     41  H1  UNL     1      19.931   6.111 -23.952  1.00  0.00     0.217 HD
ENDBRANCH  33  40
ENDBRANCH  31  32
ENDBRANCH   1  31
TORSDOF 8
ENDMDL