MODEL 5
REMARK VINA RESULT: -8.111549283      4.147      9.318
REMARK  9 active torsions:
REMARK  status: ('A' for Active; 'I' for Inactive)
REMARK    1  A    between atoms: C2_2  and  C3_3
REMARK    2  A    between atoms: C3_3  and  C4_4
REMARK    3  A    between atoms: N1_8  and  C8_9
REMARK    4  A    between atoms: C8_9  and  C9_10
REMARK    5  A    between atoms: C11_14  and  N3_15
REMARK    6  A    between atoms: N3_15  and  C12_16
REMARK    7  A    between atoms: N3_15  and  C14_18
REMARK    8  A    between atoms: C19_28  and  N6_29
REMARK    9  A    between atoms: C25_38  and  C26_39
ROOT
HETATM    1  C9  UNL     1      21.326   0.926 -22.436  1.00  0.00     0.040 A
HETATM    2  C10 UNL     1      22.176   1.082 -21.332  1.00  0.00     0.122 A
HETATM    3  N2  UNL     1      22.202   0.222 -20.264  1.00  0.00    -0.200 N
ATOM      4  H2  UNL     1      22.848   0.384 -19.492  1.00  0.00     0.183 HD
HETATM    5  C11 UNL     1      21.416  -0.781 -20.240  1.00  0.00     0.686 A
HETATM    6  N5  UNL     1      20.563  -0.972 -21.294  1.00  0.00    -0.176 N
ATOM      7  H5  UNL     1      19.939  -1.779 -21.267  1.00  0.00     0.186 HD
HETATM    8  C19 UNL     1      20.502  -0.167 -22.352  1.00  0.00     0.127 A
ENDROOT
BRANCH   1   9
HETATM    9  C8  UNL     1      21.457   1.656 -23.673  1.00  0.00     0.108 C
BRANCH   9  10
HETATM   10  N1  UNL     1      21.012   2.931 -24.026  1.00  0.00    -0.354 N
HETATM   11  C6  UNL     1      21.870   3.466 -25.148  1.00  0.00     0.086 C
HETATM   12  C5  UNL     1      21.574   4.822 -25.630  1.00  0.00     0.035 C
HETATM   13  C7  UNL     1      23.309   3.588 -24.574  1.00  0.00     0.033 C
HETATM   14  C4  UNL     1      21.268   5.750 -24.498  1.00  0.00     0.026 C
HETATM   15  C21 UNL     1      20.172   5.171 -23.727  1.00  0.00     0.015 C
HETATM   16  C20 UNL     1      20.056   3.825 -23.524  1.00  0.00     0.027 C
HETATM   17  C22 UNL     1      19.269   6.014 -22.957  1.00  0.00     0.158 C
HETATM   18  C25 UNL     1      18.865   3.298 -22.867  1.00  0.00     0.046 C
HETATM   19  C24 UNL     1      18.157   4.239 -21.904  1.00  0.00     0.019 C
HETATM   20  C23 UNL     1      18.960   5.450 -21.563  1.00  0.00     0.084 C
HETATM   21  O1  UNL     1      18.745   7.068 -23.271  1.00  0.00    -0.293 OA
BRANCH  14  22
HETATM   22  C3  UNL     1      21.304   7.144 -24.864  1.00  0.00     0.009 C
BRANCH  22  23
HETATM   23  C2  UNL     1      21.868   7.534 -26.173  1.00  0.00    -0.004 C
HETATM   24  C1  UNL     1      21.971   8.903 -26.636  1.00  0.00     0.005 C
ENDBRANCH  22  23
ENDBRANCH  14  22
BRANCH  18  25
HETATM   25  C26 UNL     1      17.757   2.926 -23.854  1.00  0.00     0.096 C
HETATM   26 BR1  UNL     1      16.120   2.341 -23.094  1.00  0.00    -0.096 Br
ENDBRANCH  18  25
ENDBRANCH   9  10
ENDBRANCH   1   9
BRANCH   8  27
HETATM   27  N6  UNL     1      19.617  -0.508 -23.227  1.00  0.00    -0.384 N
ATOM     28  H62 UNL     1      18.669  -0.205 -23.002  1.00  0.00     0.157 HD
ATOM     29  H61 UNL     1      19.801  -1.024 -24.087  1.00  0.00     0.157 HD
ENDBRANCH   8  27
BRANCH   5  30
HETATM   30  N3  UNL     1      21.404  -1.844 -19.228  1.00  0.00    -0.182 N
BRANCH  30  31
HETATM   31  C12 UNL     1      20.784  -1.798 -17.988  1.00  0.00     0.143 C
HETATM   32  C13 UNL     1      20.636  -0.358 -17.486  1.00  0.00     0.027 C
ENDBRANCH  30  31
BRANCH  30  33
HETATM   33  C14 UNL     1      22.196  -2.962 -19.699  1.00  0.00     0.067 A
HETATM   34  C15 UNL     1      21.727  -4.196 -19.862  1.00  0.00     0.036 A
HETATM   35  C16 UNL     1      22.547  -5.147 -20.539  1.00  0.00     0.064 A
HETATM   36  C17 UNL     1      23.782  -4.807 -21.004  1.00  0.00     0.188 A
HETATM   37  F1  UNL     1      24.608  -5.643 -21.692  1.00  0.00    -0.186 F
HETATM   38  N4  UNL     1      24.214  -3.538 -20.808  1.00  0.00    -0.341 N
HETATM   39  C18 UNL     1      23.454  -2.649 -20.181  1.00  0.00     0.120 A
ATOM     40  H4  UNL     1      25.136  -3.263 -21.147  1.00  0.00     0.167 HD
ENDBRANCH  30  33
ENDBRANCH   5  30
TORSDOF 9
ENDMDL