MODEL 4
REMARK VINA RESULT: -8.257173261      2.518      4.011
REMARK  11 active torsions:
REMARK  status: ('A' for Active; 'I' for Inactive)
REMARK    1  A    between atoms: C2_2  and  C3_3
REMARK    2  A    between atoms: C3_3  and  N1_4
REMARK    3  A    between atoms: C3_3  and  C14_27
REMARK    4  A    between atoms: N1_4  and  C4_6
REMARK    5  A    between atoms: C5_9  and  C6_10
REMARK    6  A    between atoms: C6_10  and  C7_11
REMARK    7  A    between atoms: C7_11  and  C8_12
REMARK    8  A    between atoms: C7_11  and  N3_14
REMARK    9  A    between atoms: N3_14  and  C9_16
REMARK   10  A    between atoms: C17_30  and  C18_31
REMARK   11  A    between atoms: N7_37  and  C21_38
ROOT
HETATM    1  N1  UNL     1      18.625   2.442 -23.626  1.00  0.00    -0.217 N
ATOM      2  H1  UNL     1      17.970   1.748 -23.985  1.00  0.00     0.178 HD
ENDROOT
BRANCH   1   3
HETATM    3  C3  UNL     1      19.989   2.101 -23.626  1.00  0.00     0.132 C
BRANCH   3   4
HETATM    4  C2  UNL     1      20.597   1.671 -24.924  1.00  0.00     0.026 C
HETATM    5  C1  UNL     1      20.411   0.207 -25.232  1.00  0.00     0.007 C
ENDBRANCH   3   4
BRANCH   3   6
HETATM    6  C14 UNL     1      20.341   1.080 -22.592  1.00  0.00    -0.032 A
HETATM    7  C15 UNL     1      19.375   0.231 -22.115  1.00  0.00     0.010 A
HETATM    8  C16 UNL     1      19.640  -0.722 -21.172  1.00  0.00     0.017 A
HETATM    9  C17 UNL     1      20.942  -0.889 -20.628  1.00  0.00     0.031 A
HETATM   10  C24 UNL     1      21.878  -0.044 -21.119  1.00  0.00     0.129 A
HETATM   11  F1  UNL     1      23.188  -0.186 -20.773  1.00  0.00    -0.205 F
HETATM   12  C25 UNL     1      21.601   0.944 -22.094  1.00  0.00     0.052 A
BRANCH   9  13
HETATM   13  C18 UNL     1      21.135  -2.001 -19.715  1.00  0.00     0.066 A
HETATM   14  C19 UNL     1      20.505  -1.978 -18.443  1.00  0.00     0.121 A
HETATM   15  N6  UNL     1      20.876  -3.038 -17.765  1.00  0.00    -0.340 N
HETATM   16  C20 UNL     1      21.738  -3.783 -18.529  1.00  0.00     0.182 A
ATOM     17  H6  UNL     1      20.572  -3.272 -16.820  1.00  0.00     0.167 HD
HETATM   18 CL2  UNL     1      22.418  -5.298 -17.974  1.00  0.00    -0.045 Cl
HETATM   19  N7  UNL     1      21.874  -3.118 -19.702  1.00  0.00    -0.317 N
BRANCH  19  20
HETATM   20  C21 UNL     1      22.788  -3.487 -20.744  1.00  0.00     0.084 C
HETATM   21  C22 UNL     1      22.634  -4.992 -21.046  1.00  0.00     0.032 C
HETATM   22  C23 UNL     1      24.240  -3.385 -20.269  1.00  0.00     0.032 C
ENDBRANCH  19  20
ENDBRANCH   9  13
ENDBRANCH   3   6
ENDBRANCH   1   3
BRANCH   1  23
HETATM   23  C4  UNL     1      18.141   3.538 -23.216  1.00  0.00     0.678 A
HETATM   24  N2  UNL     1      18.369   4.750 -23.707  1.00  0.00    -0.194 N
HETATM   25  C5  UNL     1      17.823   5.914 -23.231  1.00  0.00     0.052 A
ATOM     26  H2  UNL     1      19.003   4.822 -24.502  1.00  0.00     0.184 HD
HETATM   27  C12 UNL     1      16.971   5.863 -22.172  1.00  0.00     0.073 A
HETATM   28 CL1  UNL     1      16.152   7.259 -21.502  1.00  0.00    -0.081 Cl
HETATM   29  C13 UNL     1      16.715   4.593 -21.636  1.00  0.00     0.132 A
HETATM   30  N5  UNL     1      17.283   3.498 -22.148  1.00  0.00    -0.200 N
ATOM     31  H5  UNL     1      17.069   2.595 -21.726  1.00  0.00     0.183 HD
BRANCH  25  32
HETATM   32  C6  UNL     1      18.258   7.126 -23.893  1.00  0.00     0.091 C
BRANCH  32  33
HETATM   33  C7  UNL     1      19.510   7.788 -23.415  1.00  0.00     0.150 C
BRANCH  33  34
HETATM   34  C8  UNL     1      19.562   8.285 -22.053  1.00  0.00     0.256 C
HETATM   35  O1  UNL     1      18.914   9.270 -21.660  1.00  0.00    -0.305 OA
ENDBRANCH  33  34
BRANCH  33  36
HETATM   36  N3  UNL     1      20.632   6.830 -23.530  1.00  0.00    -0.359 N
ATOM     37  H3  UNL     1      20.929   6.244 -22.751  1.00  0.00     0.162 HD
BRANCH  36  38
HETATM   38  C9  UNL     1      21.216   6.785 -24.698  1.00  0.00     0.144 A
HETATM   39  N4  UNL     1      21.394   7.730 -25.618  1.00  0.00    -0.346 N
HETATM   40  C10 UNL     1      22.018   7.430 -26.721  1.00  0.00     0.097 A
ATOM     41  H4  UNL     1      21.047   8.676 -25.461  1.00  0.00     0.167 HD
HETATM   42  C11 UNL     1      22.465   6.150 -26.889  1.00  0.00     0.070 A
HETATM   43  S1  UNL     1      21.968   5.410 -25.438  1.00  0.00    -0.065 SA
ENDBRANCH  36  38
ENDBRANCH  33  36
ENDBRANCH  32  33
ENDBRANCH  25  32
ENDBRANCH   1  23
TORSDOF 11
ENDMDL