MODEL 4
REMARK VINA RESULT: -8.219509240      5.196     11.081
REMARK  8 active torsions:
REMARK  status: ('A' for Active; 'I' for Inactive)
REMARK    1  A    between atoms: C5_5  and  N2_8
REMARK    2  A    between atoms: N2_8  and  C7_10
REMARK    3  A    between atoms: C7_10  and  C9_12
REMARK       I    between atoms: C9_12  and  N3_14
REMARK    4  A    between atoms: N3_14  and  C10_16
REMARK    5  A    between atoms: C12_18  and  C13_19
REMARK    6  A    between atoms: C13_19  and  N4_20
REMARK    7  A    between atoms: N5_23  and  C16_24
REMARK    8  A    between atoms: C16_24  and  C17_25
ROOT
HETATM    1  C1  UNL     1      24.561  -3.287 -21.863  1.00  0.00     0.010 C
HETATM    2  C2  UNL     1      23.966  -3.183 -20.484  1.00  0.00    -0.014 C
HETATM    3  C3  UNL     1      23.631  -1.761 -20.168  1.00  0.00     0.008 C
HETATM    4  C4  UNL     1      22.818  -1.594 -18.902  1.00  0.00     0.051 C
HETATM    5  C5  UNL     1      21.566  -2.449 -18.938  1.00  0.00     0.167 C
HETATM    6  C6  UNL     1      20.941  -2.413 -17.630  1.00  0.00     0.095 C
HETATM    7  N1  UNL     1      20.456  -2.402 -16.577  1.00  0.00    -0.194 NA
HETATM    8  C25 UNL     1      22.070  -3.896 -19.125  1.00  0.00     0.217 C
HETATM    9  F1  UNL     1      20.967  -4.710 -19.084  1.00  0.00    -0.222 F
HETATM   10 CL2  UNL     1      23.251  -4.306 -17.867  1.00  0.00    -0.079 Cl
HETATM   11  C26 UNL     1      22.687  -3.993 -20.492  1.00  0.00     0.068 C
ENDROOT
BRANCH   5  12
HETATM   12  N2  UNL     1      20.733  -2.174 -20.046  1.00  0.00    -0.385 N
ATOM     13  H2  UNL     1      20.879  -2.640 -20.941  1.00  0.00     0.156 HD
BRANCH  12  14
HETATM   14  C7  UNL     1      19.684  -1.229 -19.876  1.00  0.00     0.167 C
HETATM   15  C8  UNL     1      18.309  -1.812 -19.846  1.00  0.00     0.042 C
BRANCH  14  16
HETATM   16  C9  UNL     1      19.756  -0.217 -20.966  1.00  0.00     0.244 C
HETATM   17  O1  UNL     1      18.993   0.758 -20.879  1.00  0.00    -0.271 OA
HETATM   18  N3  UNL     1      20.639  -0.355 -22.044  1.00  0.00    -0.324 N
ATOM     19  H3  UNL     1      21.223  -1.192 -22.017  1.00  0.00     0.169 HD
BRANCH  18  20
HETATM   20  C10 UNL     1      20.847   0.477 -23.157  1.00  0.00     0.057 A
HETATM   21  C11 UNL     1      21.279   1.783 -23.099  1.00  0.00     0.044 A
HETATM   22  C12 UNL     1      21.451   2.570 -24.244  1.00  0.00    -0.019 A
HETATM   23  C22 UNL     1      21.186   2.046 -25.475  1.00  0.00     0.014 A
HETATM   24  C23 UNL     1      20.746   0.721 -25.574  1.00  0.00     0.027 A
HETATM   25  C24 UNL     1      20.588  -0.021 -24.443  1.00  0.00     0.060 A
HETATM   26 CL1  UNL     1      20.034  -1.669 -24.628  1.00  0.00    -0.082 Cl
BRANCH  22  27
HETATM   27  C13 UNL     1      21.902   3.975 -24.125  1.00  0.00     0.097 C
BRANCH  27  28
HETATM   28  N4  UNL     1      20.934   4.973 -24.199  1.00  0.00    -0.386 N
HETATM   29  C14 UNL     1      21.239   6.297 -24.519  1.00  0.00     0.152 C
HETATM   30  C15 UNL     1      20.752   7.195 -23.361  1.00  0.00     0.292 C
HETATM   31  N5  UNL     1      19.348   6.986 -23.221  1.00  0.00     0.096 N
HETATM   32  C20 UNL     1      19.094   5.626 -22.826  1.00  0.00     0.292 C
HETATM   33  C21 UNL     1      19.587   4.679 -23.908  1.00  0.00     0.152 C
BRANCH  31  34
HETATM   34  C16 UNL     1      18.765   7.912 -22.323  1.00  0.00     0.320 C
BRANCH  34  35
HETATM   35  C17 UNL     1      18.125   9.021 -23.119  1.00  0.00     0.027 A
HETATM   36  C18 UNL     1      18.071   9.111 -24.494  1.00  0.00     0.104 A
HETATM   37  N6  UNL     1      17.473  10.137 -25.002  1.00  0.00    -0.368 N
HETATM   38  C19 UNL     1      16.941  11.054 -24.209  1.00  0.00     0.138 A
ATOM     39  H6  UNL     1      17.410  10.241 -26.015  1.00  0.00     0.165 HD
HETATM   40  S1  UNL     1      17.300  10.440 -22.654  1.00  0.00    -0.086 SA
ENDBRANCH  34  35
ENDBRANCH  31  34
ENDBRANCH  27  28
ENDBRANCH  22  27
ENDBRANCH  18  20
ENDBRANCH  14  16
ENDBRANCH  12  14
ENDBRANCH   5  12
TORSDOF 8
ENDMDL