MODEL 3
REMARK VINA RESULT: -8.239500792      1.395      1.745
REMARK  9 active torsions:
REMARK  status: ('A' for Active; 'I' for Inactive)
REMARK    1  A    between atoms: C4_4  and  C5_5
REMARK    2  A    between atoms: C5_5  and  N1_6
REMARK    3  A    between atoms: N1_6  and  C6_8
REMARK    4  A    between atoms: C10_14  and  C11_15
REMARK    5  A    between atoms: C14_21  and  C15_22
REMARK    6  A    between atoms: C15_22  and  C16_24
REMARK    7  A    between atoms: C19_27  and  N4_28
REMARK    8  A    between atoms: N4_28  and  C20_30
REMARK    9  A    between atoms: C20_30  and  C21_31
ROOT
HETATM    1  C11 UNL     1      20.671   3.368 -23.428  1.00  0.00     0.066 A
HETATM    2  C12 UNL     1      21.525   3.365 -24.490  1.00  0.00     0.148 A
HETATM    3  N2  UNL     1      21.615   4.658 -24.947  1.00  0.00    -0.247 N
HETATM    4  N3  UNL     1      22.304   5.182 -25.944  1.00  0.00    -0.303 N
ATOM      5  H3  UNL     1      22.886   4.559 -26.503  1.00  0.00     0.186 HD
HETATM    6  C13 UNL     1      22.283   6.462 -26.260  1.00  0.00     0.125 A
HETATM    7  C14 UNL     1      21.499   7.372 -25.526  1.00  0.00     0.058 A
HETATM    8  C19 UNL     1      20.770   6.820 -24.472  1.00  0.00     0.093 A
HETATM    9  C27 UNL     1      20.841   5.453 -24.194  1.00  0.00     0.155 A
HETATM   10  N6  UNL     1      20.283   4.642 -23.284  1.00  0.00    -0.337 N
ATOM     11  H6  UNL     1      19.636   4.960 -22.563  1.00  0.00     0.167 HD
ENDROOT
BRANCH   1  12
HETATM   12  C10 UNL     1      20.267   2.216 -22.618  1.00  0.00     0.055 A
HETATM   13  C9  UNL     1      19.309   1.340 -23.087  1.00  0.00     0.052 A
HETATM   14  C8  UNL     1      18.923   0.251 -22.330  1.00  0.00     0.069 A
HETATM   15 CL1  UNL     1      18.542   1.566 -24.655  1.00  0.00    -0.083 Cl
HETATM   16  C7  UNL     1      19.493   0.031 -21.098  1.00  0.00     0.147 A
HETATM   17  C6  UNL     1      20.446   0.923 -20.658  1.00  0.00     0.107 A
HETATM   18  F1  UNL     1      19.100  -1.047 -20.366  1.00  0.00    -0.204 F
HETATM   19  C28 UNL     1      20.857   2.023 -21.387  1.00  0.00     0.160 A
HETATM   20  F2  UNL     1      21.809   2.868 -20.888  1.00  0.00    -0.203 F
BRANCH  17  21
HETATM   21  N1  UNL     1      21.036   0.690 -19.375  1.00  0.00    -0.382 N
ATOM     22  H1  UNL     1      20.905   1.354 -18.613  1.00  0.00     0.160 HD
BRANCH  21  23
HETATM   23  C5  UNL     1      21.813  -0.496 -19.186  1.00  0.00     0.147 C
BRANCH  23  24
HETATM   24  C4  UNL     1      23.016  -0.511 -20.050  1.00  0.00    -0.005 C
HETATM   25  C2  UNL     1      23.343  -1.565 -20.786  1.00  0.00    -0.090 C
HETATM   26  C1  UNL     1      22.490  -2.787 -20.758  1.00  0.00     0.042 C
HETATM   27  C3  UNL     1      24.562  -1.542 -21.641  1.00  0.00     0.042 C
ENDBRANCH  23  24
ENDBRANCH  21  23
ENDBRANCH  17  21
ENDBRANCH   1  12
BRANCH   8  28
HETATM   28  N4  UNL     1      20.033   7.582 -23.815  1.00  0.00    -0.365 N
ATOM     29  H4  UNL     1      19.184   7.832 -24.322  1.00  0.00     0.165 HD
BRANCH  28  30
HETATM   30  C20 UNL     1      20.089   8.167 -22.573  1.00  0.00     0.066 C
BRANCH  30  31
HETATM   31  C21 UNL     1      19.619   9.617 -22.466  1.00  0.00     0.027 C
HETATM   32  C22 UNL     1      18.580   9.987 -23.460  1.00  0.00     0.040 C
HETATM   33  C23 UNL     1      17.222  10.286 -22.898  1.00  0.00     0.272 C
HETATM   34  N5  UNL     1      16.933   9.500 -21.714  1.00  0.00     0.084 N
HETATM   35  C24 UNL     1      15.640   9.945 -21.222  1.00  0.00     0.309 C
HETATM   36  C25 UNL     1      17.895   9.692 -20.675  1.00  0.00     0.272 C
HETATM   37  C26 UNL     1      19.268  10.063 -21.102  1.00  0.00     0.040 C
ENDBRANCH  30  31
ENDBRANCH  28  30
ENDBRANCH   8  28
BRANCH   7  38
HETATM   38  C15 UNL     1      21.519   8.752 -25.857  1.00  0.00     0.167 C
HETATM   39  O1  UNL     1      20.450   9.236 -26.408  1.00  0.00    -0.292 OA
BRANCH  38  40
HETATM   40  C16 UNL     1      22.589   9.727 -25.671  1.00  0.00     0.061 A
HETATM   41  C17 UNL     1      22.249  11.164 -25.421  1.00  0.00     0.013 A
HETATM   42  C18 UNL     1      22.681  10.328 -24.271  1.00  0.00     0.013 A
ENDBRANCH  38  40
ENDBRANCH   7  38
TORSDOF 9
ENDMDL