MODEL 4
REMARK VINA RESULT: -8.554829685      4.499      5.562
REMARK  8 active torsions:
REMARK  status: ('A' for Active; 'I' for Inactive)
REMARK    1  A    between atoms: C2_2  and  C3_3
REMARK    2  A    between atoms: C3_3  and  C4_4
REMARK    3  A    between atoms: C4_4  and  C5_5
REMARK    4  A    between atoms: C5_5  and  N1_6
REMARK       I    between atoms: N1_6  and  C6_8
REMARK       I    between atoms: C6_8  and  N2_10
REMARK    5  A    between atoms: C10_14  and  N3_15
REMARK    6  A    between atoms: C13_18  and  N4_19
REMARK    7  A    between atoms: C14_24  and  C15_25
REMARK    8  A    between atoms: C23_36  and  N7_37
ROOT
HETATM    1  N3  UNL     1      19.220   3.133 -22.643  1.00  0.00    -0.359 N
HETATM    2  C11 UNL     1      20.242   3.934 -22.168  1.00  0.00     0.063 C
HETATM    3  C12 UNL     1      20.071   5.368 -22.648  1.00  0.00     0.072 C
HETATM    4  C13 UNL     1      18.688   5.802 -22.227  1.00  0.00     0.120 C
HETATM    5  C22 UNL     1      17.722   4.962 -23.041  1.00  0.00     0.082 C
HETATM    6  C23 UNL     1      17.878   3.544 -22.534  1.00  0.00     0.285 C
ENDROOT
BRANCH   1   7
HETATM    7  C10 UNL     1      19.401   1.722 -22.707  1.00  0.00     0.108 C
HETATM    8  C9  UNL     1      18.316   0.937 -23.369  1.00  0.00     0.029 C
HETATM    9  C8  UNL     1      18.697  -0.431 -23.788  1.00  0.00     0.027 C
HETATM   10  C7  UNL     1      20.130  -0.814 -23.693  1.00  0.00     0.089 C
HETATM   11  N2  UNL     1      20.933  -0.053 -22.768  1.00  0.00    -0.323 N
HETATM   12  C26 UNL     1      20.795  -0.345 -25.004  1.00  0.00     0.027 C
HETATM   13  C6  UNL     1      21.717  -0.427 -21.659  1.00  0.00     0.319 C
HETATM   14  C24 UNL     1      20.766   1.325 -23.272  1.00  0.00     0.112 C
HETATM   15  N1  UNL     1      21.856  -1.770 -21.224  1.00  0.00    -0.343 N
HETATM   16  O1  UNL     1      22.354   0.454 -20.985  1.00  0.00    -0.247 OA
ATOM     17  H1  UNL     1      21.360  -2.501 -21.733  1.00  0.00     0.164 HD
HETATM   18  C25 UNL     1      20.784   1.151 -24.754  1.00  0.00     0.029 C
BRANCH  15  19
HETATM   19  C5  UNL     1      22.666  -2.147 -20.095  1.00  0.00     0.124 C
BRANCH  19  20
HETATM   20  C4  UNL     1      23.718  -3.130 -20.490  1.00  0.00     0.020 C
BRANCH  20  21
HETATM   21  C3  UNL     1      23.571  -4.444 -19.740  1.00  0.00     0.001 C
BRANCH  21  22
HETATM   22  C2  UNL     1      22.280  -5.142 -20.054  1.00  0.00    -0.004 C
HETATM   23  C1  UNL     1      22.500  -5.951 -21.329  1.00  0.00     0.005 C
ENDBRANCH  21  22
ENDBRANCH  20  21
ENDBRANCH  19  20
ENDBRANCH  15  19
ENDBRANCH   1   7
BRANCH   6  24
HETATM   24  N7  UNL     1      17.305   3.506 -21.204  1.00  0.00    -0.058 N
ATOM     25  H73 UNL     1      16.541   4.178 -21.138  1.00  0.00     0.276 HD
ATOM     26  H72 UNL     1      16.795   2.633 -21.072  1.00  0.00     0.276 HD
ATOM     27  H71 UNL     1      17.956   3.645 -20.431  1.00  0.00     0.276 HD
ENDBRANCH   6  24
BRANCH   4  28
HETATM   28  N4  UNL     1      18.445   7.196 -22.261  1.00  0.00    -0.245 N
HETATM   29  N5  UNL     1      19.347   8.091 -22.642  1.00  0.00    -0.237 N
HETATM   30  N6  UNL     1      18.846   9.284 -22.575  1.00  0.00    -0.281 N
ATOM     31  H5  UNL     1      20.296   7.871 -22.945  1.00  0.00     0.208 HD
HETATM   32  C14 UNL     1      17.577   9.206 -22.138  1.00  0.00     0.119 A
ATOM     33  H6  UNL     1      19.337  10.146 -22.815  1.00  0.00     0.188 HD
HETATM   34  C21 UNL     1      17.327   7.863 -21.939  1.00  0.00     0.235 A
HETATM   35  F1  UNL     1      16.150   7.351 -21.495  1.00  0.00    -0.182 F
BRANCH  32  36
HETATM   36  C15 UNL     1      16.718  10.366 -21.949  1.00  0.00     0.018 A
HETATM   37  C16 UNL     1      16.146  10.695 -20.741  1.00  0.00     0.017 A
HETATM   38  C17 UNL     1      15.326  11.823 -20.627  1.00  0.00     0.025 A
HETATM   39  C18 UNL     1      15.069  12.633 -21.724  1.00  0.00     0.035 A
HETATM   40 CL1  UNL     1      14.035  14.036 -21.543  1.00  0.00    -0.084 Cl
HETATM   41  C19 UNL     1      15.645  12.296 -22.932  1.00  0.00     0.048 A
HETATM   42  C20 UNL     1      16.459  11.175 -23.038  1.00  0.00     0.048 A
HETATM   43 CL2  UNL     1      17.177  10.778 -24.599  1.00  0.00    -0.083 Cl
ENDBRANCH  32  36
ENDBRANCH   4  28
TORSDOF 8
ENDMDL