MODEL 4
REMARK VINA RESULT: -8.379054990      1.976      4.968
REMARK  14 active torsions:
REMARK  status: ('A' for Active; 'I' for Inactive)
REMARK    1  A    between atoms: C2_2  and  C3_3
REMARK    2  A    between atoms: C3_3  and  C4_4
REMARK    3  A    between atoms: C4_4  and  O1_5
REMARK    4  A    between atoms: O1_5  and  C5_6
REMARK    5  A    between atoms: C8_10  and  O3_11
REMARK    6  A    between atoms: C9_13  and  O4_14
REMARK    7  A    between atoms: C10_16  and  O5_17
REMARK    8  A    between atoms: O5_17  and  C11_18
REMARK    9  A    between atoms: C11_18  and  C12_19
REMARK   10  A    between atoms: C11_18  and  O6_39
REMARK   11  A    between atoms: C12_19  and  C13_20
REMARK   12  A    between atoms: C14_21  and  C16_23
REMARK   13  A    between atoms: C19_26  and  C20_27
REMARK   14  A    between atoms: C19_26  and  C24_31
ROOT
HETATM    1  C11 UNL     1      17.604   2.409 -23.283  1.00  0.00     0.263 C
ENDROOT
BRANCH   1   2
HETATM    2  O5  UNL     1      18.818   2.991 -22.940  1.00  0.00    -0.353 OA
BRANCH   2   3
HETATM    3  C10 UNL     1      19.485   3.525 -24.052  1.00  0.00     0.157 C
HETATM    4  C9  UNL     1      20.780   2.839 -24.323  1.00  0.00     0.176 C
HETATM    5  C8  UNL     1      21.936   3.286 -23.492  1.00  0.00     0.150 C
HETATM    6  C7  UNL     1      21.890   4.696 -23.036  1.00  0.00     0.050 C
HETATM    7  C3  UNL     1      20.911   5.581 -23.731  1.00  0.00     0.004 C
HETATM    8  C30 UNL     1      19.548   5.005 -23.899  1.00  0.00     0.050 C
BRANCH   4   9
HETATM    9  O4  UNL     1      21.116   2.970 -25.677  1.00  0.00    -0.390 OA
ATOM     10  H4  UNL     1      20.609   2.344 -26.182  1.00  0.00     0.210 HD
ENDBRANCH   4   9
BRANCH   5  11
HETATM   11  O3  UNL     1      23.094   3.064 -24.252  1.00  0.00    -0.393 OA
ATOM     12  H3  UNL     1      23.116   2.165 -24.559  1.00  0.00     0.210 HD
ENDBRANCH   5  11
BRANCH   7  13
HETATM   13  C2  UNL     1      21.438   5.961 -25.079  1.00  0.00    -0.025 C
HETATM   14  C1  UNL     1      21.465   7.233 -25.441  1.00  0.00     0.008 C
ENDBRANCH   7  13
BRANCH   7  15
HETATM   15  C4  UNL     1      20.731   6.890 -22.934  1.00  0.00     0.192 C
BRANCH  15  16
HETATM   16  O1  UNL     1      19.349   6.911 -22.580  1.00  0.00    -0.321 OA
BRANCH  16  17
HETATM   17  C5  UNL     1      18.656   8.122 -22.522  1.00  0.00     0.254 C
HETATM   18  C6  UNL     1      18.466   8.978 -23.743  1.00  0.00     0.126 C
HETATM   19  O2  UNL     1      18.200   8.461 -21.408  1.00  0.00    -0.266 OA
ENDBRANCH  16  17
ENDBRANCH  15  16
ENDBRANCH   7  15
ENDBRANCH   2   3
ENDBRANCH   1   2
BRANCH   1  20
HETATM   20  C12 UNL     1      17.435   1.143 -22.461  1.00  0.00     0.088 C
BRANCH  20  21
HETATM   21  C13 UNL     1      18.708   0.485 -22.186  1.00  0.00    -0.015 C
HETATM   22  C14 UNL     1      19.246   0.426 -21.001  1.00  0.00    -0.059 C
HETATM   23  C15 UNL     1      18.613   1.039 -19.791  1.00  0.00     0.048 C
BRANCH  22  24
HETATM   24  C16 UNL     1      20.500  -0.273 -20.787  1.00  0.00    -0.048 C
HETATM   25  C17 UNL     1      20.622  -1.587 -20.950  1.00  0.00     0.015 C
HETATM   26  C18 UNL     1      21.924  -2.256 -20.710  1.00  0.00    -0.046 C
HETATM   27  C19 UNL     1      22.025  -3.346 -19.989  1.00  0.00     0.039 C
HETATM   28  C25 UNL     1      23.114  -1.526 -21.234  1.00  0.00     0.040 C
HETATM   29  C26 UNL     1      22.790  -0.076 -21.467  1.00  0.00     0.014 C
HETATM   30  C27 UNL     1      21.783   0.420 -20.451  1.00  0.00     0.015 C
HETATM   31  C28 UNL     1      22.229   0.236 -19.049  1.00  0.00     0.015 C
BRANCH  27  32
HETATM   32  C20 UNL     1      23.316  -4.039 -19.765  1.00  0.00    -0.019 C
HETATM   33  C21 UNL     1      23.586  -4.357 -18.328  1.00  0.00     0.019 C
HETATM   34  C22 UNL     1      23.220  -5.436 -20.494  1.00  0.00     0.019 C
HETATM   35  C23 UNL     1      24.491  -3.427 -20.426  1.00  0.00     0.019 C
ENDBRANCH  27  32
BRANCH  27  36
HETATM   36  C24 UNL     1      20.848  -3.842 -19.190  1.00  0.00     0.415 C
HETATM   37  F1  UNL     1      19.680  -3.257 -19.530  1.00  0.00    -0.166 F
HETATM   38  F2  UNL     1      21.043  -3.501 -17.839  1.00  0.00    -0.166 F
HETATM   39  F3  UNL     1      20.680  -5.199 -19.280  1.00  0.00    -0.166 F
ENDBRANCH  27  36
ENDBRANCH  22  24
ENDBRANCH  20  21
ENDBRANCH   1  20
BRANCH   1  40
HETATM   40  O6  UNL     1      16.533   3.252 -22.980  1.00  0.00    -0.366 OA
HETATM   41  C29 UNL     1      16.567   3.693 -21.660  1.00  0.00     0.204 C
ENDBRANCH   1  40
TORSDOF 14
ENDMDL