MODEL 1
REMARK VINA RESULT: -7.653086331      0.000      0.000
REMARK  6 active torsions:
REMARK  status: ('A' for Active; 'I' for Inactive)
REMARK    1  A    between atoms: C2_2  and  S1_3
REMARK    2  A    between atoms: S1_3  and  N1_6
REMARK    3  A    between atoms: C11_15  and  N2_16
REMARK       I    between atoms: N2_16  and  C12_18
REMARK    4  A    between atoms: C12_18  and  C13_20
REMARK    5  A    between atoms: C13_20  and  C14_21
REMARK    6  A    between atoms: C14_21  and  S2_22
ROOT
HETATM    1  N1  UNL     1     -20.362  -1.637   4.783  1.00  0.00    -0.206 NA
HETATM    2  C3  UNL     1     -21.350  -1.785   5.776  1.00  0.00     0.107 C
HETATM    3  C4  UNL     1     -21.063  -2.728   6.892  1.00  0.00     0.015 C
HETATM    4  C5  UNL     1     -20.839  -4.147   6.482  1.00  0.00     0.001 C
HETATM    5  C6  UNL     1     -20.752  -4.390   5.026  1.00  0.00     0.001 C
HETATM    6  C7  UNL     1     -19.512  -4.119   4.324  1.00  0.00     0.011 C
HETATM    7  C8  UNL     1     -18.512  -3.174   4.876  1.00  0.00    -0.026 C
HETATM    8  C9  UNL     1     -17.632  -3.740   5.955  1.00  0.00     0.013 C
HETATM    9  C10 UNL     1     -16.248  -3.154   5.761  1.00  0.00     0.026 C
HETATM   10  C11 UNL     1     -16.219  -2.554   4.399  1.00  0.00     0.085 C
HETATM   11  C16 UNL     1     -17.484  -3.026   3.733  1.00  0.00     0.036 C
HETATM   12  C17 UNL     1     -19.006  -1.799   5.175  1.00  0.00     0.117 C
ENDROOT
BRANCH  10  13
HETATM   13  N2  UNL     1     -15.100  -2.998   3.600  1.00  0.00    -0.356 N
HETATM   14  C12 UNL     1     -14.867  -2.553   2.272  1.00  0.00     0.218 C
HETATM   15  O3  UNL     1     -15.672  -1.735   1.771  1.00  0.00    -0.274 OA
ATOM     16  H2  UNL     1     -14.445  -3.663   4.010  1.00  0.00     0.162 HD
BRANCH  14  17
HETATM   17  C13 UNL     1     -13.709  -3.044   1.510  1.00  0.00     0.117 C
BRANCH  17  18
HETATM   18  C14 UNL     1     -12.897  -3.959   2.370  1.00  0.00     0.149 C
BRANCH  18  19
HETATM   19  S2  UNL     1     -13.195  -5.668   2.039  1.00  0.00     0.141 S
HETATM   20  C15 UNL     1     -12.137  -6.720   2.977  1.00  0.00     0.161 C
HETATM   21  O4  UNL     1     -14.613  -5.978   2.347  1.00  0.00    -0.228 OA
HETATM   22  O5  UNL     1     -12.905  -5.891   0.568  1.00  0.00    -0.228 OA
ENDBRANCH  18  19
ENDBRANCH  17  18
ENDBRANCH  14  17
ENDBRANCH  10  13
BRANCH   1  23
HETATM   23  S1  UNL     1     -20.610  -0.108   3.973  1.00  0.00     0.232 S
HETATM   24  O1  UNL     1     -19.957  -0.212   2.625  1.00  0.00    -0.207 OA
HETATM   25  O2  UNL     1     -19.991   1.001   4.744  1.00  0.00    -0.207 OA
BRANCH  23  26
HETATM   26  C2  UNL     1     -22.323   0.149   3.704  1.00  0.00     0.115 C
HETATM   27  C1  UNL     1     -23.144   0.166   4.723  1.00  0.00     0.024 C
ENDBRANCH  23  26
ENDBRANCH   1  23
TORSDOF 6
ENDMDL