MODEL 3
REMARK VINA RESULT: -7.911287259      2.921      8.535
REMARK  6 active torsions:
REMARK  status: ('A' for Active; 'I' for Inactive)
REMARK       I    between atoms: C2_2  and  N1_4
REMARK    1  A    between atoms: N1_4  and  C3_6
REMARK    2  A    between atoms: N2_9  and  C6_10
REMARK    3  A    between atoms: C6_10  and  C7_11
REMARK    4  A    between atoms: N3_15  and  S1_16
REMARK    5  A    between atoms: S1_16  and  C11_19
REMARK    6  A    between atoms: C11_19  and  C12_20
ROOT
HETATM    1  C7  UNL     1     -16.599  -2.161   4.850  1.00  0.00     0.028 C
HETATM    2  C8  UNL     1     -16.443  -2.484   6.320  1.00  0.00     0.009 C
HETATM    3  C9  UNL     1     -17.728  -3.131   6.784  1.00  0.00     0.016 C
HETATM    4  C10 UNL     1     -18.792  -2.019   6.794  1.00  0.00     0.107 C
HETATM    5  N3  UNL     1     -18.710  -1.200   5.642  1.00  0.00    -0.210 NA
HETATM    6  C18 UNL     1     -18.025  -1.783   4.514  1.00  0.00     0.113 C
ENDROOT
BRANCH   1   7
HETATM    7  C6  UNL     1     -16.282  -3.416   4.068  1.00  0.00     0.278 C
BRANCH   7   8
HETATM    8  N2  UNL     1     -15.521  -3.157   2.887  1.00  0.00     0.088 N
HETATM    9  C5  UNL     1     -15.142  -4.306   2.128  1.00  0.00     0.274 C
HETATM   10  C4  UNL     1     -15.122  -3.924   0.663  1.00  0.00     0.055 C
HETATM   11  C3  UNL     1     -16.560  -3.735   0.226  1.00  0.00     0.087 C
HETATM   12  C20 UNL     1     -17.242  -2.864   1.250  1.00  0.00     0.055 C
HETATM   13  C19 UNL     1     -16.201  -2.182   2.078  1.00  0.00     0.274 C
BRANCH  11  14
HETATM   14  N1  UNL     1     -16.637  -3.131  -1.092  1.00  0.00    -0.357 N
HETATM   15  C2  UNL     1     -17.666  -3.553  -1.974  1.00  0.00     0.213 C
HETATM   16  C1  UNL     1     -17.811  -2.981  -3.345  1.00  0.00     0.117 C
HETATM   17  O1  UNL     1     -18.515  -4.431  -1.651  1.00  0.00    -0.274 OA
ATOM     18  H1  UNL     1     -15.966  -2.419  -1.378  1.00  0.00     0.162 HD
ENDBRANCH  11  14
ENDBRANCH   7   8
ENDBRANCH   1   7
BRANCH   5  19
HETATM   19  S1  UNL     1     -20.183  -0.530   5.084  1.00  0.00     0.211 S
HETATM   20  O2  UNL     1     -20.004   0.984   5.136  1.00  0.00    -0.211 OA
HETATM   21  O3  UNL     1     -20.309  -0.891   3.631  1.00  0.00    -0.211 OA
BRANCH  19  22
HETATM   22  C11 UNL     1     -21.592  -0.933   6.019  1.00  0.00     0.162 C
BRANCH  22  23
HETATM   23  C12 UNL     1     -22.715  -1.594   5.313  1.00  0.00     0.001 C
HETATM   24  C13 UNL     1     -22.618  -3.089   5.694  1.00  0.00     0.005 C
HETATM   25  C14 UNL     1     -23.440  -3.290   6.948  1.00  0.00     0.000 C
HETATM   26  C15 UNL     1     -24.894  -3.361   6.508  1.00  0.00     0.000 C
HETATM   27  C16 UNL     1     -25.133  -2.164   5.624  1.00  0.00     0.000 C
HETATM   28  C17 UNL     1     -24.071  -1.096   5.826  1.00  0.00     0.005 C
ENDBRANCH  22  23
ENDBRANCH  19  22
ENDBRANCH   5  19
TORSDOF 6
ENDMDL