MODEL 1
REMARK VINA RESULT: -8.656906390      0.000      0.000
REMARK  6 active torsions:
REMARK  status: ('A' for Active; 'I' for Inactive)
REMARK    1  A    between atoms: C1_2  and  C2_3
REMARK       I    between atoms: C1_2  and  N3_21
REMARK    2  A    between atoms: C2_3  and  C3_4
REMARK    3  A    between atoms: C3_4  and  N1_5
REMARK    4  A    between atoms: N2_8  and  S1_9
REMARK    5  A    between atoms: S1_9  and  C6_12
REMARK    6  A    between atoms: N3_21  and  C15_23
ROOT
HETATM    1  N1  UNL     1     -18.441  -2.182   5.304  1.00  0.00     0.095 N
HETATM    2  C4  UNL     1     -17.073  -2.051   5.757  1.00  0.00     0.317 C
HETATM    3  C5  UNL     1     -16.135  -2.776   4.803  1.00  0.00     0.106 C
HETATM    4  N2  UNL     1     -16.742  -3.042   3.559  1.00  0.00    -0.287 N
HETATM    5  C13 UNL     1     -17.899  -3.885   3.634  1.00  0.00     0.170 C
HETATM    6  C14 UNL     1     -18.742  -3.518   4.857  1.00  0.00     0.293 C
ENDROOT
BRANCH   1   7
HETATM    7  C3  UNL     1     -19.396  -1.659   6.226  1.00  0.00     0.282 C
BRANCH   7   8
HETATM    8  C2  UNL     1     -19.999  -0.348   5.766  1.00  0.00     0.133 C
BRANCH   8   9
HETATM    9  C1  UNL     1     -21.359  -0.590   5.224  1.00  0.00     0.219 C
HETATM   10  O1  UNL     1     -21.660  -0.166   4.084  1.00  0.00    -0.274 OA
HETATM   11  N3  UNL     1     -22.350  -1.290   5.958  1.00  0.00    -0.356 N
ATOM     12  H3  UNL     1     -22.120  -1.642   6.888  1.00  0.00     0.162 HD
BRANCH  11  13
HETATM   13  C15 UNL     1     -23.664  -1.520   5.436  1.00  0.00     0.084 C
HETATM   14  C16 UNL     1     -24.119  -2.924   5.752  1.00  0.00     0.025 C
HETATM   15  C17 UNL     1     -25.477  -3.168   5.140  1.00  0.00     0.002 C
HETATM   16  C18 UNL     1     -26.480  -2.129   5.579  1.00  0.00     0.000 C
HETATM   17  C19 UNL     1     -25.969  -0.776   5.135  1.00  0.00     0.002 C
HETATM   18  C20 UNL     1     -24.677  -0.533   5.921  1.00  0.00     0.025 C
ENDBRANCH  11  13
ENDBRANCH   8   9
ENDBRANCH   7   8
ENDBRANCH   1   7
BRANCH   4  19
HETATM   19  S1  UNL     1     -15.745  -3.356   2.284  1.00  0.00     0.236 S
HETATM   20  O2  UNL     1     -16.491  -3.866   1.046  1.00  0.00    -0.205 OA
HETATM   21  O3  UNL     1     -15.160  -2.017   1.786  1.00  0.00    -0.205 OA
BRANCH  19  22
HETATM   22  C6  UNL     1     -14.378  -4.414   2.493  1.00  0.00     0.134 C
HETATM   23  C7  UNL     1     -14.651  -5.881   2.211  1.00  0.00     0.026 C
HETATM   24  C8  UNL     1     -13.302  -6.298   1.656  1.00  0.00    -0.013 C
HETATM   25  C9  UNL     1     -12.295  -6.041   2.755  1.00  0.00     0.005 C
HETATM   26  C12 UNL     1     -13.010  -5.129   0.727  1.00  0.00     0.010 C
HETATM   27  C10 UNL     1     -11.957  -4.544   2.688  1.00  0.00     0.006 C
HETATM   28  C11 UNL     1     -13.117  -4.043   1.814  1.00  0.00     0.006 C
ENDBRANCH  19  22
ENDBRANCH   4  19
TORSDOF 6
ENDMDL