MODEL 5
REMARK VINA RESULT: -8.247141270      0.922      1.113
REMARK  6 active torsions:
REMARK  status: ('A' for Active; 'I' for Inactive)
REMARK    1  A    between atoms: N1_2  and  S1_4
REMARK    2  A    between atoms: S1_4  and  N2_7
REMARK    3  A    between atoms: C5_10  and  C7_12
REMARK       I    between atoms: C7_12  and  N3_14
REMARK    4  A    between atoms: N3_14  and  C8_16
REMARK    5  A    between atoms: C11_19  and  O4_20
REMARK    6  A    between atoms: O4_20  and  C12_21
ROOT
HETATM    1  C7  UNL     1     -19.960  -2.344   4.766  1.00  0.00     0.227 C
HETATM    2  O3  UNL     1     -20.226  -3.565   4.874  1.00  0.00    -0.273 OA
HETATM    3  N3  UNL     1     -18.804  -1.859   4.098  1.00  0.00    -0.356 N
ATOM      4  H3  UNL     1     -18.654  -0.851   4.050  1.00  0.00     0.162 HD
ENDROOT
BRANCH   1   5
HETATM    5  C5  UNL     1     -20.904  -1.374   5.367  1.00  0.00     0.051 C
HETATM    6  C4  UNL     1     -21.333  -0.333   4.359  1.00  0.00     0.035 C
HETATM    7  C3  UNL     1     -22.818  -0.289   4.525  1.00  0.00     0.110 C
HETATM    8  N2  UNL     1     -23.126  -0.954   5.768  1.00  0.00    -0.196 NA
HETATM    9  C19 UNL     1     -22.192  -2.039   5.810  1.00  0.00     0.127 C
HETATM   10  C6  UNL     1     -20.269  -0.720   6.580  1.00  0.00     0.027 C
BRANCH   8  11
HETATM   11  S1  UNL     1     -24.769  -1.478   5.681  1.00  0.00     0.282 S
HETATM   12  O1  UNL     1     -25.006  -2.049   4.310  1.00  0.00    -0.194 OA
HETATM   13  O2  UNL     1     -25.073  -2.501   6.732  1.00  0.00    -0.194 OA
BRANCH  11  14
HETATM   14  N1  UNL     1     -25.761  -0.089   5.955  1.00  0.00    -0.206 NA
HETATM   15  C1  UNL     1     -26.553  -0.266   7.134  1.00  0.00     0.130 C
HETATM   16  C2  UNL     1     -26.517   0.279   4.787  1.00  0.00     0.130 C
ENDBRANCH  11  14
ENDBRANCH   8  11
ENDBRANCH   1   5
BRANCH   3  17
HETATM   17  C8  UNL     1     -17.830  -2.736   3.481  1.00  0.00     0.084 C
HETATM   18  C9  UNL     1     -17.447  -3.865   4.413  1.00  0.00     0.028 C
HETATM   19  C10 UNL     1     -16.535  -4.826   3.736  1.00  0.00     0.034 C
HETATM   20  C11 UNL     1     -16.068  -4.364   2.369  1.00  0.00     0.122 C
HETATM   21  C17 UNL     1     -17.229  -4.021   1.461  1.00  0.00     0.034 C
HETATM   22  C18 UNL     1     -18.353  -3.356   2.216  1.00  0.00     0.028 C
BRANCH  20  23
HETATM   23  O4  UNL     1     -15.308  -5.375   1.839  1.00  0.00    -0.381 OA
BRANCH  23  24
HETATM   24  C12 UNL     1     -13.982  -5.360   2.188  1.00  0.00     0.122 C
HETATM   25  C13 UNL     1     -13.585  -3.923   2.454  1.00  0.00     0.032 C
HETATM   26  C14 UNL     1     -12.672  -3.510   1.324  1.00  0.00     0.002 C
HETATM   27  C15 UNL     1     -12.787  -4.611   0.284  1.00  0.00     0.002 C
HETATM   28  C16 UNL     1     -13.036  -5.815   1.146  1.00  0.00     0.032 C
ENDBRANCH  23  24
ENDBRANCH  20  23
ENDBRANCH   3  17
TORSDOF 6
ENDMDL