MODEL 2
REMARK VINA RESULT: -7.972625259      0.907      1.005
REMARK  6 active torsions:
REMARK  status: ('A' for Active; 'I' for Inactive)
REMARK    1  A    between atoms: N2_14  and  C12_15
REMARK    2  A    between atoms: C12_15  and  C13_16
REMARK    3  A    between atoms: C12_15  and  C19_26
REMARK       I    between atoms: C13_16  and  N3_18
REMARK    4  A    between atoms: N3_18  and  C14_20
REMARK    5  A    between atoms: C14_20  and  C15_21
REMARK    6  A    between atoms: C15_21  and  N4_22
ROOT
HETATM    1  C12 UNL     1     -18.042  -4.014   3.330  1.00  0.00     0.318 C
ENDROOT
BRANCH   1   2
HETATM    2  N2  UNL     1     -18.190  -3.110   4.448  1.00  0.00     0.109 N
HETATM    3  C5  UNL     1     -19.114  -3.501   5.422  1.00  0.00     0.252 C
HETATM    4  C4  UNL     1     -20.496  -3.189   5.651  1.00  0.00     0.308 C
HETATM    5  C6  UNL     1     -18.439  -3.375   6.810  1.00  0.00     0.038 C
HETATM    6  N1  UNL     1     -20.829  -1.828   6.136  1.00  0.00     0.096 N
HETATM    7  C3  UNL     1     -21.972  -1.371   5.356  1.00  0.00     0.280 C
HETATM    8  C9  UNL     1     -19.733  -1.021   5.690  1.00  0.00     0.236 C
HETATM    9  C2  UNL     1     -21.761  -0.186   4.442  1.00  0.00     0.109 C
HETATM   10  C1  UNL     1     -20.517  -0.322   3.620  1.00  0.00     0.136 C
HETATM   11  O1  UNL     1     -20.255   0.291   2.656  1.00  0.00    -0.297 OA
HETATM   12  C10 UNL     1     -19.719  -1.358   4.264  1.00  0.00     0.117 C
HETATM   13  C11 UNL     1     -18.408  -1.787   3.834  1.00  0.00     0.288 C
HETATM   14  C8  UNL     1     -18.499  -0.937   6.456  1.00  0.00     0.037 C
HETATM   15  C7  UNL     1     -17.636  -2.107   6.671  1.00  0.00     0.004 C
ENDBRANCH   1   2
BRANCH   1  16
HETATM   16  C13 UNL     1     -16.785  -4.878   3.517  1.00  0.00     0.251 C
HETATM   17  O2  UNL     1     -15.958  -4.408   4.315  1.00  0.00    -0.271 OA
HETATM   18  N3  UNL     1     -16.612  -6.080   2.842  1.00  0.00    -0.358 N
ATOM     19  H3  UNL     1     -17.335  -6.402   2.198  1.00  0.00     0.162 HD
BRANCH  18  20
HETATM   20  C14 UNL     1     -15.431  -6.878   3.033  1.00  0.00     0.152 C
BRANCH  20  21
HETATM   21  C15 UNL     1     -14.263  -6.488   2.174  1.00  0.00     0.292 C
BRANCH  21  22
HETATM   22  N4  UNL     1     -13.265  -5.863   3.058  1.00  0.00     0.090 N
HETATM   23  C16 UNL     1     -11.947  -6.496   2.947  1.00  0.00     0.274 C
HETATM   24  C17 UNL     1     -11.337  -5.138   2.860  1.00  0.00     0.060 C
HETATM   25  C18 UNL     1     -12.718  -4.644   2.461  1.00  0.00     0.274 C
ENDBRANCH  21  22
ENDBRANCH  20  21
ENDBRANCH  18  20
ENDBRANCH   1  16
BRANCH   1  26
HETATM   26  C19 UNL     1     -17.668  -3.396   2.016  1.00  0.00     0.028 C
HETATM   27  C20 UNL     1     -18.057  -3.890   0.722  1.00  0.00     0.007 C
HETATM   28  C21 UNL     1     -17.299  -2.875  -0.188  1.00  0.00     0.000 C
HETATM   29  C22 UNL     1     -15.916  -3.072   0.419  1.00  0.00     0.000 C
HETATM   30  C23 UNL     1     -16.139  -3.290   1.891  1.00  0.00     0.007 C
ENDBRANCH   1  26
TORSDOF 6
ENDMDL