MODEL 2
REMARK VINA RESULT: -7.920554326      1.118      1.442
REMARK  7 active torsions:
REMARK  status: ('A' for Active; 'I' for Inactive)
REMARK    1  A    between atoms: N1_2  and  C2_3
REMARK    2  A    between atoms: N1_2  and  S1_10
REMARK    3  A    between atoms: C2_3  and  C3_4
REMARK    4  A    between atoms: C2_3  and  C6_7
REMARK    5  A    between atoms: S1_10  and  N2_13
REMARK    6  A    between atoms: C12_17  and  C13_18
REMARK       I    between atoms: C13_18  and  N3_20
REMARK    7  A    between atoms: N3_20  and  C14_22
ROOT
HETATM    1  N2  UNL     1     -18.719  -1.759   5.358  1.00  0.00    -0.197 NA
HETATM    2  C9  UNL     1     -18.143  -2.213   6.591  1.00  0.00     0.108 C
HETATM    3  C10 UNL     1     -16.780  -2.828   6.368  1.00  0.00     0.016 C
HETATM    4  C11 UNL     1     -16.801  -3.514   5.021  1.00  0.00     0.016 C
HETATM    5  C12 UNL     1     -16.799  -2.398   3.989  1.00  0.00     0.092 C
HETATM    6  C17 UNL     1     -17.744  -1.290   4.407  1.00  0.00     0.122 C
ENDROOT
BRANCH   1   7
HETATM    7  S1  UNL     1     -19.984  -0.674   5.676  1.00  0.00     0.283 S
HETATM    8  O1  UNL     1     -20.227  -0.720   7.181  1.00  0.00    -0.194 OA
HETATM    9  O2  UNL     1     -19.567   0.707   5.261  1.00  0.00    -0.194 OA
BRANCH   7  10
HETATM   10  N1  UNL     1     -21.430  -1.079   4.905  1.00  0.00    -0.196 NA
HETATM   11  C1  UNL     1     -21.848  -0.133   3.902  1.00  0.00     0.131 C
BRANCH  10  12
HETATM   12  C2  UNL     1     -22.489  -1.514   5.756  1.00  0.00     0.083 C
BRANCH  12  13
HETATM   13  C3  UNL     1     -22.633  -2.979   5.808  1.00  0.00     0.005 A
HETATM   14  C4  UNL     1     -21.569  -3.882   6.416  1.00  0.00     0.007 A
HETATM   15  C5  UNL     1     -22.906  -3.757   7.035  1.00  0.00     0.007 A
ENDBRANCH  12  13
BRANCH  12  16
HETATM   16  C6  UNL     1     -23.744  -0.777   5.388  1.00  0.00     0.005 A
HETATM   17  C7  UNL     1     -24.929  -0.744   6.257  1.00  0.00     0.007 A
HETATM   18  C8  UNL     1     -24.976  -1.457   4.917  1.00  0.00     0.007 A
ENDBRANCH  12  16
ENDBRANCH  10  12
ENDBRANCH   7  10
ENDBRANCH   1   7
BRANCH   5  19
HETATM   19  C13 UNL     1     -17.109  -2.949   2.671  1.00  0.00     0.229 C
HETATM   20  O3  UNL     1     -17.766  -2.262   1.852  1.00  0.00    -0.273 OA
HETATM   21  N3  UNL     1     -16.692  -4.242   2.273  1.00  0.00    -0.307 N
ATOM     22  H3  UNL     1     -17.340  -5.025   2.363  1.00  0.00     0.171 HD
BRANCH  21  23
HETATM   23  C14 UNL     1     -15.489  -4.456   1.790  1.00  0.00     0.150 A
HETATM   24  N4  UNL     1     -14.861  -3.756   0.847  1.00  0.00    -0.346 N
HETATM   25  C15 UNL     1     -13.654  -4.123   0.493  1.00  0.00     0.097 A
ATOM     26  H4  UNL     1     -15.311  -2.952   0.408  1.00  0.00     0.167 HD
HETATM   27  C16 UNL     1     -13.114  -5.214   1.124  1.00  0.00     0.070 A
HETATM   28  S2  UNL     1     -14.363  -5.660   2.194  1.00  0.00    -0.064 SA
ENDBRANCH  21  23
ENDBRANCH   5  19
TORSDOF 7
ENDMDL