MODEL 2
REMARK VINA RESULT: -7.821788818      1.931      7.384
REMARK  7 active torsions:
REMARK  status: ('A' for Active; 'I' for Inactive)
REMARK    1  A    between atoms: C2_2  and  N1_4
REMARK    2  A    between atoms: C7_9  and  C8_10
REMARK       I    between atoms: C8_10  and  N2_12
REMARK    3  A    between atoms: N2_12  and  N3_14
REMARK    4  A    between atoms: N3_14  and  C9_15
REMARK    5  A    between atoms: N3_14  and  S1_18
REMARK    6  A    between atoms: S1_18  and  N4_21
REMARK    7  A    between atoms: N4_21  and  C13_23
ROOT
HETATM    1  N3  UNL     1     -17.183  -2.101   4.128  1.00  0.00    -0.097 NA
ENDROOT
BRANCH   1   2
HETATM    2  N2  UNL     1     -16.585  -3.089   3.381  1.00  0.00    -0.272 N
HETATM    3  C8  UNL     1     -15.763  -2.832   2.239  1.00  0.00     0.256 C
HETATM    4  O2  UNL     1     -15.578  -1.642   1.919  1.00  0.00    -0.270 OA
ATOM      5  H2  UNL     1     -16.737  -4.059   3.657  1.00  0.00     0.185 HD
BRANCH   3   6
HETATM    6  C7  UNL     1     -15.137  -3.900   1.418  1.00  0.00     0.181 C
HETATM    7  N1  UNL     1     -14.442  -4.853   2.283  1.00  0.00    -0.335 N
HETATM    8  C4  UNL     1     -15.409  -5.776   2.729  1.00  0.00     0.221 C
HETATM    9  O1  UNL     1     -15.252  -6.521   3.743  1.00  0.00    -0.273 OA
HETATM   10  C5  UNL     1     -16.607  -5.759   1.870  1.00  0.00     0.105 C
HETATM   11  C6  UNL     1     -16.243  -4.736   0.840  1.00  0.00     0.044 C
BRANCH   7  12
HETATM   12  C2  UNL     1     -13.019  -4.764   2.610  1.00  0.00     0.080 C
HETATM   13  C1  UNL     1     -12.345  -6.107   2.303  1.00  0.00     0.032 C
HETATM   14  C3  UNL     1     -12.272  -3.725   1.868  1.00  0.00     0.032 C
ENDBRANCH   7  12
ENDBRANCH   3   6
ENDBRANCH   1   2
BRANCH   1  15
HETATM   15  C9  UNL     1     -16.973  -2.197   5.509  1.00  0.00     0.090 C
HETATM   16  C10 UNL     1     -15.857  -1.266   5.993  1.00  0.00     0.029 C
HETATM   17  C11 UNL     1     -16.668  -3.567   6.061  1.00  0.00     0.029 C
ENDBRANCH   1  15
BRANCH   1  18
HETATM   18  S1  UNL     1     -18.851  -2.043   3.690  1.00  0.00     0.318 S
HETATM   19  O3  UNL     1     -18.857  -1.297   2.337  1.00  0.00    -0.187 OA
HETATM   20  O4  UNL     1     -19.294  -3.452   3.285  1.00  0.00    -0.187 OA
BRANCH  18  21
HETATM   21  N4  UNL     1     -19.878  -1.310   4.761  1.00  0.00    -0.296 N
HETATM   22  C12 UNL     1     -19.898   0.081   4.787  1.00  0.00     0.164 C
BRANCH  21  23
HETATM   23  C13 UNL     1     -21.004  -1.958   5.266  1.00  0.00     0.096 C
HETATM   24  C14 UNL     1     -20.724  -2.902   6.421  1.00  0.00     0.026 C
HETATM   25  C15 UNL     1     -21.979  -3.651   6.743  1.00  0.00     0.002 C
HETATM   26  C16 UNL     1     -23.168  -3.142   5.990  1.00  0.00     0.000 C
HETATM   27  C17 UNL     1     -23.320  -1.657   5.992  1.00  0.00     0.002 C
HETATM   28  C18 UNL     1     -22.015  -0.942   5.767  1.00  0.00     0.026 C
ENDBRANCH  21  23
ENDBRANCH  18  21
ENDBRANCH   1  18
TORSDOF 7
ENDMDL