MODEL 4
REMARK VINA RESULT: -7.869221895      0.543      1.092
REMARK  6 active torsions:
REMARK  status: ('A' for Active; 'I' for Inactive)
REMARK    1  A    between atoms: S1_2  and  N1_5
REMARK    2  A    between atoms: N1_5  and  C2_6
REMARK    3  A    between atoms: N1_5  and  C14_23
REMARK    4  A    between atoms: C2_6  and  C3_7
REMARK       I    between atoms: C3_7  and  N2_9
REMARK    5  A    between atoms: N2_9  and  C4_11
REMARK    6  A    between atoms: N3_14  and  C7_15
ROOT
HETATM    1  C3  UNL     1     -16.965  -2.729   4.817  1.00  0.00     0.236 C
HETATM    2  O3  UNL     1     -16.305  -3.128   5.814  1.00  0.00    -0.272 OA
HETATM    3  N2  UNL     1     -18.378  -2.616   4.855  1.00  0.00    -0.346 N
ATOM      4  H2  UNL     1     -18.902  -2.291   4.042  1.00  0.00     0.163 HD
ENDROOT
BRANCH   1   5
HETATM    5  C2  UNL     1     -16.269  -2.359   3.554  1.00  0.00     0.238 C
BRANCH   5   6
HETATM    6  N1  UNL     1     -16.350  -3.332   2.531  1.00  0.00    -0.298 N
BRANCH   6   7
HETATM    7  S1  UNL     1     -17.662  -3.236   1.486  1.00  0.00     0.225 S
HETATM    8  C1  UNL     1     -17.311  -3.792  -0.157  1.00  0.00     0.186 C
HETATM    9  O1  UNL     1     -18.795  -4.059   2.025  1.00  0.00    -0.206 OA
HETATM   10  O2  UNL     1     -18.135  -1.816   1.399  1.00  0.00    -0.206 OA
ENDBRANCH   6   7
BRANCH   6  11
HETATM   11  C14 UNL     1     -15.189  -3.957   2.090  1.00  0.00     0.096 C
HETATM   12  C15 UNL     1     -13.921  -3.267   2.552  1.00  0.00     0.026 C
HETATM   13  C16 UNL     1     -12.815  -3.825   1.642  1.00  0.00     0.002 C
HETATM   14  C17 UNL     1     -12.584  -5.249   2.118  1.00  0.00     0.000 C
HETATM   15  C18 UNL     1     -13.831  -6.055   1.983  1.00  0.00     0.002 C
HETATM   16  C19 UNL     1     -15.060  -5.400   2.571  1.00  0.00     0.026 C
ENDBRANCH   6  11
ENDBRANCH   5   6
ENDBRANCH   1   5
BRANCH   3  17
HETATM   17  C4  UNL     1     -19.053  -2.977   6.087  1.00  0.00     0.178 C
HETATM   18  C5  UNL     1     -18.992  -1.790   7.016  1.00  0.00     0.054 C
HETATM   19  C6  UNL     1     -19.991  -0.851   6.379  1.00  0.00     0.129 C
HETATM   20  N3  UNL     1     -21.082  -1.723   6.035  1.00  0.00    -0.346 N
HETATM   21  C13 UNL     1     -20.529  -3.011   5.795  1.00  0.00     0.243 C
HETATM   22  O4  UNL     1     -21.106  -4.040   5.406  1.00  0.00    -0.271 OA
BRANCH  20  23
HETATM   23  C7  UNL     1     -22.473  -1.346   5.953  1.00  0.00     0.087 C
HETATM   24  C8  UNL     1     -23.344  -2.535   6.209  1.00  0.00     0.025 C
HETATM   25  C9  UNL     1     -24.474  -2.581   5.222  1.00  0.00     0.002 C
HETATM   26  C10 UNL     1     -25.145  -1.203   5.189  1.00  0.00     0.000 C
HETATM   27  C11 UNL     1     -24.205  -0.210   4.535  1.00  0.00     0.002 C
HETATM   28  C12 UNL     1     -22.804  -0.759   4.597  1.00  0.00     0.025 C
ENDBRANCH  20  23
ENDBRANCH   3  17
TORSDOF 6
ENDMDL