MODEL 5
REMARK VINA RESULT: -8.278552133      0.944      1.881
REMARK  6 active torsions:
REMARK  status: ('A' for Active; 'I' for Inactive)
REMARK       I    between atoms: C1_2  and  N1_3
REMARK    1  A    between atoms: C1_2  and  C11_15
REMARK    2  A    between atoms: N1_3  and  C2_5
REMARK    3  A    between atoms: C2_5  and  C3_6
REMARK    4  A    between atoms: N2_10  and  C7_11
REMARK    5  A    between atoms: N3_20  and  C15_21
REMARK    6  A    between atoms: C15_21  and  C16_22
ROOT
HETATM    1  C11 UNL     1     -17.679  -2.537   2.222  1.00  0.00     0.171 C
HETATM    2  C12 UNL     1     -18.038  -3.970   1.848  1.00  0.00     0.033 C
HETATM    3  C13 UNL     1     -17.424  -4.209   0.480  1.00  0.00     0.105 C
HETATM    4  C14 UNL     1     -16.124  -3.499   0.354  1.00  0.00     0.230 C
HETATM    5  O2  UNL     1     -15.642  -3.251  -0.794  1.00  0.00    -0.273 OA
HETATM    6  N3  UNL     1     -15.413  -3.095   1.556  1.00  0.00    -0.266 N
HETATM    7  C22 UNL     1     -16.250  -2.551   2.584  1.00  0.00     0.243 C
HETATM    8  O3  UNL     1     -15.725  -2.160   3.629  1.00  0.00    -0.272 OA
ENDROOT
BRANCH   1   9
HETATM    9  C1  UNL     1     -18.597  -1.962   3.203  1.00  0.00     0.234 C
HETATM   10  O1  UNL     1     -19.280  -0.999   2.882  1.00  0.00    -0.272 OA
HETATM   11  N1  UNL     1     -18.644  -2.560   4.478  1.00  0.00    -0.340 N
ATOM     12  H1  UNL     1     -17.994  -3.340   4.581  1.00  0.00     0.167 HD
BRANCH  11  13
HETATM   13  C2  UNL     1     -19.388  -2.311   5.624  1.00  0.00     0.070 C
BRANCH  13  14
HETATM   14  C3  UNL     1     -20.875  -2.212   5.547  1.00  0.00     0.042 C
HETATM   15  C4  UNL     1     -21.413  -0.856   5.735  1.00  0.00     0.013 C
HETATM   16  C5  UNL     1     -22.931  -0.858   5.813  1.00  0.00     0.020 C
HETATM   17  C6  UNL     1     -23.429  -2.272   5.705  1.00  0.00     0.117 C
HETATM   18  N2  UNL     1     -22.830  -3.021   6.742  1.00  0.00    -0.407 N
HETATM   19  C10 UNL     1     -21.447  -3.167   6.623  1.00  0.00     0.127 C
BRANCH  18  20
HETATM   20  C7  UNL     1     -23.557  -4.152   7.201  1.00  0.00     0.079 A
HETATM   21  C8  UNL     1     -24.661  -3.833   8.220  1.00  0.00     0.027 A
HETATM   22  C9  UNL     1     -23.453  -4.623   8.611  1.00  0.00     0.027 A
ENDBRANCH  18  20
ENDBRANCH  13  14
ENDBRANCH  11  13
ENDBRANCH   1   9
BRANCH   6  23
HETATM   23  C15 UNL     1     -14.016  -3.245   1.575  1.00  0.00     0.080 C
BRANCH  23  24
HETATM   24  C16 UNL     1     -13.476  -4.613   1.849  1.00  0.00     0.025 C
HETATM   25  C17 UNL     1     -12.188  -4.438   2.653  1.00  0.00     0.010 C
HETATM   26  C18 UNL     1     -11.604  -5.739   3.098  1.00  0.00     0.001 C
HETATM   27  C19 UNL     1     -12.307  -6.929   2.489  1.00  0.00     0.000 C
HETATM   28  C20 UNL     1     -13.783  -6.888   2.681  1.00  0.00     0.001 C
HETATM   29  C21 UNL     1     -14.377  -5.493   2.677  1.00  0.00     0.010 C
ENDBRANCH  23  24
ENDBRANCH   6  23
TORSDOF 6
ENDMDL