MODEL 2
REMARK VINA RESULT: -8.850947691      1.338      1.972
REMARK  6 active torsions:
REMARK  status: ('A' for Active; 'I' for Inactive)
REMARK    1  A    between atoms: C3_3  and  C5_5
REMARK    2  A    between atoms: C6_6  and  C7_7
REMARK    3  A    between atoms: C11_12  and  C12_13
REMARK    4  A    between atoms: C12_13  and  N1_14
REMARK       I    between atoms: N1_14  and  C13_16
REMARK       I    between atoms: C13_16  and  N2_18
REMARK    5  A    between atoms: N3_21  and  C16_22
REMARK    6  A    between atoms: C16_22  and  C17_23
ROOT
HETATM    1  C1  UNL     1     -12.868  -5.769   0.016  1.00  0.00     0.012 C
HETATM    2  C2  UNL     1     -12.929  -5.309   1.126  1.00  0.00    -0.109 C
HETATM    3  C3  UNL     1     -13.023  -4.722   2.499  1.00  0.00     0.082 C
HETATM    4  C4  UNL     1     -11.591  -4.640   3.014  1.00  0.00     0.027 C
ENDROOT
BRANCH   3   5
HETATM    5  C5  UNL     1     -13.632  -3.410   2.357  1.00  0.00    -0.014 C
HETATM    6  C6  UNL     1     -14.883  -3.134   2.587  1.00  0.00    -0.022 C
BRANCH   6   7
HETATM    7  C7  UNL     1     -15.868  -4.137   3.030  1.00  0.00     0.039 C
HETATM    8  C8  UNL     1     -17.024  -4.201   2.041  1.00  0.00     0.013 C
HETATM    9  C9  UNL     1     -18.144  -3.435   2.724  1.00  0.00     0.035 C
HETATM   10  C10 UNL     1     -17.934  -3.935   4.160  1.00  0.00     0.151 C
HETATM   11  O1  UNL     1     -18.772  -3.298   5.044  1.00  0.00    -0.374 OA
HETATM   12  C23 UNL     1     -16.480  -3.652   4.351  1.00  0.00     0.158 C
HETATM   13  C11 UNL     1     -18.563  -1.947   5.155  1.00  0.00     0.163 C
HETATM   14  C22 UNL     1     -17.102  -1.680   5.372  1.00  0.00     0.201 C
HETATM   15  O3  UNL     1     -16.300  -2.292   4.413  1.00  0.00    -0.380 OA
BRANCH  13  16
HETATM   16  C12 UNL     1     -19.355  -1.370   6.284  1.00  0.00     0.158 C
BRANCH  16  17
HETATM   17  N1  UNL     1     -20.697  -1.026   5.937  1.00  0.00    -0.340 N
HETATM   18  C13 UNL     1     -21.749  -1.923   6.182  1.00  0.00     0.318 C
HETATM   19  O2  UNL     1     -21.510  -3.032   6.707  1.00  0.00    -0.247 OA
HETATM   20  N2  UNL     1     -23.087  -1.593   5.842  1.00  0.00    -0.331 N
HETATM   21  C14 UNL     1     -24.136  -2.538   6.118  1.00  0.00     0.158 C
HETATM   22  C21 UNL     1     -23.343  -0.318   5.234  1.00  0.00     0.158 C
HETATM   23  C15 UNL     1     -25.252  -2.407   5.110  1.00  0.00     0.292 C
HETATM   24  N3  UNL     1     -25.704  -1.026   5.063  1.00  0.00     0.091 N
HETATM   25  C20 UNL     1     -24.684  -0.133   4.616  1.00  0.00     0.292 C
ATOM     26  H1  UNL     1     -20.892  -0.122   5.509  1.00  0.00     0.164 HD
BRANCH  24  27
HETATM   27  C16 UNL     1     -26.891  -0.933   4.270  1.00  0.00     0.277 C
BRANCH  27  28
HETATM   28  C17 UNL     1     -26.746  -1.916   3.121  1.00  0.00     0.014 A
HETATM   29  C18 UNL     1     -26.535  -1.438   1.738  1.00  0.00     0.007 A
HETATM   30  C19 UNL     1     -27.845  -2.064   2.132  1.00  0.00     0.007 A
ENDBRANCH  27  28
ENDBRANCH  24  27
ENDBRANCH  16  17
ENDBRANCH  13  16
ENDBRANCH   6   7
ENDBRANCH   3   5
TORSDOF 6
ENDMDL