MODEL 3
REMARK VINA RESULT: -7.322404107      1.341      1.650
REMARK  12 active torsions:
REMARK  status: ('A' for Active; 'I' for Inactive)
REMARK    1  A    between atoms: C2_2  and  C3_3
REMARK    2  A    between atoms: C3_3  and  C4_4
REMARK    3  A    between atoms: C4_4  and  C5_5
REMARK    4  A    between atoms: C5_5  and  C6_6
REMARK    5  A    between atoms: C6_6  and  C7_7
REMARK    6  A    between atoms: C10_13  and  C11_14
REMARK    7  A    between atoms: C13_16  and  C14_17
REMARK    8  A    between atoms: C14_17  and  C15_18
REMARK    9  A    between atoms: C22_29  and  C23_30
REMARK   10  A    between atoms: C23_30  and  C24_31
REMARK   11  A    between atoms: C24_31  and  C25_32
REMARK   12  A    between atoms: C25_32  and  N3_33
ROOT
HETATM    1  C7  UNL     1      23.937  46.351  43.390  1.00  0.00    -0.004 C
HETATM    2  C8  UNL     1      23.234  45.053  43.223  1.00  0.00     0.142 C
HETATM    3  C9  UNL     1      22.379  44.696  44.385  1.00  0.00     0.222 C
HETATM    4  O1  UNL     1      23.005  44.088  45.342  1.00  0.00    -0.273 OA
HETATM    5  N1  UNL     1      21.036  44.907  44.610  1.00  0.00    -0.351 N
ATOM      6  H1  UNL     1      20.828  45.381  45.488  1.00  0.00     0.163 HD
HETATM    7  C10 UNL     1      19.863  44.574  43.817  1.00  0.00     0.130 C
HETATM    8  C13 UNL     1      19.587  45.596  42.773  1.00  0.00     0.016 C
HETATM    9  N2  UNL     1      19.122  46.873  43.262  1.00  0.00    -0.330 N
ATOM     10  H2  UNL     1      18.216  47.180  42.909  1.00  0.00     0.168 HD
HETATM   11  C21 UNL     1      19.757  47.745  44.159  1.00  0.00     0.244 C
HETATM   12  O2  UNL     1      19.024  48.243  45.105  1.00  0.00    -0.271 OA
HETATM   13  C22 UNL     1      21.169  48.184  44.177  1.00  0.00     0.177 C
HETATM   14  N6  UNL     1      21.919  47.932  42.987  1.00  0.00    -0.344 N
ATOM     15  H6  UNL     1      21.401  48.064  42.118  1.00  0.00     0.163 HD
HETATM   16  C27 UNL     1      23.241  47.538  42.824  1.00  0.00     0.244 C
HETATM   17  O3  UNL     1      23.957  48.309  42.084  1.00  0.00    -0.268 OA
ENDROOT
BRANCH   8  18
HETATM   18  C14 UNL     1      18.961  45.143  41.498  1.00  0.00     0.093 C
BRANCH  18  19
HETATM   19  C15 UNL     1      17.594  45.478  41.197  1.00  0.00    -0.050 A
HETATM   20  C16 UNL     1      16.516  44.704  41.589  1.00  0.00     0.007 A
HETATM   21  C17 UNL     1      15.211  45.019  41.298  1.00  0.00     0.004 A
HETATM   22  C18 UNL     1      14.945  46.163  40.580  1.00  0.00     0.042 A
HETATM   23  C19 UNL     1      15.978  46.961  40.169  1.00  0.00     0.116 A
HETATM   24  F1  UNL     1      15.731  48.084  39.467  1.00  0.00    -0.206 F
HETATM   25  C20 UNL     1      17.274  46.607  40.482  1.00  0.00     0.049 A
ENDBRANCH  18  19
ENDBRANCH   8  18
BRANCH   7  26
HETATM   26  C11 UNL     1      18.651  44.455  44.741  1.00  0.00     0.026 C
HETATM   27  C12 UNL     1      17.692  43.388  44.253  1.00  0.00     0.007 C
ENDBRANCH   7  26
BRANCH  13  28
HETATM   28  C23 UNL     1      21.213  49.717  44.396  1.00  0.00     0.036 C
BRANCH  28  29
HETATM   29  C24 UNL     1      22.634  50.170  44.592  1.00  0.00     0.022 C
BRANCH  29  30
HETATM   30  C25 UNL     1      22.782  51.148  45.720  1.00  0.00     0.122 C
BRANCH  30  31
HETATM   31  N3  UNL     1      22.656  52.505  45.229  1.00  0.00    -0.367 N
HETATM   32  C26 UNL     1      23.568  53.386  45.374  1.00  0.00     0.196 C
HETATM   33  N4  UNL     1      24.771  53.015  46.053  1.00  0.00    -0.067 NA
HETATM   34  N5  UNL     1      23.469  54.711  44.904  1.00  0.00    -0.067 NA
ATOM     35  H3  UNL     1      21.798  52.768  44.743  1.00  0.00     0.161 HD
ENDBRANCH  30  31
ENDBRANCH  29  30
ENDBRANCH  28  29
ENDBRANCH  13  28
BRANCH   1  36
HETATM   36  C6  UNL     1      25.404  46.392  43.101  1.00  0.00     0.040 C
BRANCH  36  37
HETATM   37  C5  UNL     1      26.380  46.238  44.171  1.00  0.00     0.004 C
BRANCH  37  38
HETATM   38  C4  UNL     1      26.951  44.959  44.577  1.00  0.00     0.000 C
BRANCH  38  39
HETATM   39  C3  UNL     1      28.427  44.750  44.379  1.00  0.00    -0.000 C
BRANCH  39  40
HETATM   40  C2  UNL     1      29.131  45.936  43.752  1.00  0.00    -0.005 C
HETATM   41  C1  UNL     1      29.457  46.855  44.938  1.00  0.00     0.005 C
ENDBRANCH  39  40
ENDBRANCH  38  39
ENDBRANCH  37  38
ENDBRANCH  36  37
ENDBRANCH   1  36
TORSDOF 12
ENDMDL