MODEL 1
REMARK VINA RESULT: -8.742870530      0.000      0.000
REMARK  14 active torsions:
REMARK  status: ('A' for Active; 'I' for Inactive)
REMARK    1  A    between atoms: C2_2  and  C3_3
REMARK    2  A    between atoms: C3_3  and  C4_4
REMARK    3  A    between atoms: C4_4  and  N1_5
REMARK       I    between atoms: N1_5  and  C5_7
REMARK       I    between atoms: C5_7  and  N2_9
REMARK    4  A    between atoms: N2_9  and  C6_11
REMARK    5  A    between atoms: C8_13  and  N3_14
REMARK    6  A    between atoms: N3_14  and  C9_16
REMARK    7  A    between atoms: C9_16  and  C10_17
REMARK    8  A    between atoms: C10_17  and  N4_18
REMARK    9  A    between atoms: C15_25  and  N6_26
REMARK       I    between atoms: N6_26  and  C16_28
REMARK   10  A    between atoms: N8_30  and  C17_32
REMARK   11  A    between atoms: C17_32  and  C18_33
REMARK   12  A    between atoms: C18_33  and  C19_34
REMARK   13  A    between atoms: C19_34  and  C20_35
REMARK   14  A    between atoms: C20_35  and  C21_36
ROOT
HETATM    1  C6  UNL     1      22.978  47.948  42.918  1.00  0.00     0.128 A
HETATM    2  C7  UNL     1      23.331  49.252  43.242  1.00  0.00     0.098 A
HETATM    3  C8  UNL     1      22.419  50.010  43.943  1.00  0.00     0.120 A
HETATM    4  N5  UNL     1      21.233  49.481  44.290  1.00  0.00    -0.177 N
ATOM      5  H5  UNL     1      20.575  50.061  44.808  1.00  0.00     0.186 HD
HETATM    6  C15 UNL     1      20.871  48.201  43.978  1.00  0.00     0.687 A
HETATM    7  N9  UNL     1      21.775  47.479  43.295  1.00  0.00    -0.176 N
ATOM      8  H9  UNL     1      21.535  46.518  43.047  1.00  0.00     0.186 HD
ENDROOT
BRANCH   6   9
HETATM    9  N6  UNL     1      19.714  47.749  44.346  1.00  0.00    -0.163 N
HETATM   10  C16 UNL     1      19.486  46.388  44.614  1.00  0.00     0.202 C
HETATM   11  N7  UNL     1      20.084  45.832  45.781  1.00  0.00    -0.063 NA
HETATM   12  N8  UNL     1      18.752  45.727  43.795  1.00  0.00    -0.364 N
ATOM     13  H8  UNL     1      18.345  46.171  42.972  1.00  0.00     0.162 HD
ATOM     14  H6  UNL     1      18.939  48.406  44.444  1.00  0.00     0.187 HD
BRANCH  12  15
HETATM   15  C17 UNL     1      18.523  44.312  44.085  1.00  0.00     0.122 C
BRANCH  15  16
HETATM   16  C18 UNL     1      17.568  43.748  43.072  1.00  0.00     0.020 C
BRANCH  16  17
HETATM   17  C19 UNL     1      17.529  44.647  41.868  1.00  0.00     0.002 C
BRANCH  17  18
HETATM   18  C20 UNL     1      16.137  44.653  41.296  1.00  0.00     0.011 C
BRANCH  18  19
HETATM   19  C21 UNL     1      16.223  45.288  39.916  1.00  0.00     0.085 C
HETATM   20 BR1  UNL     1      15.228  46.945  39.948  1.00  0.00    -0.097 Br
ENDBRANCH  18  19
ENDBRANCH  17  18
ENDBRANCH  16  17
ENDBRANCH  15  16
ENDBRANCH  12  15
ENDBRANCH   6   9
BRANCH   3  21
HETATM   21  N3  UNL     1      22.760  51.346  44.281  1.00  0.00    -0.374 N
ATOM     22  H3  UNL     1      23.152  51.973  43.579  1.00  0.00     0.161 HD
BRANCH  21  23
HETATM   23  C9  UNL     1      22.542  51.804  45.639  1.00  0.00     0.151 C
BRANCH  23  24
HETATM   24  C10 UNL     1      23.573  51.173  46.553  1.00  0.00     0.292 C
BRANCH  24  25
HETATM   25  N4  UNL     1      22.876  50.328  47.520  1.00  0.00     0.090 N
HETATM   26  C11 UNL     1      23.350  50.704  48.830  1.00  0.00     0.272 C
HETATM   27  C12 UNL     1      23.638  49.398  49.560  1.00  0.00     0.032 C
HETATM   28  C13 UNL     1      24.164  48.542  48.416  1.00  0.00     0.032 C
HETATM   29  C14 UNL     1      23.238  48.964  47.289  1.00  0.00     0.272 C
ENDBRANCH  24  25
ENDBRANCH  23  24
ENDBRANCH  21  23
ENDBRANCH   3  21
BRANCH   1  30
HETATM   30  N2  UNL     1      23.846  47.251  42.268  1.00  0.00    -0.294 N
HETATM   31  C5  UNL     1      24.661  46.354  43.056  1.00  0.00     0.321 C
HETATM   32  N1  UNL     1      24.117  45.121  43.472  1.00  0.00    -0.343 N
HETATM   33  O1  UNL     1      25.813  46.738  43.322  1.00  0.00    -0.247 OA
ATOM     34  H1  UNL     1      23.158  44.894  43.208  1.00  0.00     0.164 HD
ATOM     35  H2  UNL     1      23.951  47.329  41.257  1.00  0.00     0.172 HD
BRANCH  32  36
HETATM   36  C4  UNL     1      24.861  44.172  44.251  1.00  0.00     0.124 C
BRANCH  36  37
HETATM   37  C3  UNL     1      23.989  43.432  45.209  1.00  0.00     0.019 C
BRANCH  37  38
HETATM   38  C2  UNL     1      22.551  43.548  44.719  1.00  0.00    -0.003 C
HETATM   39  C1  UNL     1      21.625  42.633  45.484  1.00  0.00     0.005 C
ENDBRANCH  37  38
ENDBRANCH  36  37
ENDBRANCH  32  36
ENDBRANCH   1  30
TORSDOF 14
ENDMDL