MODEL 4
REMARK VINA RESULT: -6.845332492      1.769      2.507
REMARK  15 active torsions:
REMARK  status: ('A' for Active; 'I' for Inactive)
REMARK    1  A    between atoms: C3_3  and  N1_4
REMARK    2  A    between atoms: N1_4  and  C4_6
REMARK    3  A    between atoms: C4_6  and  N2_7
REMARK    4  A    between atoms: N2_7  and  N3_8
REMARK    5  A    between atoms: C5_11  and  N4_12
REMARK       I    between atoms: N4_12  and  C6_14
REMARK    6  A    between atoms: C6_14  and  C7_16
REMARK    7  A    between atoms: C7_16  and  C8_17
REMARK    8  A    between atoms: C8_17  and  C9_18
REMARK    9  A    between atoms: C15_24  and  C16_25
REMARK   10  A    between atoms: C16_25  and  C17_26
REMARK   11  A    between atoms: N6_35  and  C23_36
REMARK   12  A    between atoms: C24_37  and  C25_38
REMARK   13  A    between atoms: C25_38  and  N7_39
REMARK   14  A    between atoms: C25_38  and  C26_43
REMARK   15  A    between atoms: C26_43  and  C27_44
ROOT
HETATM    1  C1  UNL     1      17.766  43.835  44.716  1.00  0.00     0.073 C
HETATM    2  C2  UNL     1      18.828  44.627  44.062  1.00  0.00     0.059 A
HETATM    3  C3  UNL     1      19.911  45.028  44.855  1.00  0.00     0.087 A
HETATM    4  C5  UNL     1      20.946  45.741  44.287  1.00  0.00     0.088 A
HETATM    5  C15 UNL     1      20.862  46.025  42.957  1.00  0.00     0.059 A
HETATM    6  N5  UNL     1      19.782  45.604  42.257  1.00  0.00    -0.296 N
ATOM      7  H5  UNL     1      19.751  45.834  41.264  1.00  0.00     0.187 HD
HETATM    8  N6  UNL     1      18.746  44.906  42.763  1.00  0.00    -0.270 N
ENDROOT
BRANCH   4   9
HETATM    9  N4  UNL     1      21.978  46.170  45.141  1.00  0.00    -0.324 N
HETATM   10  C6  UNL     1      22.015  47.506  45.688  1.00  0.00     0.222 C
HETATM   11  O1  UNL     1      21.064  48.234  45.341  1.00  0.00    -0.273 OA
ATOM     12  H4  UNL     1      22.724  45.517  45.383  1.00  0.00     0.169 HD
BRANCH  10  13
HETATM   13  C7  UNL     1      23.084  47.945  46.567  1.00  0.00     0.108 C
BRANCH  13  14
HETATM   14  C8  UNL     1      23.158  49.371  46.950  1.00  0.00     0.047 C
BRANCH  14  15
HETATM   15  C9  UNL     1      23.335  49.713  48.346  1.00  0.00    -0.058 A
HETATM   16  C10 UNL     1      23.854  50.913  48.751  1.00  0.00     0.007 A
HETATM   17  C11 UNL     1      24.010  51.235  50.104  1.00  0.00     0.001 A
HETATM   18  C12 UNL     1      23.635  50.329  51.058  1.00  0.00     0.000 A
HETATM   19  C13 UNL     1      23.118  49.133  50.670  1.00  0.00     0.001 A
HETATM   20  C14 UNL     1      22.959  48.805  49.344  1.00  0.00     0.007 A
ENDBRANCH  14  15
ENDBRANCH  13  14
ENDBRANCH  10  13
ENDBRANCH   4   9
BRANCH   3  21
HETATM   21  N1  UNL     1      19.926  44.695  46.255  1.00  0.00    -0.336 N
ATOM     22  H1  UNL     1      19.581  45.348  46.958  1.00  0.00     0.168 HD
BRANCH  21  23
HETATM   23  C4  UNL     1      20.441  43.421  46.623  1.00  0.00     0.301 C
BRANCH  23  24
HETATM   24  N2  UNL     1      21.595  43.046  46.255  1.00  0.00    -0.328 NA
BRANCH  24  25
HETATM   25  N3  UNL     1      22.649  42.503  45.891  1.00  0.00    -0.279 N
ATOM     26  H32 UNL     1      22.080  41.705  45.606  1.00  0.00     0.191 HD
ATOM     27  H31 UNL     1      23.587  42.188  45.641  1.00  0.00     0.191 HD
ENDBRANCH  24  25
ENDBRANCH  23  24
ENDBRANCH  21  23
ENDBRANCH   3  21
BRANCH   5  28
HETATM   28  C16 UNL     1      21.911  46.792  42.201  1.00  0.00     0.099 C
BRANCH  28  29
HETATM   29  C17 UNL     1      23.251  46.579  42.774  1.00  0.00    -0.052 A
HETATM   30  C18 UNL     1      23.697  45.283  43.066  1.00  0.00     0.009 A
HETATM   31  C19 UNL     1      24.960  45.065  43.553  1.00  0.00     0.024 A
HETATM   32  C20 UNL     1      25.810  46.130  43.761  1.00  0.00     0.034 A
HETATM   33 CL1  UNL     1      27.420  45.916  44.373  1.00  0.00    -0.084 Cl
HETATM   34  C21 UNL     1      25.365  47.423  43.470  1.00  0.00     0.024 A
HETATM   35  C22 UNL     1      24.097  47.620  42.983  1.00  0.00     0.009 A
ENDBRANCH  28  29
ENDBRANCH   5  28
BRANCH   8  36
HETATM   36  C23 UNL     1      17.682  44.572  41.922  1.00  0.00     0.114 C
HETATM   37  C24 UNL     1      16.489  44.948  41.727  1.00  0.00     0.025 C
BRANCH  37  38
HETATM   38  C25 UNL     1      15.663  44.254  40.648  1.00  0.00     0.212 C
BRANCH  38  39
HETATM   39  N7  UNL     1      14.325  44.727  40.584  1.00  0.00    -0.071 N
ATOM     40  H73 UNL     1      13.664  43.950  40.590  1.00  0.00     0.275 HD
ATOM     41  H72 UNL     1      14.057  45.181  41.457  1.00  0.00     0.275 HD
ATOM     42  H71 UNL     1      14.157  45.341  39.787  1.00  0.00     0.275 HD
ENDBRANCH  38  39
BRANCH  38  43
HETATM   43  C26 UNL     1      16.383  44.291  39.338  1.00  0.00     0.080 C
BRANCH  43  44
HETATM   44  C27 UNL     1      15.940  43.126  38.530  1.00  0.00     0.055 C
HETATM   45  N8  UNL     1      15.531  42.029  39.049  1.00  0.00    -0.411 N
ATOM     46  H82 UNL     1      15.515  41.970  40.067  1.00  0.00     0.155 HD
ATOM     47  H81 UNL     1      15.226  41.230  38.494  1.00  0.00     0.155 HD
ENDBRANCH  43  44
ENDBRANCH  38  43
ENDBRANCH  37  38
ENDBRANCH   8  36
TORSDOF 15
ENDMDL