MODEL 5
REMARK VINA RESULT: -8.466928361      0.994      1.129
REMARK  15 active torsions:
REMARK  status: ('A' for Active; 'I' for Inactive)
REMARK    1  A    between atoms: C4_5  and  C5_6
REMARK    2  A    between atoms: C5_6  and  N2_7
REMARK       I    between atoms: N2_7  and  C6_9
REMARK    3  A    between atoms: N4_11  and  C7_13
REMARK    4  A    between atoms: C7_13  and  C8_14
REMARK    5  A    between atoms: C8_14  and  C9_15
REMARK    6  A    between atoms: C9_15  and  C10_16
REMARK    7  A    between atoms: C10_16  and  C11_17
REMARK    8  A    between atoms: C11_17  and  C12_18
REMARK    9  A    between atoms: C12_18  and  C13_19
REMARK   10  A    between atoms: C13_19  and  C14_20
REMARK       I    between atoms: C14_20  and  N5_22
REMARK   11  A    between atoms: N5_22  and  C15_23
REMARK   12  A    between atoms: C22_34  and  N8_35
REMARK   13  A    between atoms: N8_35  and  C23_37
REMARK   14  A    between atoms: C23_37  and  C24_38
REMARK   15  A    between atoms: C24_38  and  N9_39
ROOT
HETATM    1  C14 UNL     1      22.814  49.118  44.160  1.00  0.00     0.293 C
HETATM    2  O1  UNL     1      22.891  49.815  43.092  1.00  0.00    -0.257 OA
HETATM    3  N5  UNL     1      23.116  49.640  45.324  1.00  0.00    -0.348 NA
ENDROOT
BRANCH   1   4
HETATM    4  C13 UNL     1      22.364  47.711  43.934  1.00  0.00     0.119 C
BRANCH   4   5
HETATM    5  C12 UNL     1      23.021  46.948  42.874  1.00  0.00     0.010 C
BRANCH   5   6
HETATM    6  C11 UNL     1      22.553  45.597  42.515  1.00  0.00     0.001 C
BRANCH   6   7
HETATM    7  C10 UNL     1      23.402  44.491  43.142  1.00  0.00     0.000 C
BRANCH   7   8
HETATM    8  C9  UNL     1      23.152  44.373  44.606  1.00  0.00     0.002 C
BRANCH   8   9
HETATM    9  C8  UNL     1      22.491  43.068  44.944  1.00  0.00     0.020 C
BRANCH   9  10
HETATM   10  C7  UNL     1      21.027  43.251  45.276  1.00  0.00     0.122 C
BRANCH  10  11
HETATM   11  N4  UNL     1      20.772  44.675  45.462  1.00  0.00    -0.365 N
HETATM   12  C6  UNL     1      19.750  45.195  44.892  1.00  0.00     0.184 C
HETATM   13  N2  UNL     1      18.903  44.370  44.101  1.00  0.00    -0.360 N
HETATM   14  N3  UNL     1      19.456  46.573  45.043  1.00  0.00    -0.064 NA
ATOM     15  H2  UNL     1      18.226  43.742  44.536  1.00  0.00     0.162 HD
ATOM     16  H4  UNL     1      21.395  45.245  46.035  1.00  0.00     0.162 HD
BRANCH  13  17
HETATM   17  C5  UNL     1      19.028  44.445  42.683  1.00  0.00     0.161 C
BRANCH  17  18
HETATM   18  C4  UNL     1      17.840  44.901  41.959  1.00  0.00    -0.036 A
HETATM   19  C3  UNL     1      16.733  44.064  41.969  1.00  0.00     0.026 A
HETATM   20  C2  UNL     1      15.563  44.400  41.316  1.00  0.00     0.092 A
HETATM   21  N1  UNL     1      15.463  45.563  40.647  1.00  0.00    -0.352 N
HETATM   22  C1  UNL     1      14.216  45.868  39.979  1.00  0.00     0.156 C
HETATM   23  C26 UNL     1      16.511  46.383  40.623  1.00  0.00     0.105 A
HETATM   24  C25 UNL     1      17.705  46.080  41.266  1.00  0.00     0.051 A
HETATM   25 CL1  UNL     1      16.412  47.891  39.761  1.00  0.00    -0.064 Cl
ENDBRANCH  17  18
ENDBRANCH  13  17
ENDBRANCH  10  11
ENDBRANCH   9  10
ENDBRANCH   8   9
ENDBRANCH   7   8
ENDBRANCH   6   7
ENDBRANCH   5   6
ENDBRANCH   4   5
ENDBRANCH   1   4
BRANCH   3  26
HETATM   26  C15 UNL     1      23.296  50.009  46.465  1.00  0.00     0.227 A
HETATM   27  N6  UNL     1      23.083  49.171  47.535  1.00  0.00    -0.326 N
HETATM   28  C16 UNL     1      23.245  49.547  48.798  1.00  0.00     0.061 A
ATOM     29  H6  UNL     1      22.785  48.213  47.350  1.00  0.00     0.169 HD
HETATM   30  C17 UNL     1      23.010  48.645  49.846  1.00  0.00     0.032 A
HETATM   31  C21 UNL     1      23.645  50.832  49.069  1.00  0.00     0.060 A
HETATM   32  C18 UNL     1      23.171  49.017  51.156  1.00  0.00     0.002 A
HETATM   33  C19 UNL     1      23.572  50.307  51.423  1.00  0.00     0.002 A
HETATM   34  C20 UNL     1      23.804  51.196  50.381  1.00  0.00     0.032 A
HETATM   35  N7  UNL     1      23.865  51.682  48.055  1.00  0.00    -0.337 N
HETATM   36  C22 UNL     1      23.706  51.313  46.796  1.00  0.00     0.161 A
ATOM     37  H7  UNL     1      24.162  52.636  48.260  1.00  0.00     0.167 HD
BRANCH  36  38
HETATM   38  N8  UNL     1      23.943  52.124  45.847  1.00  0.00    -0.371 N
ATOM     39  H8  UNL     1      23.378  51.989  45.008  1.00  0.00     0.161 HD
BRANCH  38  40
HETATM   40  C23 UNL     1      24.878  53.189  45.781  1.00  0.00     0.148 C
BRANCH  40  41
HETATM   41  C24 UNL     1      24.293  54.531  45.395  1.00  0.00     0.249 C
BRANCH  41  42
HETATM   42  N9  UNL     1      22.888  54.485  45.120  1.00  0.00    -0.078 N
ATOM     43  H93 UNL     1      22.353  54.425  45.986  1.00  0.00     0.274 HD
ATOM     44  H92 UNL     1      22.558  55.387  44.778  1.00  0.00     0.274 HD
ATOM     45  H91 UNL     1      22.623  53.737  44.479  1.00  0.00     0.274 HD
ENDBRANCH  41  42
ENDBRANCH  40  41
ENDBRANCH  38  40
ENDBRANCH  36  38
ENDBRANCH   3  26
TORSDOF 15
ENDMDL