MODEL 5
REMARK VINA RESULT: -8.298007707      3.093      8.393
REMARK  12 active torsions:
REMARK  status: ('A' for Active; 'I' for Inactive)
REMARK    1  A    between atoms: C5_5  and  C6_6
REMARK    2  A    between atoms: C6_6  and  C7_7
REMARK    3  A    between atoms: C7_7  and  C9_9
REMARK    4  A    between atoms: C7_7  and  N1_12
REMARK    5  A    between atoms: C14_15  and  C15_16
REMARK    6  A    between atoms: C15_16  and  C16_17
REMARK    7  A    between atoms: C16_17  and  C17_18
REMARK    8  A    between atoms: C17_18  and  N2_19
REMARK    9  A    between atoms: C19_26  and  C20_27
REMARK   10  A    between atoms: C20_27  and  C21_28
REMARK   11  A    between atoms: C21_28  and  C22_29
REMARK   12  A    between atoms: C22_29  and  N6_30
REMARK       I    between atoms: N6_30  and  C23_32
ROOT
HETATM    1  N1  UNL     1      21.237  46.037  43.991  1.00  0.00    -0.338 N
HETATM    2  C12 UNL     1      21.243  46.896  45.145  1.00  0.00     0.129 C
HETATM    3  C13 UNL     1      22.360  47.871  45.244  1.00  0.00     0.044 C
HETATM    4  C14 UNL     1      22.574  48.848  44.175  1.00  0.00     0.079 C
HETATM    5  N5  UNL     1      22.368  48.442  42.841  1.00  0.00    -0.405 N
ATOM      6  H5  UNL     1      21.829  49.019  42.195  1.00  0.00     0.154 HD
HETATM    7  C19 UNL     1      22.926  47.216  42.422  1.00  0.00     0.170 C
HETATM    8  C24 UNL     1      22.237  46.004  43.005  1.00  0.00     0.243 C
HETATM    9  O1  UNL     1      22.628  44.927  42.540  1.00  0.00    -0.271 OA
ENDROOT
BRANCH   1  10
HETATM   10  C7  UNL     1      20.086  45.082  43.821  1.00  0.00     0.054 C
HETATM   11  C8  UNL     1      19.010  45.775  44.635  1.00  0.00     0.044 C
BRANCH  10  12
HETATM   12  C6  UNL     1      19.686  45.141  42.397  1.00  0.00     0.017 C
BRANCH  12  13
HETATM   13  C5  UNL     1      18.356  45.354  41.912  1.00  0.00    -0.016 A
HETATM   14  C4  UNL     1      17.973  46.383  41.094  1.00  0.00     0.013 A
HETATM   15  C3  UNL     1      16.702  46.539  40.603  1.00  0.00     0.007 A
HETATM   16  C2  UNL     1      15.702  45.648  40.906  1.00  0.00    -0.060 A
HETATM   17  C1  UNL     1      14.329  45.821  40.369  1.00  0.00     0.048 C
HETATM   18  C26 UNL     1      16.054  44.597  41.734  1.00  0.00     0.031 A
HETATM   19  C25 UNL     1      17.332  44.449  42.224  1.00  0.00     0.044 A
HETATM   20 CL1  UNL     1      17.530  43.129  43.361  1.00  0.00    -0.083 Cl
ENDBRANCH  12  13
ENDBRANCH  10  12
BRANCH  10  21
HETATM   21  C9  UNL     1      20.548  43.814  44.404  1.00  0.00     0.017 A
HETATM   22  C10 UNL     1      20.176  43.512  45.897  1.00  0.00     0.008 A
HETATM   23  C11 UNL     1      21.556  43.402  45.315  1.00  0.00     0.008 A
ENDBRANCH  10  21
ENDBRANCH   1  10
BRANCH   7  24
HETATM   24  C20 UNL     1      24.399  47.062  42.572  1.00  0.00     0.036 C
BRANCH  24  25
HETATM   25  C21 UNL     1      24.784  46.075  43.648  1.00  0.00     0.022 C
BRANCH  25  26
HETATM   26  C22 UNL     1      25.968  46.495  44.463  1.00  0.00     0.122 C
BRANCH  26  27
HETATM   27  N6  UNL     1      26.998  45.480  44.300  1.00  0.00    -0.365 N
HETATM   28  C23 UNL     1      28.357  45.839  44.124  1.00  0.00     0.181 C
HETATM   29  N7  UNL     1      29.104  45.281  43.249  1.00  0.00    -0.374 N
HETATM   30  N8  UNL     1      28.895  46.857  44.956  1.00  0.00    -0.064 NA
ATOM     31  H72 UNL     1      28.717  44.550  42.652  1.00  0.00     0.158 HD
ATOM     32  H71 UNL     1      30.082  45.540  43.123  1.00  0.00     0.158 HD
ATOM     33  H6  UNL     1      26.737  44.494  44.312  1.00  0.00     0.162 HD
ENDBRANCH  26  27
ENDBRANCH  25  26
ENDBRANCH  24  25
ENDBRANCH   7  24
BRANCH   4  34
HETATM   34  C15 UNL     1      21.687  50.063  44.466  1.00  0.00     0.026 C
BRANCH  34  35
HETATM   35  C16 UNL     1      22.508  51.303  44.695  1.00  0.00     0.022 C
BRANCH  35  36
HETATM   36  C17 UNL     1      23.640  50.952  45.659  1.00  0.00     0.122 C
BRANCH  36  37
HETATM   37  N2  UNL     1      23.234  51.133  47.025  1.00  0.00    -0.367 N
HETATM   38  C18 UNL     1      23.433  50.340  47.996  1.00  0.00     0.196 C
HETATM   39  N3  UNL     1      24.123  49.125  47.790  1.00  0.00    -0.067 NA
HETATM   40  N4  UNL     1      22.969  50.656  49.291  1.00  0.00    -0.067 NA
ATOM     41  H2  UNL     1      22.730  51.993  47.238  1.00  0.00     0.161 HD
ENDBRANCH  36  37
ENDBRANCH  35  36
ENDBRANCH  34  35
ENDBRANCH   4  34
TORSDOF 12
ENDMDL