MODEL 2
REMARK VINA RESULT: -10.278863215      1.054      1.396
REMARK  14 active torsions:
REMARK  status: ('A' for Active; 'I' for Inactive)
REMARK    1  A    between atoms: C3_3  and  C4_4
REMARK    2  A    between atoms: C4_4  and  C5_5
REMARK    3  A    between atoms: C5_5  and  S1_6
REMARK    4  A    between atoms: S1_6  and  C6_7
REMARK    5  A    between atoms: C6_7  and  C7_8
REMARK    6  A    between atoms: C14_22  and  C15_23
REMARK    7  A    between atoms: C15_23  and  N4_24
REMARK    8  A    between atoms: C15_23  and  N7_39
REMARK    9  A    between atoms: N4_24  and  C16_25
REMARK   10  A    between atoms: C16_25  and  C17_26
REMARK   11  A    between atoms: C17_26  and  N5_27
REMARK   12  A    between atoms: C18_29  and  C19_31
REMARK   13  A    between atoms: C19_31  and  C20_32
REMARK   14  A    between atoms: N7_39  and  N8_41
ROOT
HETATM    1  C15 UNL     1      21.658  44.505  44.079  1.00  0.00     0.204 C
ENDROOT
BRANCH   1   2
HETATM    2  C14 UNL     1      22.323  45.632  43.444  1.00  0.00     0.030 A
HETATM    3  C2  UNL     1      22.514  46.881  44.011  1.00  0.00    -0.041 A
HETATM    4  C1  UNL     1      21.847  47.197  45.287  1.00  0.00     0.050 C
HETATM    5  C3  UNL     1      23.245  47.880  43.436  1.00  0.00    -0.051 A
HETATM    6  C11 UNL     1      23.833  47.622  42.184  1.00  0.00     0.007 A
HETATM    7  C12 UNL     1      23.672  46.416  41.577  1.00  0.00     0.002 A
HETATM    8  C13 UNL     1      22.915  45.420  42.216  1.00  0.00     0.017 A
BRANCH   5   9
HETATM    9  C4  UNL     1      23.554  49.215  43.964  1.00  0.00     0.049 C
BRANCH   9  10
HETATM   10  C5  UNL     1      22.368  50.105  43.624  1.00  0.00     0.079 C
BRANCH  10  11
HETATM   11  S1  UNL     1      21.898  51.075  45.074  1.00  0.00    -0.161 SA
BRANCH  11  12
HETATM   12  C6  UNL     1      23.413  51.438  46.002  1.00  0.00     0.150 C
BRANCH  12  13
HETATM   13  C7  UNL     1      23.436  50.624  47.223  1.00  0.00     0.091 A
HETATM   14  N1  UNL     1      23.700  51.353  48.377  1.00  0.00    -0.332 N
HETATM   15  C8  UNL     1      23.726  50.700  49.558  1.00  0.00     0.101 A
ATOM     16  H1  UNL     1      23.869  52.359  48.333  1.00  0.00     0.168 HD
HETATM   17  N2  UNL     1      23.986  51.386  50.633  1.00  0.00    -0.385 N
HETATM   18  C9  UNL     1      23.510  49.362  49.690  1.00  0.00     0.065 A
ATOM     19  H22 UNL     1      24.147  52.388  50.534  1.00  0.00     0.157 HD
ATOM     20  H21 UNL     1      24.006  50.892  51.525  1.00  0.00     0.157 HD
HETATM   21  C10 UNL     1      23.244  48.627  48.502  1.00  0.00     0.093 A
HETATM   22  N3  UNL     1      23.228  49.337  47.361  1.00  0.00    -0.355 N
ATOM     23  H3  UNL     1      23.033  48.815  46.506  1.00  0.00     0.166 HD
ENDBRANCH  12  13
ENDBRANCH  11  12
ENDBRANCH  10  11
ENDBRANCH   9  10
ENDBRANCH   5   9
ENDBRANCH   1   2
BRANCH   1  24
HETATM   24  N4  UNL     1      20.528  44.075  44.199  1.00  0.00    -0.400 NA
BRANCH  24  25
HETATM   25  C16 UNL     1      19.314  43.600  44.311  1.00  0.00     0.177 C
BRANCH  25  26
HETATM   26  C17 UNL     1      18.013  44.233  44.128  1.00  0.00     0.180 C
BRANCH  26  27
HETATM   27  N5  UNL     1      17.291  43.885  42.899  1.00  0.00    -0.376 N
HETATM   28  C18 UNL     1      17.670  44.452  41.832  1.00  0.00     0.093 C
HETATM   29  N6  UNL     1      18.736  45.385  41.828  1.00  0.00    -0.088 NA
ATOM     30  H5  UNL     1      16.519  43.218  42.904  1.00  0.00     0.160 HD
BRANCH  28  31
HETATM   31  C19 UNL     1      17.047  44.139  40.489  1.00  0.00     0.111 C
BRANCH  31  32
HETATM   32  C20 UNL     1      15.934  45.141  40.388  1.00  0.00    -0.051 A
HETATM   33  C21 UNL     1      16.256  46.392  39.830  1.00  0.00     0.009 A
HETATM   34  C22 UNL     1      15.241  47.298  39.789  1.00  0.00     0.024 A
HETATM   35  C23 UNL     1      13.985  47.024  40.252  1.00  0.00     0.034 A
HETATM   36 CL1  UNL     1      12.759  48.267  40.145  1.00  0.00    -0.084 Cl
HETATM   37  C24 UNL     1      13.699  45.790  40.790  1.00  0.00     0.024 A
HETATM   38  C25 UNL     1      14.704  44.830  40.856  1.00  0.00     0.009 A
ENDBRANCH  31  32
ENDBRANCH  28  31
ENDBRANCH  26  27
ENDBRANCH  25  26
ENDBRANCH  24  25
ENDBRANCH   1  24
BRANCH   1  39
HETATM   39  N7  UNL     1      22.594  43.586  44.779  1.00  0.00    -0.259 N
ATOM     40  H7  UNL     1      23.564  43.517  44.471  1.00  0.00     0.191 HD
BRANCH  39  41
HETATM   41  N8  UNL     1      22.155  42.829  45.844  1.00  0.00    -0.247 N
HETATM   42  N9  UNL     1      21.895  41.591  45.839  1.00  0.00    -0.331 N
ATOM     43  H92 UNL     1      22.030  41.119  44.945  1.00  0.00     0.178 HD
ATOM     44  H91 UNL     1      21.569  41.031  46.626  1.00  0.00     0.178 HD
ATOM     45  H8  UNL     1      22.025  43.319  46.729  1.00  0.00     0.207 HD
ENDBRANCH  39  41
ENDBRANCH   1  39
TORSDOF 14
ENDMDL