MODEL 5
REMARK VINA RESULT: -8.952298390      1.815      2.680
REMARK  13 active torsions:
REMARK  status: ('A' for Active; 'I' for Inactive)
REMARK    1  A    between atoms: N1_1  and  C1_4
REMARK    2  A    between atoms: C5_9  and  C6_10
REMARK    3  A    between atoms: C6_10  and  C7_11
REMARK    4  A    between atoms: C7_11  and  C8_12
REMARK    5  A    between atoms: C7_11  and  C22_32
REMARK       I    between atoms: C8_12  and  N2_14
REMARK    6  A    between atoms: N2_14  and  C9_15
REMARK    7  A    between atoms: N2_14  and  C13_23
REMARK    8  A    between atoms: C9_15  and  C10_16
REMARK    9  A    between atoms: C10_16  and  C11_17
REMARK   10  A    between atoms: C11_17  and  N3_18
REMARK   11  A    between atoms: C13_23  and  C14_24
REMARK   12  A    between atoms: C14_24  and  C15_25
REMARK   13  A    between atoms: C15_25  and  C16_26
ROOT
HETATM    1  C7  UNL     1      21.330  47.166  43.731  1.00  0.00     0.135 C
ENDROOT
BRANCH   1   2
HETATM    2  C6  UNL     1      21.220  48.627  43.930  1.00  0.00     0.077 C
BRANCH   2   3
HETATM    3  C5  UNL     1      22.002  49.312  44.927  1.00  0.00     0.013 A
HETATM    4  C4  UNL     1      22.334  50.651  44.745  1.00  0.00     0.044 A
HETATM    5  C3  UNL     1      23.111  51.288  45.671  1.00  0.00     0.016 A
HETATM    6  C2  UNL     1      23.562  50.603  46.781  1.00  0.00     0.067 A
HETATM    7 BR1  UNL     1      23.556  53.135  45.398  1.00  0.00    -0.051 Br
HETATM    8  C1  UNL     1      23.232  49.278  46.956  1.00  0.00     0.100 A
HETATM    9  N8  UNL     1      22.465  48.686  46.022  1.00  0.00    -0.346 N
ATOM     10  H8  UNL     1      22.222  47.705  46.154  1.00  0.00     0.167 HD
BRANCH   8  11
HETATM   11  N1  UNL     1      23.663  48.649  48.003  1.00  0.00    -0.385 N
ATOM     12  H12 UNL     1      24.196  47.782  47.939  1.00  0.00     0.157 HD
ATOM     13  H11 UNL     1      23.467  49.027  48.930  1.00  0.00     0.157 HD
ENDBRANCH   8  11
ENDBRANCH   2   3
ENDBRANCH   1   2
BRANCH   1  14
HETATM   14  C8  UNL     1      20.100  46.387  43.589  1.00  0.00     0.233 C
HETATM   15  O1  UNL     1      19.201  46.870  42.822  1.00  0.00    -0.272 OA
HETATM   16  N2  UNL     1      19.840  45.140  44.252  1.00  0.00    -0.331 N
BRANCH  16  17
HETATM   17  C9  UNL     1      20.689  44.414  45.107  1.00  0.00     0.068 C
BRANCH  17  18
HETATM   18  C10 UNL     1      21.766  43.578  44.497  1.00  0.00     0.064 C
BRANCH  18  19
HETATM   19  C11 UNL     1      23.018  43.465  45.344  1.00  0.00     0.127 C
BRANCH  19  20
HETATM   20  N3  UNL     1      24.190  43.871  44.555  1.00  0.00    -0.367 N
HETATM   21  C12 UNL     1      24.675  45.061  44.612  1.00  0.00     0.196 C
HETATM   22  N4  UNL     1      25.817  45.374  43.813  1.00  0.00    -0.067 NA
HETATM   23  N5  UNL     1      24.160  46.108  45.419  1.00  0.00    -0.067 NA
ATOM     24  H3  UNL     1      24.635  43.187  43.943  1.00  0.00     0.161 HD
ENDBRANCH  19  20
ENDBRANCH  18  19
ENDBRANCH  17  18
ENDBRANCH  16  17
BRANCH  16  25
HETATM   25  C13 UNL     1      18.492  44.592  43.983  1.00  0.00     0.131 C
BRANCH  25  26
HETATM   26  C14 UNL     1      18.318  44.145  42.569  1.00  0.00     0.025 C
BRANCH  26  27
HETATM   27  C15 UNL     1      16.918  43.862  42.137  1.00  0.00     0.040 C
BRANCH  27  28
HETATM   28  C16 UNL     1      16.351  45.015  41.347  1.00  0.00    -0.058 A
HETATM   29  C17 UNL     1      17.165  45.832  40.597  1.00  0.00     0.007 A
HETATM   30  C18 UNL     1      16.615  46.879  39.885  1.00  0.00     0.001 A
HETATM   31  C19 UNL     1      15.258  47.127  39.908  1.00  0.00     0.000 A
HETATM   32  C20 UNL     1      14.409  46.312  40.662  1.00  0.00     0.001 A
HETATM   33  C21 UNL     1      14.998  45.280  41.356  1.00  0.00     0.007 A
ENDBRANCH  27  28
ENDBRANCH  26  27
ENDBRANCH  25  26
ENDBRANCH  16  25
ENDBRANCH   1  14
BRANCH   1  34
HETATM   34  C22 UNL     1      22.298  46.761  42.694  1.00  0.00     0.039 A
HETATM   35  C23 UNL     1      23.412  47.410  42.240  1.00  0.00     0.114 A
HETATM   36  N6  UNL     1      24.018  46.673  41.302  1.00  0.00    -0.360 N
HETATM   37  C24 UNL     1      23.294  45.549  41.151  1.00  0.00     0.180 A
ATOM     38  H6  UNL     1      24.869  46.917  40.796  1.00  0.00     0.166 HD
HETATM   39  N7  UNL     1      22.248  45.612  42.003  1.00  0.00    -0.354 N
ATOM     40  H7  UNL     1      21.529  44.894  42.106  1.00  0.00     0.166 HD
ENDBRANCH   1  34
TORSDOF 13
ENDMDL