MODEL 3
REMARK VINA RESULT: -8.801073164      2.766      9.297
REMARK  14 active torsions:
REMARK  status: ('A' for Active; 'I' for Inactive)
REMARK    1  A    between atoms: C2_2  and  N1_3
REMARK    2  A    between atoms: C2_2  and  C4_8
REMARK       I    between atoms: C4_8  and  N4_10
REMARK    3  A    between atoms: N4_10  and  C5_12
REMARK    4  A    between atoms: C5_12  and  C6_13
REMARK    5  A    between atoms: C9_16  and  C10_17
REMARK    6  A    between atoms: C10_17  and  C11_18
REMARK    7  A    between atoms: C11_18  and  C12_19
REMARK    8  A    between atoms: C12_19  and  N5_20
REMARK    9  A    between atoms: N5_20  and  C13_22
REMARK   10  A    between atoms: C14_25  and  C15_26
REMARK   11  A    between atoms: C18_31  and  N8_32
REMARK   12  A    between atoms: N8_32  and  C19_34
REMARK   13  A    between atoms: C19_34  and  C20_35
REMARK   14  A    between atoms: C20_35  and  C21_36
ROOT
HETATM    1  N5  UNL     1      24.205  47.357  45.677  1.00  0.00    -0.205 N
ATOM      2  H5  UNL     1      23.911  46.426  45.972  1.00  0.00     0.183 HD
ENDROOT
BRANCH   1   3
HETATM    3  C12 UNL     1      24.862  47.428  44.432  1.00  0.00     0.079 C
BRANCH   3   4
HETATM    4  C11 UNL     1      24.453  46.469  43.369  1.00  0.00     0.049 C
BRANCH   4   5
HETATM    5  C10 UNL     1      24.117  45.079  43.882  1.00  0.00     0.043 C
BRANCH   5   6
HETATM    6  C9  UNL     1      22.662  44.926  43.952  1.00  0.00    -0.058 A
HETATM    7  C8  UNL     1      22.168  43.858  44.690  1.00  0.00     0.007 A
HETATM    8  C7  UNL     1      20.800  43.705  44.742  1.00  0.00     0.009 A
HETATM    9  C6  UNL     1      19.958  44.573  44.093  1.00  0.00    -0.041 A
HETATM   10  C28 UNL     1      20.474  45.614  43.376  1.00  0.00     0.009 A
HETATM   11  C27 UNL     1      21.833  45.813  43.289  1.00  0.00     0.007 A
BRANCH   9  12
HETATM   12  C5  UNL     1      18.501  44.379  44.183  1.00  0.00     0.161 C
BRANCH  12  13
HETATM   13  N4  UNL     1      17.857  45.157  43.147  1.00  0.00    -0.355 N
HETATM   14  C4  UNL     1      17.532  44.581  41.899  1.00  0.00     0.240 C
HETATM   15  O1  UNL     1      17.801  43.384  41.671  1.00  0.00    -0.271 OA
ATOM     16  H4  UNL     1      17.634  46.137  43.321  1.00  0.00     0.162 HD
BRANCH  14  17
HETATM   17  C2  UNL     1      16.874  45.388  40.847  1.00  0.00     0.171 C
HETATM   18  C1  UNL     1      17.476  44.921  39.523  1.00  0.00     0.042 C
BRANCH  17  19
HETATM   19  N1  UNL     1      15.465  45.150  40.878  1.00  0.00    -0.354 N
HETATM   20  C3  UNL     1      14.579  46.033  40.589  1.00  0.00     0.197 C
HETATM   21  N2  UNL     1      14.934  47.365  40.204  1.00  0.00    -0.067 NA
HETATM   22  N3  UNL     1      13.224  45.617  40.668  1.00  0.00    -0.067 NA
ATOM     23  H1  UNL     1      15.144  44.220  41.147  1.00  0.00     0.162 HD
ENDBRANCH  17  19
ENDBRANCH  14  17
ENDBRANCH  12  13
ENDBRANCH   9  12
ENDBRANCH   5   6
ENDBRANCH   4   5
ENDBRANCH   3   4
ENDBRANCH   1   3
BRANCH   1  24
HETATM   24  C13 UNL     1      23.931  48.308  46.485  1.00  0.00     0.697 A
HETATM   25  N6  UNL     1      24.138  48.310  47.807  1.00  0.00    -0.179 N
HETATM   26  C14 UNL     1      23.820  49.344  48.586  1.00  0.00     0.117 A
ATOM     27  H6  UNL     1      24.557  47.485  48.236  1.00  0.00     0.185 HD
HETATM   28  N7  UNL     1      23.258  50.456  48.042  1.00  0.00    -0.179 N
HETATM   29  C18 UNL     1      23.027  50.509  46.719  1.00  0.00     0.694 A
ATOM     30  H7  UNL     1      23.013  51.247  48.635  1.00  0.00     0.185 HD
HETATM   31  N9  UNL     1      23.360  49.453  45.974  1.00  0.00    -0.022 N
ATOM     32  H9  UNL     1      23.183  49.496  44.970  1.00  0.00     0.203 HD
BRANCH  26  33
HETATM   33  C15 UNL     1      24.048  49.340  50.063  1.00  0.00     0.054 A
HETATM   34  C16 UNL     1      23.722  50.575  50.826  1.00  0.00     0.013 A
HETATM   35  C17 UNL     1      22.855  49.295  50.954  1.00  0.00     0.013 A
ENDBRANCH  26  33
BRANCH  29  36
HETATM   36  N8  UNL     1      22.497  51.546  46.201  1.00  0.00    -0.225 N
ATOM     37  H8  UNL     1      21.510  51.686  46.414  1.00  0.00     0.177 HD
BRANCH  36  38
HETATM   38  C19 UNL     1      23.084  52.532  45.373  1.00  0.00     0.142 C
BRANCH  38  39
HETATM   39  C20 UNL     1      24.436  53.007  45.862  1.00  0.00     0.058 C
BRANCH  39  40
HETATM   40  C21 UNL     1      24.739  54.379  45.380  1.00  0.00    -0.057 A
HETATM   41  C22 UNL     1      23.715  55.126  44.844  1.00  0.00     0.007 A
HETATM   42  C23 UNL     1      24.021  56.396  44.401  1.00  0.00     0.001 A
HETATM   43  C24 UNL     1      25.303  56.901  44.490  1.00  0.00     0.000 A
HETATM   44  C25 UNL     1      26.340  56.152  45.031  1.00  0.00     0.001 A
HETATM   45  C26 UNL     1      26.024  54.880  45.472  1.00  0.00     0.007 A
ENDBRANCH  39  40
ENDBRANCH  38  39
ENDBRANCH  36  38
ENDBRANCH  29  36
ENDBRANCH   1  24
TORSDOF 14
ENDMDL