MODEL 2
REMARK VINA RESULT: -9.559412133      0.933      1.372
REMARK  15 active torsions:
REMARK  status: ('A' for Active; 'I' for Inactive)
REMARK    1  A    between atoms: C2_2  and  C3_3
REMARK    2  A    between atoms: C3_3  and  N1_4
REMARK       I    between atoms: C4_6  and  N3_8
REMARK    3  A    between atoms: N3_8  and  C5_10
REMARK    4  A    between atoms: C5_10  and  C6_11
REMARK    5  A    between atoms: C6_11  and  C7_12
REMARK    6  A    between atoms: C7_12  and  N4_13
REMARK    7  A    between atoms: C8_15  and  N5_17
REMARK    8  A    between atoms: N5_17  and  C10_19
REMARK    9  A    between atoms: C10_19  and  C11_20
REMARK   10  A    between atoms: C11_20  and  N6_21
REMARK   11  A    between atoms: N7_24  and  C14_25
REMARK   12  A    between atoms: C14_25  and  C15_26
REMARK   13  A    between atoms: C15_26  and  C16_27
REMARK   14  A    between atoms: C16_27  and  N8_28
REMARK   15  A    between atoms: N8_28  and  C17_30
ROOT
HETATM    1  N6  UNL     1      22.546  44.034  44.568  1.00  0.00    -0.388 N
HETATM    2  C12 UNL     1      21.921  45.243  44.290  1.00  0.00     0.152 C
HETATM    3  C13 UNL     1      20.513  45.209  44.916  1.00  0.00     0.292 C
HETATM    4  N7  UNL     1      19.982  43.879  44.671  1.00  0.00     0.091 N
HETATM    5  C24 UNL     1      20.621  43.033  45.683  1.00  0.00     0.292 C
HETATM    6  C25 UNL     1      22.103  43.251  45.663  1.00  0.00     0.152 C
ENDROOT
BRANCH   1   7
HETATM    7  C11 UNL     1      23.788  43.676  44.011  1.00  0.00     0.077 C
BRANCH   7   8
HETATM    8  C10 UNL     1      25.017  44.116  44.713  1.00  0.00     0.165 C
BRANCH   8   9
HETATM    9  N5  UNL     1      25.183  45.536  44.855  1.00  0.00    -0.376 N
ATOM     10  H5  UNL     1      24.641  46.058  45.543  1.00  0.00     0.161 HD
BRANCH   9  11
HETATM   11  C8  UNL     1      26.112  46.190  44.022  1.00  0.00     0.069 C
HETATM   12  N4  UNL     1      25.605  47.006  43.137  1.00  0.00    -0.380 N
ATOM     13  H4  UNL     1      26.231  47.504  42.504  1.00  0.00     0.160 HD
HETATM   14  C9  UNL     1      27.558  46.024  44.068  1.00  0.00     0.088 C
BRANCH  12  15
HETATM   15  C7  UNL     1      24.165  47.224  43.031  1.00  0.00     0.122 C
BRANCH  15  16
HETATM   16  C6  UNL     1      23.870  48.677  42.842  1.00  0.00     0.039 C
BRANCH  16  17
HETATM   17  C5  UNL     1      23.922  49.448  44.133  1.00  0.00     0.123 C
BRANCH  17  18
HETATM   18  N3  UNL     1      23.163  48.721  45.111  1.00  0.00    -0.365 N
HETATM   19  C4  UNL     1      23.553  48.633  46.474  1.00  0.00     0.183 C
HETATM   20  N1  UNL     1      23.052  49.420  47.355  1.00  0.00    -0.365 N
HETATM   21  N2  UNL     1      24.523  47.648  46.888  1.00  0.00    -0.064 NA
ATOM     22  H1  UNL     1      22.364  50.123  47.084  1.00  0.00     0.162 HD
ATOM     23  H3  UNL     1      22.309  48.249  44.815  1.00  0.00     0.162 HD
BRANCH  20  24
HETATM   24  C3  UNL     1      23.465  49.303  48.735  1.00  0.00     0.122 C
BRANCH  24  25
HETATM   25  C2  UNL     1      23.459  50.703  49.340  1.00  0.00     0.015 C
HETATM   26  C1  UNL     1      23.820  50.668  50.794  1.00  0.00     0.006 C
ENDBRANCH  24  25
ENDBRANCH  20  24
ENDBRANCH  17  18
ENDBRANCH  16  17
ENDBRANCH  15  16
ENDBRANCH  12  15
ENDBRANCH   9  11
ENDBRANCH   8   9
ENDBRANCH   7   8
ENDBRANCH   1   7
BRANCH   4  27
HETATM   27  C14 UNL     1      18.572  43.786  44.629  1.00  0.00     0.277 C
BRANCH  27  28
HETATM   28  C15 UNL     1      18.005  44.658  43.518  1.00  0.00     0.074 C
BRANCH  28  29
HETATM   29  C16 UNL     1      18.427  44.133  42.168  1.00  0.00     0.064 C
BRANCH  29  30
HETATM   30  N8  UNL     1      17.422  44.130  41.212  1.00  0.00    -0.354 N
ATOM     31  H8  UNL     1      17.773  43.758  40.329  1.00  0.00     0.166 HD
BRANCH  30  32
HETATM   32  C17 UNL     1      16.220  44.443  41.103  1.00  0.00     0.132 A
HETATM   33  N9  UNL     1      15.081  43.786  41.329  1.00  0.00    -0.284 N
HETATM   34  N10 UNL     1      14.069  44.575  41.036  1.00  0.00    -0.298 N
ATOM     35  H9  UNL     1      15.007  42.828  41.672  1.00  0.00     0.188 HD
HETATM   36  C18 UNL     1      14.498  45.768  40.614  1.00  0.00     0.062 A
ATOM     37  H10 UNL     1      13.088  44.310  41.121  1.00  0.00     0.187 HD
HETATM   38  C19 UNL     1      13.831  46.925  40.192  1.00  0.00     0.033 A
HETATM   39  C23 UNL     1      15.859  45.723  40.642  1.00  0.00     0.039 A
HETATM   40  C20 UNL     1      14.571  48.021  39.806  1.00  0.00     0.026 A
HETATM   41  C21 UNL     1      15.963  47.986  39.831  1.00  0.00     0.035 A
HETATM   42 CL1  UNL     1      16.923  49.358  39.345  1.00  0.00    -0.084 Cl
HETATM   43  C22 UNL     1      16.592  46.835  40.250  1.00  0.00     0.041 A
ENDBRANCH  30  32
ENDBRANCH  29  30
ENDBRANCH  28  29
ENDBRANCH  27  28
ENDBRANCH   4  27
TORSDOF 15
ENDMDL