MODEL 2
REMARK VINA RESULT: -8.753324525      0.554      1.318
REMARK  14 active torsions:
REMARK  status: ('A' for Active; 'I' for Inactive)
REMARK    1  A    between atoms: C3_3  and  C4_4
REMARK    2  A    between atoms: C4_4  and  C5_5
REMARK    3  A    between atoms: C7_10  and  C8_11
REMARK    4  A    between atoms: C8_11  and  C9_12
REMARK       I    between atoms: C9_12  and  N2_14
REMARK    5  A    between atoms: N2_14  and  C10_16
REMARK    6  A    between atoms: C10_16  and  C11_17
REMARK    7  A    between atoms: C11_17  and  C12_18
REMARK    8  A    between atoms: C12_18  and  C13_19
REMARK    9  A    between atoms: C13_19  and  C14_20
REMARK   10  A    between atoms: C14_20  and  C15_21
REMARK   11  A    between atoms: C15_21  and  C16_22
REMARK   12  A    between atoms: C19_28  and  C20_29
REMARK   13  A    between atoms: C20_29  and  C21_30
REMARK   14  A    between atoms: C27_39  and  O5_40
ROOT
HETATM    1  C1  UNL     1      23.649  52.579  45.525  1.00  0.00     0.112 C
HETATM    2  C2  UNL     1      22.654  51.672  44.946  1.00  0.00    -0.111 C
HETATM    3  C3  UNL     1      21.851  50.915  44.480  1.00  0.00    -0.106 C
ENDROOT
BRANCH   3   4
HETATM    4  C4  UNL     1      20.900  50.024  43.897  1.00  0.00     0.110 C
BRANCH   4   5
HETATM    5  C5  UNL     1      21.232  48.547  44.167  1.00  0.00     0.119 C
HETATM    6  C6  UNL     1      20.048  47.896  44.814  1.00  0.00     0.226 C
HETATM    7  O1  UNL     1      19.159  48.718  45.259  1.00  0.00    -0.273 OA
HETATM    8  N1  UNL     1      19.777  46.557  44.999  1.00  0.00    -0.347 N
HETATM    9  C7  UNL     1      19.860  45.417  44.132  1.00  0.00     0.185 C
ATOM     10  H1  UNL     1      19.452  46.332  45.939  1.00  0.00     0.163 HD
HETATM   11  C18 UNL     1      20.270  45.654  42.750  1.00  0.00     0.241 C
HETATM   12  O3  UNL     1      19.487  46.238  41.959  1.00  0.00    -0.271 OA
HETATM   13  N3  UNL     1      21.541  45.246  42.250  1.00  0.00    -0.346 N
HETATM   14  C19 UNL     1      22.705  45.302  43.097  1.00  0.00     0.177 C
ATOM     15  H3  UNL     1      21.627  44.914  41.289  1.00  0.00     0.163 HD
HETATM   16  C24 UNL     1      23.539  46.425  42.532  1.00  0.00     0.240 C
HETATM   17  O4  UNL     1      24.034  46.112  41.400  1.00  0.00    -0.271 OA
HETATM   18  N4  UNL     1      23.796  47.669  43.086  1.00  0.00    -0.353 N
HETATM   19  C25 UNL     1      23.734  48.205  44.391  1.00  0.00     0.110 C
ATOM     20  H4  UNL     1      24.099  48.354  42.393  1.00  0.00     0.163 HD
HETATM   21  C26 UNL     1      24.573  47.305  45.320  1.00  0.00     0.035 C
HETATM   22  C27 UNL     1      22.451  48.484  45.045  1.00  0.00     0.154 C
BRANCH   9  23
HETATM   23  C8  UNL     1      18.631  44.544  44.196  1.00  0.00     0.137 C
BRANCH  23  24
HETATM   24  C9  UNL     1      18.079  44.108  42.910  1.00  0.00     0.220 C
HETATM   25  O2  UNL     1      18.491  43.069  42.356  1.00  0.00    -0.274 OA
HETATM   26  N2  UNL     1      17.051  44.850  42.240  1.00  0.00    -0.361 N
ATOM     27  H2  UNL     1      16.680  45.705  42.655  1.00  0.00     0.162 HD
BRANCH  26  28
HETATM   28  C10 UNL     1      16.542  44.368  40.955  1.00  0.00     0.122 C
BRANCH  28  29
HETATM   29  C11 UNL     1      15.089  44.049  41.029  1.00  0.00     0.020 C
BRANCH  29  30
HETATM   30  C12 UNL     1      14.297  45.110  40.314  1.00  0.00     0.002 C
BRANCH  30  31
HETATM   31  C13 UNL     1      13.952  46.228  41.238  1.00  0.00     0.000 C
BRANCH  31  32
HETATM   32  C14 UNL     1      14.127  47.586  40.580  1.00  0.00     0.000 C
BRANCH  32  33
HETATM   33  C15 UNL     1      15.104  47.528  39.436  1.00  0.00    -0.000 C
BRANCH  33  34
HETATM   34  C16 UNL     1      16.493  47.926  39.836  1.00  0.00    -0.005 C
HETATM   35  C17 UNL     1      16.709  49.368  39.431  1.00  0.00     0.005 C
ENDBRANCH  33  34
ENDBRANCH  32  33
ENDBRANCH  31  32
ENDBRANCH  30  31
ENDBRANCH  29  30
ENDBRANCH  28  29
ENDBRANCH  26  28
ENDBRANCH  23  24
ENDBRANCH   9  23
BRANCH  14  36
HETATM   36  C20 UNL     1      23.454  44.043  43.284  1.00  0.00     0.038 C
BRANCH  36  37
HETATM   37  C21 UNL     1      23.366  43.295  44.545  1.00  0.00    -0.020 C
HETATM   38  C22 UNL     1      24.571  43.780  45.397  1.00  0.00     0.009 C
HETATM   39  C23 UNL     1      22.158  43.584  45.400  1.00  0.00     0.009 C
ENDBRANCH  36  37
ENDBRANCH  14  36
BRANCH  22  40
HETATM   40  O5  UNL     1      22.208  47.739  46.216  1.00  0.00    -0.393 OA
ATOM     41  H5  UNL     1      21.883  48.289  46.919  1.00  0.00     0.210 HD
ENDBRANCH  22  40
ENDBRANCH   4   5
ENDBRANCH   3   4
TORSDOF 14
ENDMDL