MODEL 4
REMARK VINA RESULT: -3.018010061      8.097      9.684
REMARK  5 active torsions:
REMARK  status: ('A' for Active; 'I' for Inactive)
REMARK    1  A    between atoms: O1_1  and  C1_3
REMARK    2  A    between atoms: C1_3  and  C2_4
REMARK    3  A    between atoms: C2_4  and  N1_5
REMARK    4  A    between atoms: C6_10  and  C7_11
REMARK    5  A    between atoms: C7_11  and  O3_12
ROOT
HETATM    1  N1  UNL     1      65.580  95.805  50.532  1.00  0.00    -0.189 NA
HETATM    2  O2  UNL     1      66.372  94.742  50.673  1.00  0.00    -0.303 OA
HETATM    3  C3  UNL     1      66.311  94.141  51.891  1.00  0.00     0.194 C
HETATM    4  C4  UNL     1      66.526  95.069  53.052  1.00  0.00     0.030 C
HETATM    5  C5  UNL     1      65.439  96.151  52.906  1.00  0.00     0.026 C
HETATM    6  C6  UNL     1      65.721  96.767  51.563  1.00  0.00     0.110 C
ENDROOT
BRANCH   1   7
HETATM    7  C2  UNL     1      64.234  95.487  50.169  1.00  0.00     0.147 C
BRANCH   7   8
HETATM    8  C1  UNL     1      63.967  95.797  48.687  1.00  0.00     0.181 C
BRANCH   8   9
HETATM    9  O1  UNL     1      63.812  97.150  48.430  1.00  0.00    -0.400 OA
ATOM     10  H1  UNL     1      63.358  97.613  49.122  1.00  0.00     0.209 HD
ENDBRANCH   8   9
ENDBRANCH   7   8
ENDBRANCH   1   7
BRANCH   6  11
HETATM   11  C7  UNL     1      64.895  97.996  51.383  1.00  0.00     0.186 C
BRANCH  11  12
HETATM   12  O3  UNL     1      65.530  98.797  50.414  1.00  0.00    -0.399 OA
ATOM     13  H3  UNL     1      65.158  98.574  49.569  1.00  0.00     0.209 HD
ENDBRANCH  11  12
ENDBRANCH   6  11
TORSDOF 5
ENDMDL