MODEL 4
REMARK VINA RESULT: -2.302022646      2.307      3.395
REMARK  5 active torsions:
REMARK  status: ('A' for Active; 'I' for Inactive)
REMARK    1  A    between atoms: O1_1  and  C1_3
REMARK    2  A    between atoms: C1_3  and  C2_4
REMARK    3  A    between atoms: C2_4  and  N1_5
REMARK    4  A    between atoms: C5_9  and  C6_10
REMARK    5  A    between atoms: C6_10  and  O2_11
ROOT
HETATM    1  N1  UNL     1      62.363 105.761  53.790  1.00  0.00     0.107 N
HETATM    2  C3  UNL     1      62.339 104.704  54.803  1.00  0.00     0.347 C
HETATM    3  S1  UNL     1      62.676 103.260  53.697  1.00  0.00    -0.137 SA
HETATM    4  C4  UNL     1      62.102 104.081  52.143  1.00  0.00     0.113 C
HETATM    5  C5  UNL     1      61.427 105.251  52.817  1.00  0.00     0.256 C
ENDROOT
BRANCH   1   6
HETATM    6  C2  UNL     1      63.711 105.844  53.303  1.00  0.00     0.299 C
BRANCH   6   7
HETATM    7  C1  UNL     1      64.683 106.235  54.366  1.00  0.00     0.194 C
BRANCH   7   8
HETATM    8  O1  UNL     1      65.637 105.238  54.597  1.00  0.00    -0.399 OA
ATOM      9  H1  UNL     1      66.268 105.496  55.259  1.00  0.00     0.209 HD
ENDBRANCH   7   8
ENDBRANCH   6   7
ENDBRANCH   1   6
BRANCH   5  10
HETATM   10  C6  UNL     1      60.770 106.229  51.942  1.00  0.00     0.200 C
BRANCH  10  11
HETATM   11  O2  UNL     1      61.117 106.170  50.597  1.00  0.00    -0.399 OA
ATOM     12  H2  UNL     1      61.475 106.968  50.225  1.00  0.00     0.209 HD
ENDBRANCH  10  11
ENDBRANCH   5  10
TORSDOF 5
ENDMDL