MODEL 5
REMARK VINA RESULT: -4.895400380      3.249      4.489
REMARK  6 active torsions:
REMARK  status: ('A' for Active; 'I' for Inactive)
REMARK    1  A    between atoms: N1_1  and  N2_4
REMARK    2  A    between atoms: N3_6  and  C1_8
REMARK    3  A    between atoms: C1_8  and  C2_9
REMARK    4  A    between atoms: C4_11  and  O1_12
REMARK    5  A    between atoms: C5_14  and  C6_15
REMARK    6  A    between atoms: C6_15  and  O2_16
ROOT
HETATM    1  C2  UNL     1      63.631  98.279  48.636  1.00  0.00     0.143 C
HETATM    2  C3  UNL     1      64.647  99.216  49.198  1.00  0.00     0.068 C
HETATM    3  C4  UNL     1      65.306  98.370  50.281  1.00  0.00     0.151 C
HETATM    4  C5  UNL     1      65.070  96.980  49.756  1.00  0.00     0.174 C
HETATM    5  O3  UNL     1      63.859  97.021  49.117  1.00  0.00    -0.374 OA
ENDROOT
BRANCH   1   6
HETATM    6  C1  UNL     1      63.650  98.236  47.118  1.00  0.00     0.172 C
BRANCH   6   7
HETATM    7  N3  UNL     1      63.969  99.528  46.558  1.00  0.00    -0.320 N
HETATM    8  N2  UNL     1      64.721  99.554  45.559  1.00  0.00    -0.254 N
ATOM      9  H2  UNL     1      65.654  99.381  45.933  1.00  0.00     0.207 HD
ATOM     10  H3  UNL     1      63.595 100.387  46.962  1.00  0.00     0.181 HD
BRANCH   8  11
HETATM   11  N1  UNL     1      64.891  99.685  44.346  1.00  0.00    -0.331 N
ATOM     12  H12 UNL     1      64.514 100.616  44.169  1.00  0.00     0.178 HD
ATOM     13  H11 UNL     1      65.218  99.325  43.450  1.00  0.00     0.178 HD
ENDBRANCH   8  11
ENDBRANCH   6   7
ENDBRANCH   1   6
BRANCH   3  14
HETATM   14  O1  UNL     1      64.615  98.580  51.461  1.00  0.00    -0.393 OA
ATOM     15  H1  UNL     1      65.177  98.310  52.178  1.00  0.00     0.210 HD
ENDBRANCH   3  14
BRANCH   4  16
HETATM   16  C6  UNL     1      64.948  95.985  50.913  1.00  0.00     0.198 C
BRANCH  16  17
HETATM   17  O2  UNL     1      66.083  95.976  51.695  1.00  0.00    -0.398 OA
ATOM     18  H2  UNL     1      65.893  95.695  52.582  1.00  0.00     0.209 HD
ENDBRANCH  16  17
ENDBRANCH   4  16
TORSDOF 6
ENDMDL