MODEL 1
REMARK VINA RESULT: -5.272312928      0.000      0.000
REMARK  5 active torsions:
REMARK  status: ('A' for Active; 'I' for Inactive)
REMARK    1  A    between atoms: C2_3  and  O1_4
REMARK    2  A    between atoms: O1_4  and  C3_5
REMARK    3  A    between atoms: C5_7  and  O2_8
REMARK    4  A    between atoms: C7_11  and  C8_12
REMARK    5  A    between atoms: C8_12  and  O3_13
ROOT
HETATM    1  N1  UNL     1      68.042  93.864  51.027  1.00  0.00    -0.195 NA
HETATM    2  C1  UNL     1      67.165  94.369  51.588  1.00  0.00     0.085 C
HETATM    3  C2  UNL     1      66.041  94.991  52.300  1.00  0.00     0.291 C
ENDROOT
BRANCH   3   4
HETATM    4  O1  UNL     1      65.003  95.104  51.385  1.00  0.00    -0.372 OA
BRANCH   4   5
HETATM    5  C3  UNL     1      65.199  96.270  50.657  1.00  0.00     0.131 C
HETATM    6  C4  UNL     1      65.228  97.406  51.681  1.00  0.00     0.064 C
HETATM    7  C5  UNL     1      64.867  98.620  50.858  1.00  0.00     0.121 C
HETATM    8  C6  UNL     1      64.382  98.143  49.524  1.00  0.00     0.041 C
HETATM    9  C7  UNL     1      64.063  96.666  49.779  1.00  0.00     0.041 C
BRANCH   7  10
HETATM   10  O2  UNL     1      66.072  99.316  50.631  1.00  0.00    -0.395 OA
ATOM     11  H2  UNL     1      65.847 100.070  50.100  1.00  0.00     0.210 HD
ENDBRANCH   7  10
BRANCH   9  12
HETATM   12  C8  UNL     1      64.011  95.996  48.446  1.00  0.00     0.171 C
BRANCH  12  13
HETATM   13  O3  UNL     1      64.634  94.778  48.366  1.00  0.00    -0.400 OA
ATOM     14  H3  UNL     1      65.306  94.701  47.700  1.00  0.00     0.209 HD
ENDBRANCH  12  13
ENDBRANCH   9  12
ENDBRANCH   4   5
ENDBRANCH   3   4
TORSDOF 5
ENDMDL