MODEL 1
REMARK VINA RESULT: -6.237920568      0.000      0.000
REMARK  5 active torsions:
REMARK  status: ('A' for Active; 'I' for Inactive)
REMARK    1  A    between atoms: O1_1  and  C1_3
REMARK    2  A    between atoms: C1_3  and  C2_4
REMARK    3  A    between atoms: C2_4  and  O2_5
REMARK    4  A    between atoms: O2_5  and  C3_6
REMARK    5  A    between atoms: C7_10  and  O3_11
ROOT
HETATM    1  C3  UNL     1      65.901  95.818  51.409  1.00  0.00     0.262 C
HETATM    2  C4  UNL     1      65.032  96.969  51.937  1.00  0.00     0.061 C
HETATM    3  C5  UNL     1      65.099  98.001  50.806  1.00  0.00     0.010 C
HETATM    4  C6  UNL     1      64.444  97.355  49.621  1.00  0.00     0.061 C
HETATM    5  C7  UNL     1      64.300  95.881  49.729  1.00  0.00     0.260 C
HETATM    6  O4  UNL     1      65.306  95.212  50.350  1.00  0.00    -0.332 OA
ENDROOT
BRANCH   1   7
HETATM    7  O2  UNL     1      66.211  95.028  52.471  1.00  0.00    -0.359 OA
BRANCH   7   8
HETATM    8  C2  UNL     1      67.503  94.593  52.553  1.00  0.00     0.197 C
BRANCH   8   9
HETATM    9  C1  UNL     1      67.832  93.446  51.632  1.00  0.00     0.190 C
BRANCH   9  10
HETATM   10  O1  UNL     1      68.790  93.917  50.724  1.00  0.00    -0.399 OA
ATOM     11  H1  UNL     1      68.596  93.512  49.886  1.00  0.00     0.209 HD
ENDBRANCH   9  10
ENDBRANCH   8   9
ENDBRANCH   7   8
ENDBRANCH   1   7
BRANCH   5  12
HETATM   12  O3  UNL     1      64.201  95.373  48.412  1.00  0.00    -0.371 OA
ATOM     13  H3  UNL     1      64.336  94.434  48.463  1.00  0.00     0.212 HD
ENDBRANCH   5  12
TORSDOF 5
ENDMDL