MODEL 4
REMARK VINA RESULT: -4.729676560      2.928      4.254
REMARK  7 active torsions:
REMARK  status: ('A' for Active; 'I' for Inactive)
REMARK    1  A    between atoms: N1_1  and  N2_4
REMARK    2  A    between atoms: N2_4  and  N3_5
REMARK    3  A    between atoms: N3_5  and  C1_7
REMARK    4  A    between atoms: C1_7  and  C2_8
REMARK    5  A    between atoms: C2_8  and  N4_9
REMARK    6  A    between atoms: C4_11  and  O1_12
REMARK    7  A    between atoms: C5_14  and  O2_15
ROOT
HETATM    1  N4  UNL     1      64.700  97.340  49.511  1.00  0.00     0.124 N
HETATM    2  C3  UNL     1      64.693  97.323  50.938  1.00  0.00     0.311 C
HETATM    3  C4  UNL     1      65.357  95.941  50.820  1.00  0.00     0.205 C
HETATM    4  C5  UNL     1      64.641  95.925  49.490  1.00  0.00     0.387 C
ENDROOT
BRANCH   1   5
HETATM    5  C2  UNL     1      63.846  98.155  48.775  1.00  0.00     0.298 C
BRANCH   5   6
HETATM    6  C1  UNL     1      64.209  99.646  48.880  1.00  0.00     0.186 C
BRANCH   6   7
HETATM    7  N3  UNL     1      63.647 100.251  47.659  1.00  0.00    -0.251 N
ATOM      8  H3  UNL     1      62.719 100.674  47.676  1.00  0.00     0.197 HD
BRANCH   7   9
HETATM    9  N2  UNL     1      64.301 100.244  46.627  1.00  0.00    -0.249 NA
BRANCH   9  10
HETATM   10  N1  UNL     1      64.738 100.304  45.459  1.00  0.00    -0.261 N
ATOM     11  H12 UNL     1      65.691 100.164  45.792  1.00  0.00     0.193 HD
ATOM     12  H11 UNL     1      64.885 100.381  44.453  1.00  0.00     0.193 HD
ENDBRANCH   9  10
ENDBRANCH   7   9
ENDBRANCH   6   7
ENDBRANCH   5   6
ENDBRANCH   1   5
BRANCH   4  13
HETATM   13  O2  UNL     1      63.360  95.344  49.553  1.00  0.00    -0.366 OA
ATOM     14  H2  UNL     1      63.140  94.722  48.869  1.00  0.00     0.212 HD
ENDBRANCH   4  13
BRANCH   3  15
HETATM   15  O1  UNL     1      64.913  95.061  51.765  1.00  0.00    -0.389 OA
ATOM     16  H1  UNL     1      64.035  94.746  51.587  1.00  0.00     0.210 HD
ENDBRANCH   3  15
TORSDOF 7
ENDMDL