MODEL 1
REMARK VINA RESULT: -7.523286656      0.000      0.000
REMARK  15 active torsions:
REMARK  status: ('A' for Active; 'I' for Inactive)
REMARK    1  A    between atoms: C4_4  and  C5_5
REMARK    2  A    between atoms: C5_5  and  C6_6
REMARK    3  A    between atoms: C6_6  and  S1_7
REMARK    4  A    between atoms: S1_7  and  C7_8
REMARK    5  A    between atoms: C7_8  and  C8_9
REMARK    6  A    between atoms: C8_9  and  O2_11
REMARK    7  A    between atoms: O2_11  and  C9_12
REMARK    8  A    between atoms: C10_13  and  O3_14
REMARK    9  A    between atoms: C12_17  and  O4_18
REMARK   10  A    between atoms: C13_20  and  O5_21
REMARK   11  A    between atoms: O5_21  and  C14_22
REMARK   12  A    between atoms: C16_24  and  O6_26
REMARK   13  A    between atoms: C18_28  and  C19_29
REMARK   14  A    between atoms: C19_29  and  O7_30
REMARK   15  A    between atoms: C21_34  and  O9_35
ROOT
HETATM    1  C9  UNL     1     -13.812   4.513 -18.237  1.00  0.00     0.192 C
HETATM    2  C10 UNL     1     -13.826   5.134 -16.858  1.00  0.00     0.152 C
HETATM    3  C11 UNL     1     -14.518   4.266 -15.859  1.00  0.00     0.069 C
HETATM    4  C12 UNL     1     -14.793   2.873 -16.307  1.00  0.00     0.152 C
HETATM    5  C13 UNL     1     -13.735   2.251 -17.172  1.00  0.00     0.184 C
HETATM    6  C21 UNL     1     -13.180   3.147 -18.230  1.00  0.00     0.181 C
ENDROOT
BRANCH   5   7
HETATM    7  O5  UNL     1     -14.249   1.064 -17.739  1.00  0.00    -0.350 OA
BRANCH   7   8
HETATM    8  C14 UNL     1     -14.158  -0.011 -16.837  1.00  0.00     0.269 C
HETATM    9  C15 UNL     1     -15.471  -0.711 -16.795  1.00  0.00     0.103 C
HETATM   10  C16 UNL     1     -15.472  -2.096 -17.396  1.00  0.00     0.086 C
HETATM   11  C17 UNL     1     -15.748  -1.977 -18.870  1.00  0.00     0.051 C
HETATM   12  C18 UNL     1     -14.200  -2.798 -17.200  1.00  0.00    -0.001 C
HETATM   13  C20 UNL     1     -13.056  -2.155 -17.079  1.00  0.00     0.146 C
HETATM   14  O8  UNL     1     -13.044  -0.802 -17.137  1.00  0.00    -0.332 OA
BRANCH  10  15
HETATM   15  O6  UNL     1     -16.467  -2.860 -16.765  1.00  0.00    -0.385 OA
ATOM     16  H6  UNL     1     -16.434  -3.745 -17.108  1.00  0.00     0.211 HD
ENDBRANCH  10  15
BRANCH  12  17
HETATM   17  C19 UNL     1     -14.198  -4.273 -17.130  1.00  0.00     0.203 C
BRANCH  17  18
HETATM   18  O7  UNL     1     -14.463  -4.738 -15.842  1.00  0.00    -0.396 OA
ATOM     19  H7  UNL     1     -14.835  -5.612 -15.847  1.00  0.00     0.209 HD
ENDBRANCH  17  18
ENDBRANCH  12  17
ENDBRANCH   7   8
ENDBRANCH   5   7
BRANCH   4  20
HETATM   20  O4  UNL     1     -16.054   2.851 -16.933  1.00  0.00    -0.393 OA
ATOM     21  H4  UNL     1     -16.468   2.017 -16.741  1.00  0.00     0.210 HD
ENDBRANCH   4  20
BRANCH   6  22
HETATM   22  O9  UNL     1     -11.809   3.172 -18.154  1.00  0.00    -0.390 OA
ATOM     23  H9  UNL     1     -11.435   2.403 -17.739  1.00  0.00     0.210 HD
ENDBRANCH   6  22
BRANCH   1  24
HETATM   24  O2  UNL     1     -13.302   5.331 -19.232  1.00  0.00    -0.310 OA
BRANCH  24  25
HETATM   25  C8  UNL     1     -13.841   5.477 -20.497  1.00  0.00     0.268 C
HETATM   26  O1  UNL     1     -13.583   4.539 -21.304  1.00  0.00    -0.264 OA
BRANCH  25  27
HETATM   27  C7  UNL     1     -14.666   6.605 -20.957  1.00  0.00     0.184 C
BRANCH  27  28
HETATM   28  S1  UNL     1     -16.103   6.781 -19.873  1.00  0.00    -0.159 SA
BRANCH  28  29
HETATM   29  C6  UNL     1     -17.580   6.075 -20.667  1.00  0.00     0.078 C
BRANCH  29  30
HETATM   30  C5  UNL     1     -18.770   6.576 -19.847  1.00  0.00     0.037 C
BRANCH  30  31
HETATM   31  C4  UNL     1     -19.689   5.444 -19.605  1.00  0.00    -0.024 C
HETATM   32  C2  UNL     1     -19.632   4.795 -18.461  1.00  0.00    -0.091 C
HETATM   33  C1  UNL     1     -20.540   3.646 -18.175  1.00  0.00     0.042 C
HETATM   34  C3  UNL     1     -18.639   5.209 -17.413  1.00  0.00     0.042 C
ENDBRANCH  30  31
ENDBRANCH  29  30
ENDBRANCH  28  29
ENDBRANCH  27  28
ENDBRANCH  25  27
ENDBRANCH  24  25
ENDBRANCH   1  24
BRANCH   2  35
HETATM   35  O3  UNL     1     -14.435   6.383 -16.855  1.00  0.00    -0.393 OA
ATOM     36  H3  UNL     1     -15.370   6.324 -16.698  1.00  0.00     0.210 HD
ENDBRANCH   2  35
TORSDOF 15
ENDMDL