MODEL 1
REMARK VINA RESULT: -7.942864397      0.000      0.000
REMARK  13 active torsions:
REMARK  status: ('A' for Active; 'I' for Inactive)
REMARK    1  A    between atoms: O1_2  and  C2_3
REMARK    2  A    between atoms: C6_10  and  O3_11
REMARK    3  A    between atoms: C7_13  and  C8_14
REMARK    4  A    between atoms: C9_15  and  C10_16
REMARK    5  A    between atoms: C10_16  and  C11_17
REMARK    6  A    between atoms: C11_17  and  C12_18
REMARK    7  A    between atoms: C12_18  and  N2_19
REMARK    8  A    between atoms: C14_21  and  O4_22
REMARK    9  A    between atoms: C15_24  and  O5_25
REMARK   10  A    between atoms: C16_27  and  O6_28
REMARK   11  A    between atoms: C17_30  and  O7_31
REMARK   12  A    between atoms: O7_31  and  C18_32
REMARK   13  A    between atoms: C18_32  and  C19_33
ROOT
HETATM    1  N2  UNL     1     -14.398   0.213 -17.385  1.00  0.00    -0.363 N
HETATM    2  C13 UNL     1     -13.579  -0.549 -18.177  1.00  0.00     0.159 C
HETATM    3  C14 UNL     1     -14.342  -1.141 -19.375  1.00  0.00     0.167 C
HETATM    4  C15 UNL     1     -15.496  -1.953 -18.905  1.00  0.00     0.181 C
HETATM    5  C16 UNL     1     -15.882  -1.618 -17.476  1.00  0.00     0.198 C
HETATM    6  C17 UNL     1     -15.788  -0.083 -17.410  1.00  0.00     0.254 C
ENDROOT
BRANCH   1   7
HETATM    7  C12 UNL     1     -13.985   1.284 -16.607  1.00  0.00     0.061 C
BRANCH   7   8
HETATM    8  C11 UNL     1     -14.304   2.638 -17.101  1.00  0.00     0.048 C
BRANCH   8   9
HETATM    9  C10 UNL     1     -13.347   3.399 -17.934  1.00  0.00     0.032 C
BRANCH   9  10
HETATM   10  C9  UNL     1     -13.454   4.848 -17.928  1.00  0.00    -0.025 C
HETATM   11  C8  UNL     1     -14.297   5.676 -18.370  1.00  0.00     0.013 C
BRANCH  11  12
HETATM   12  C7  UNL     1     -15.537   5.747 -19.081  1.00  0.00     0.033 A
HETATM   13  C2  UNL     1     -15.518   6.148 -20.442  1.00  0.00     0.083 A
HETATM   14  C3  UNL     1     -16.667   6.142 -21.159  1.00  0.00     0.072 A
HETATM   15  C4  UNL     1     -17.885   5.763 -20.643  1.00  0.00     0.096 A
HETATM   16  N1  UNL     1     -19.226   5.537 -20.723  1.00  0.00    -0.258 N
HETATM   17  C5  UNL     1     -17.920   5.378 -19.352  1.00  0.00     0.161 A
HETATM   18  O2  UNL     1     -19.209   5.177 -19.482  1.00  0.00    -0.232 OA
ATOM     19  H1  UNL     1     -19.938   5.617 -21.449  1.00  0.00     0.195 HD
HETATM   20  C6  UNL     1     -16.753   5.367 -18.569  1.00  0.00     0.117 A
BRANCH  13  21
HETATM   21  O1  UNL     1     -14.323   6.539 -21.014  1.00  0.00    -0.355 OA
HETATM   22  C1  UNL     1     -14.095   7.831 -21.510  1.00  0.00     0.210 C
ENDBRANCH  13  21
BRANCH  20  23
HETATM   23  O3  UNL     1     -16.938   4.937 -17.269  1.00  0.00    -0.357 OA
ATOM     24  H3  UNL     1     -16.171   4.544 -16.870  1.00  0.00     0.217 HD
ENDBRANCH  20  23
ENDBRANCH  11  12
ENDBRANCH   9  10
ENDBRANCH   8   9
ENDBRANCH   7   8
ENDBRANCH   1   7
BRANCH   6  25
HETATM   25  O7  UNL     1     -16.563   0.421 -16.421  1.00  0.00    -0.361 OA
BRANCH  25  26
HETATM   26  C18 UNL     1     -17.849   0.151 -16.258  1.00  0.00     0.202 C
BRANCH  26  27
HETATM   27  C19 UNL     1     -18.930   1.136 -16.255  1.00  0.00     0.145 C
HETATM   28  C20 UNL     1     -20.121   0.937 -17.124  1.00  0.00     0.036 C
HETATM   29  C21 UNL     1     -20.878   2.241 -16.774  1.00  0.00     0.029 C
HETATM   30  C22 UNL     1     -19.709   3.187 -16.603  1.00  0.00     0.168 C
HETATM   31  O8  UNL     1     -18.539   2.431 -16.673  1.00  0.00    -0.384 OA
ENDBRANCH  26  27
ENDBRANCH  25  26
ENDBRANCH   6  25
BRANCH   3  32
HETATM   32  O4  UNL     1     -14.736  -0.105 -20.182  1.00  0.00    -0.391 OA
ATOM     33  H4  UNL     1     -14.635  -0.381 -21.085  1.00  0.00     0.210 HD
ENDBRANCH   3  32
BRANCH   5  34
HETATM   34  O6  UNL     1     -15.019  -2.119 -16.528  1.00  0.00    -0.388 OA
ATOM     35  H6  UNL     1     -15.445  -2.621 -15.843  1.00  0.00     0.210 HD
ENDBRANCH   5  34
BRANCH   4  36
HETATM   36  O5  UNL     1     -15.224  -3.293 -19.075  1.00  0.00    -0.390 OA
ATOM     37  H5  UNL     1     -15.541  -3.783 -18.326  1.00  0.00     0.210 HD
ENDBRANCH   4  36
TORSDOF 13
ENDMDL