MODEL 1
REMARK VINA RESULT: -7.785435613      0.000      0.000
REMARK  14 active torsions:
REMARK  status: ('A' for Active; 'I' for Inactive)
REMARK    1  A    between atoms: C2_2  and  C3_3
REMARK    2  A    between atoms: C3_3  and  N1_4
REMARK    3  A    between atoms: C4_6  and  C5_7
REMARK    4  A    between atoms: C6_8  and  O1_9
REMARK    5  A    between atoms: O1_9  and  C7_10
REMARK    6  A    between atoms: C8_12  and  C9_13
REMARK    7  A    between atoms: C9_13  and  O3_14
REMARK    8  A    between atoms: C10_16  and  O4_17
REMARK    9  A    between atoms: C11_19  and  O5_20
REMARK   10  A    between atoms: C12_23  and  C13_24
REMARK   11  A    between atoms: C13_24  and  O7_25
REMARK   12  A    between atoms: C14_27  and  O8_28
REMARK   13  A    between atoms: C15_30  and  S1_31
REMARK   14  A    between atoms: S1_31  and  C16_32
ROOT
HETATM    1  C5  UNL     1     -12.481   0.684 -18.019  1.00  0.00     0.095 C
HETATM    2  C6  UNL     1     -12.163  -0.809 -17.804  1.00  0.00     0.273 C
HETATM    3  O6  UNL     1     -10.887  -1.010 -18.328  1.00  0.00    -0.350 OA
HETATM    4  C12 UNL     1      -9.906  -0.457 -17.514  1.00  0.00     0.178 C
HETATM    5  C14 UNL     1     -10.247   0.942 -17.072  1.00  0.00     0.164 C
HETATM    6  C15 UNL     1     -11.228   1.485 -18.115  1.00  0.00     0.092 C
ENDROOT
BRANCH   2   7
HETATM    7  O1  UNL     1     -13.099  -1.507 -18.475  1.00  0.00    -0.328 OA
BRANCH   7   8
HETATM    8  C7  UNL     1     -13.432  -2.752 -18.110  1.00  0.00     0.294 C
HETATM    9  O2  UNL     1     -14.386  -3.368 -18.937  1.00  0.00    -0.348 OA
HETATM   10  C8  UNL     1     -15.114  -4.253 -18.187  1.00  0.00     0.179 C
HETATM   11  C10 UNL     1     -14.372  -4.426 -16.871  1.00  0.00     0.182 C
HETATM   12  C11 UNL     1     -13.959  -2.944 -16.723  1.00  0.00     0.204 C
BRANCH  10  13
HETATM   13  C9  UNL     1     -15.421  -5.552 -18.856  1.00  0.00     0.198 C
BRANCH  13  14
HETATM   14  O3  UNL     1     -14.975  -5.619 -20.160  1.00  0.00    -0.398 OA
ATOM     15  H3  UNL     1     -15.454  -5.052 -20.754  1.00  0.00     0.209 HD
ENDBRANCH  13  14
ENDBRANCH  10  13
BRANCH  11  16
HETATM   16  O4  UNL     1     -13.251  -5.218 -17.078  1.00  0.00    -0.390 OA
ATOM     17  H4  UNL     1     -13.403  -6.078 -16.704  1.00  0.00     0.210 HD
ENDBRANCH  11  16
BRANCH  12  18
HETATM   18  O5  UNL     1     -15.182  -2.290 -16.519  1.00  0.00    -0.388 OA
ATOM     19  H5  UNL     1     -15.548  -2.463 -15.659  1.00  0.00     0.210 HD
ENDBRANCH  12  18
ENDBRANCH   7   8
ENDBRANCH   2   7
BRANCH   1  20
HETATM   20  C4  UNL     1     -13.356   1.116 -16.886  1.00  0.00     0.066 C
HETATM   21  N1  UNL     1     -14.583   0.759 -16.843  1.00  0.00    -0.398 N
ATOM     22  H1  UNL     1     -14.940   0.177 -17.599  1.00  0.00     0.158 HD
BRANCH  21  23
HETATM   23  C3  UNL     1     -15.482   1.128 -15.798  1.00  0.00     0.145 C
BRANCH  23  24
HETATM   24  C2  UNL     1     -16.886   0.762 -16.157  1.00  0.00    -0.018 C
HETATM   25  C1  UNL     1     -17.630   0.002 -15.374  1.00  0.00     0.008 C
ENDBRANCH  23  24
ENDBRANCH  21  23
ENDBRANCH   1  20
BRANCH   6  26
HETATM   26  S1  UNL     1     -11.337   3.229 -17.922  1.00  0.00    -0.156 SA
BRANCH  26  27
HETATM   27  C16 UNL     1     -12.780   4.075 -18.475  1.00  0.00     0.048 C
HETATM   28  C17 UNL     1     -13.408   4.895 -17.358  1.00  0.00     0.015 C
HETATM   29  C18 UNL     1     -14.775   5.397 -17.775  1.00  0.00     0.001 C
HETATM   30  C19 UNL     1     -14.939   5.353 -19.279  1.00  0.00     0.000 C
HETATM   31  C20 UNL     1     -13.694   5.889 -19.925  1.00  0.00     0.001 C
HETATM   32  C21 UNL     1     -12.592   4.831 -19.729  1.00  0.00     0.015 C
ENDBRANCH  26  27
ENDBRANCH   6  26
BRANCH   4  33
HETATM   33  C13 UNL     1      -8.553  -0.464 -18.140  1.00  0.00     0.198 C
BRANCH  33  34
HETATM   34  O7  UNL     1      -7.539  -0.750 -17.257  1.00  0.00    -0.398 OA
ATOM     35  H7  UNL     1      -6.934  -1.412 -17.573  1.00  0.00     0.209 HD
ENDBRANCH  33  34
ENDBRANCH   4  33
BRANCH   5  36
HETATM   36  O8  UNL     1      -9.081   1.690 -17.062  1.00  0.00    -0.392 OA
ATOM     37  H8  UNL     1      -9.295   2.572 -16.780  1.00  0.00     0.210 HD
ENDBRANCH   5  36
TORSDOF 14
ENDMDL