MODEL 5
REMARK VINA RESULT: -8.025586075      2.570      3.993
REMARK  12 active torsions:
REMARK  status: ('A' for Active; 'I' for Inactive)
REMARK    1  A    between atoms: C2_2  and  C3_3
REMARK    2  A    between atoms: C3_3  and  C4_4
REMARK    3  A    between atoms: C4_4  and  C5_5
REMARK    4  A    between atoms: C5_5  and  C6_6
REMARK    5  A    between atoms: C6_6  and  C7_7
REMARK    6  A    between atoms: C7_7  and  C8_8
REMARK    7  A    between atoms: C8_8  and  S1_9
REMARK    8  A    between atoms: S1_9  and  C9_10
REMARK    9  A    between atoms: C9_10  and  C10_11
REMARK   10  A    between atoms: C15_21  and  N3_22
REMARK   11  A    between atoms: N3_22  and  C16_24
REMARK   12  A    between atoms: C19_34  and  O3_35
ROOT
HETATM    1  C10 UNL     1     -13.358   4.592 -17.095  1.00  0.00     0.164 C
HETATM    2  O1  UNL     1     -13.418   4.109 -18.391  1.00  0.00    -0.356 OA
HETATM    3  C11 UNL     1     -14.786   4.193 -18.757  1.00  0.00     0.249 C
HETATM    4  N1  UNL     1     -15.030   5.419 -19.430  1.00  0.00    -0.328 N
ATOM      5  H1  UNL     1     -14.209   6.002 -19.598  1.00  0.00     0.165 HD
HETATM    6  C12 UNL     1     -16.260   5.944 -19.902  1.00  0.00     0.268 C
HETATM    7  O2  UNL     1     -16.253   6.636 -20.952  1.00  0.00    -0.267 OA
HETATM    8  C13 UNL     1     -17.555   5.730 -19.240  1.00  0.00     0.155 C
HETATM    9  C14 UNL     1     -18.696   6.336 -19.893  1.00  0.00     0.109 C
HETATM   10  N2  UNL     1     -19.621   6.808 -20.409  1.00  0.00    -0.191 NA
HETATM   11  C15 UNL     1     -17.834   5.052 -18.114  1.00  0.00     0.130 C
HETATM   12  N6  UNL     1     -16.836   4.397 -17.349  1.00  0.00    -0.363 N
ATOM     13  H6  UNL     1     -17.129   4.283 -16.378  1.00  0.00     0.161 HD
HETATM   14  C18 UNL     1     -15.540   3.856 -17.563  1.00  0.00     0.163 C
HETATM   15  C19 UNL     1     -14.599   4.147 -16.400  1.00  0.00     0.174 C
ENDROOT
BRANCH  11  16
HETATM   16  N3  UNL     1     -19.189   5.005 -17.693  1.00  0.00    -0.320 N
ATOM     17  H3  UNL     1     -19.701   5.854 -17.455  1.00  0.00     0.169 HD
BRANCH  16  18
HETATM   18  C16 UNL     1     -19.756   3.817 -17.624  1.00  0.00     0.167 A
HETATM   19  N4  UNL     1     -20.769   3.356 -18.362  1.00  0.00    -0.331 N
HETATM   20  C17 UNL     1     -21.183   2.143 -18.130  1.00  0.00     0.189 A
ATOM     21  H4  UNL     1     -21.203   3.933 -19.082  1.00  0.00     0.168 HD
HETATM   22  N5  UNL     1     -20.581   1.437 -17.178  1.00  0.00    -0.320 N
HETATM   23  S2  UNL     1     -19.410   2.500 -16.602  1.00  0.00     0.024 SA
ATOM     24  H5  UNL     1     -20.779   0.485 -16.871  1.00  0.00     0.175 HD
ENDBRANCH  16  18
ENDBRANCH  11  16
BRANCH  15  25
HETATM   25  O3  UNL     1     -15.107   5.170 -15.599  1.00  0.00    -0.391 OA
ATOM     26  H3  UNL     1     -14.736   5.127 -14.726  1.00  0.00     0.210 HD
ENDBRANCH  15  25
BRANCH   1  27
HETATM   27  C9  UNL     1     -12.078   4.137 -16.448  1.00  0.00     0.108 C
BRANCH  27  28
HETATM   28  S1  UNL     1     -11.155   3.071 -17.597  1.00  0.00    -0.166 SA
BRANCH  28  29
HETATM   29  C8  UNL     1     -11.379   1.322 -17.128  1.00  0.00     0.074 C
BRANCH  29  30
HETATM   30  C7  UNL     1     -12.689   0.800 -17.701  1.00  0.00     0.010 C
BRANCH  30  31
HETATM   31  C6  UNL     1     -12.427   0.431 -19.183  1.00  0.00     0.001 C
BRANCH  31  32
HETATM   32  C5  UNL     1     -13.625   0.729 -19.994  1.00  0.00     0.000 C
BRANCH  32  33
HETATM   33  C4  UNL     1     -14.284  -0.298 -20.804  1.00  0.00     0.000 C
BRANCH  33  34
HETATM   34  C3  UNL     1     -14.372  -0.202 -22.274  1.00  0.00    -0.000 C
BRANCH  34  35
HETATM   35  C2  UNL     1     -13.134  -0.276 -23.079  1.00  0.00    -0.005 C
HETATM   36  C1  UNL     1     -13.069   0.820 -24.114  1.00  0.00     0.005 C
ENDBRANCH  34  35
ENDBRANCH  33  34
ENDBRANCH  32  33
ENDBRANCH  31  32
ENDBRANCH  30  31
ENDBRANCH  29  30
ENDBRANCH  28  29
ENDBRANCH  27  28
ENDBRANCH   1  27
TORSDOF 12
ENDMDL