MODEL 5
REMARK VINA RESULT: -6.577377480      3.914      7.647
REMARK  17 active torsions:
REMARK  status: ('A' for Active; 'I' for Inactive)
REMARK    1  A    between atoms: C2_2  and  C3_3
REMARK    2  A    between atoms: C3_3  and  C4_4
REMARK    3  A    between atoms: C4_4  and  C5_5
REMARK    4  A    between atoms: C5_5  and  C6_6
REMARK    5  A    between atoms: C6_6  and  O2_8
REMARK    6  A    between atoms: O2_8  and  C7_9
REMARK    7  A    between atoms: C8_11  and  O3_12
REMARK    8  A    between atoms: O3_12  and  C9_13
REMARK    9  A    between atoms: C10_14  and  N1_15
REMARK   10  A    between atoms: C12_20  and  N2_21
REMARK   11  A    between atoms: N2_21  and  N3_23
REMARK   12  A    between atoms: N3_23  and  N4_24
REMARK   13  A    between atoms: C13_27  and  O4_28
REMARK   14  A    between atoms: C14_30  and  C15_31
REMARK   15  A    between atoms: C15_31  and  O5_32
REMARK   16  A    between atoms: C16_34  and  N5_35
REMARK   17  A    between atoms: C18_40  and  N6_41
ROOT
HETATM    1  C7  UNL     1     -11.801   2.179 -18.114  1.00  0.00     0.226 C
HETATM    2  S1  UNL     1     -13.480   2.699 -17.649  1.00  0.00    -0.101 SA
HETATM    3  C8  UNL     1     -13.403   4.444 -17.129  1.00  0.00     0.216 C
HETATM    4  C16 UNL     1     -12.360   4.550 -16.081  1.00  0.00     0.224 C
HETATM    5  C17 UNL     1     -11.202   3.612 -16.243  1.00  0.00     0.072 C
HETATM    6  C18 UNL     1     -10.869   3.313 -17.685  1.00  0.00     0.225 C
ENDROOT
BRANCH   3   7
HETATM    7  O3  UNL     1     -13.195   5.181 -18.260  1.00  0.00    -0.365 OA
BRANCH   7   8
HETATM    8  C9  UNL     1     -14.169   5.172 -19.206  1.00  0.00     0.162 C
HETATM    9  C10 UNL     1     -13.840   5.955 -20.457  1.00  0.00     0.215 C
HETATM   10  C11 UNL     1     -15.035   5.812 -21.380  1.00  0.00     0.065 C
HETATM   11  C12 UNL     1     -16.148   6.641 -20.848  1.00  0.00     0.145 C
HETATM   12  C13 UNL     1     -16.042   6.852 -19.381  1.00  0.00     0.152 C
HETATM   13  C14 UNL     1     -15.431   5.739 -18.603  1.00  0.00     0.071 C
BRANCH   9  14
HETATM   14  N1  UNL     1     -12.712   5.387 -21.170  1.00  0.00    -0.072 N
ATOM     15  H13 UNL     1     -12.241   4.676 -20.612  1.00  0.00     0.274 HD
ATOM     16  H12 UNL     1     -13.021   4.802 -21.946  1.00  0.00     0.274 HD
ATOM     17  H11 UNL     1     -12.060   6.105 -21.484  1.00  0.00     0.274 HD
ENDBRANCH   9  14
BRANCH  11  18
HETATM   18  N2  UNL     1     -17.462   6.141 -21.249  1.00  0.00    -0.245 N
ATOM     19  H2  UNL     1     -17.520   5.471 -22.016  1.00  0.00     0.197 HD
BRANCH  18  20
HETATM   20  N3  UNL     1     -18.495   6.497 -20.698  1.00  0.00    -0.248 NA
BRANCH  20  21
HETATM   21  N4  UNL     1     -19.548   6.749 -20.147  1.00  0.00    -0.261 N
ATOM     22  H42 UNL     1     -19.084   6.210 -19.416  1.00  0.00     0.193 HD
ATOM     23  H41 UNL     1     -20.456   7.003 -19.759  1.00  0.00     0.193 HD
ENDBRANCH  20  21
ENDBRANCH  18  20
ENDBRANCH  11  18
BRANCH  12  24
HETATM   24  O4  UNL     1     -15.452   8.099 -19.064  1.00  0.00    -0.393 OA
ATOM     25  H4  UNL     1     -16.071   8.817 -19.135  1.00  0.00     0.210 HD
ENDBRANCH  12  24
BRANCH  13  26
HETATM   26  C15 UNL     1     -16.475   4.640 -18.368  1.00  0.00     0.174 C
BRANCH  26  27
HETATM   27  O5  UNL     1     -17.720   5.228 -18.161  1.00  0.00    -0.400 OA
ATOM     28  H5  UNL     1     -18.343   4.559 -17.902  1.00  0.00     0.209 HD
ENDBRANCH  26  27
ENDBRANCH  13  26
ENDBRANCH   7   8
ENDBRANCH   3   7
BRANCH   4  29
HETATM   29  N5  UNL     1     -12.993   4.209 -14.795  1.00  0.00    -0.072 N
ATOM     30  H53 UNL     1     -12.769   4.871 -14.053  1.00  0.00     0.274 HD
ATOM     31  H52 UNL     1     -14.004   4.350 -14.798  1.00  0.00     0.274 HD
ATOM     32  H51 UNL     1     -12.725   3.251 -14.568  1.00  0.00     0.274 HD
ENDBRANCH   4  29
BRANCH   1  33
HETATM   33  O2  UNL     1     -11.403   1.033 -17.372  1.00  0.00    -0.303 OA
BRANCH  33  34
HETATM   34  C6  UNL     1     -11.464  -0.256 -17.934  1.00  0.00     0.260 C
HETATM   35  O1  UNL     1     -10.828  -0.402 -18.992  1.00  0.00    -0.265 OA
BRANCH  34  36
HETATM   36  C5  UNL     1     -12.243  -1.334 -17.279  1.00  0.00     0.111 C
BRANCH  36  37
HETATM   37  C4  UNL     1     -13.393  -1.822 -18.080  1.00  0.00     0.010 C
BRANCH  37  38
HETATM   38  C3  UNL     1     -14.438  -0.797 -18.405  1.00  0.00     0.000 C
BRANCH  38  39
HETATM   39  C2  UNL     1     -14.815  -0.862 -19.874  1.00  0.00    -0.005 C
HETATM   40  C1  UNL     1     -13.996   0.154 -20.642  1.00  0.00     0.005 C
ENDBRANCH  38  39
ENDBRANCH  37  38
ENDBRANCH  36  37
ENDBRANCH  34  36
ENDBRANCH  33  34
ENDBRANCH   1  33
BRANCH   6  41
HETATM   41  N6  UNL     1      -9.515   2.796 -17.714  1.00  0.00    -0.072 N
ATOM     42  H63 UNL     1      -9.208   2.537 -18.652  1.00  0.00     0.274 HD
ATOM     43  H62 UNL     1      -8.811   3.512 -17.537  1.00  0.00     0.274 HD
ATOM     44  H61 UNL     1      -9.470   2.021 -17.052  1.00  0.00     0.274 HD
ENDBRANCH   6  41
TORSDOF 17
ENDMDL