MODEL 1
REMARK VINA RESULT: -8.473402414      0.000      0.000
REMARK  15 active torsions:
REMARK  status: ('A' for Active; 'I' for Inactive)
REMARK    1  A    between atoms: O1_2  and  C2_3
REMARK    2  A    between atoms: C4_5  and  C5_6
REMARK    3  A    between atoms: C5_6  and  C6_7
REMARK    4  A    between atoms: C6_7  and  C7_8
REMARK    5  A    between atoms: C7_8  and  O2_9
REMARK    6  A    between atoms: O2_9  and  C8_10
REMARK    7  A    between atoms: C14_17  and  O4_18
REMARK    8  A    between atoms: C15_20  and  O5_21
REMARK    9  A    between atoms: O5_21  and  C16_22
REMARK   10  A    between atoms: C17_24  and  C18_25
REMARK   11  A    between atoms: C18_25  and  O7_26
REMARK   12  A    between atoms: C19_28  and  C20_29
REMARK   13  A    between atoms: C20_29  and  O8_30
REMARK   14  A    between atoms: C21_32  and  O9_33
REMARK   15  A    between atoms: C22_35  and  O10_36
ROOT
HETATM    1  C2  UNL     1     -13.524   4.818 -16.832  1.00  0.00     0.104 A
HETATM    2  C3  UNL     1     -12.473   4.005 -16.483  1.00  0.00     0.047 A
HETATM    3  C4  UNL     1     -11.585   3.615 -17.458  1.00  0.00    -0.053 A
HETATM    4  C13 UNL     1     -11.759   4.035 -18.736  1.00  0.00     0.046 A
HETATM    5  C14 UNL     1     -12.817   4.866 -19.144  1.00  0.00     0.102 A
HETATM    6  C15 UNL     1     -13.683   5.236 -18.150  1.00  0.00     0.138 A
ENDROOT
BRANCH   6   7
HETATM    7  O5  UNL     1     -14.768   6.058 -18.453  1.00  0.00    -0.312 OA
BRANCH   7   8
HETATM    8  C16 UNL     1     -15.782   5.494 -19.304  1.00  0.00     0.298 C
HETATM    9  O6  UNL     1     -16.500   4.637 -18.451  1.00  0.00    -0.350 OA
HETATM   10  C17 UNL     1     -17.664   5.332 -18.062  1.00  0.00     0.157 C
HETATM   11  C19 UNL     1     -18.579   5.264 -19.236  1.00  0.00     0.072 C
HETATM   12  C21 UNL     1     -18.004   6.206 -20.289  1.00  0.00     0.160 C
HETATM   13  C22 UNL     1     -16.571   6.563 -19.944  1.00  0.00     0.203 C
BRANCH  10  14
HETATM   14  C18 UNL     1     -18.219   4.734 -16.810  1.00  0.00     0.196 C
BRANCH  14  15
HETATM   15  O7  UNL     1     -18.471   3.376 -16.902  1.00  0.00    -0.398 OA
ATOM     16  H7  UNL     1     -19.388   3.148 -16.805  1.00  0.00     0.209 HD
ENDBRANCH  14  15
ENDBRANCH  10  14
BRANCH  11  17
HETATM   17  C20 UNL     1     -20.014   5.499 -18.937  1.00  0.00     0.174 C
BRANCH  17  18
HETATM   18  O8  UNL     1     -20.723   4.272 -18.908  1.00  0.00    -0.400 OA
ATOM     19  H8  UNL     1     -21.657   4.429 -18.842  1.00  0.00     0.209 HD
ENDBRANCH  17  18
ENDBRANCH  11  17
BRANCH  12  20
HETATM   20  O9  UNL     1     -18.114   5.623 -21.530  1.00  0.00    -0.392 OA
ATOM     21  H9  UNL     1     -17.999   6.287 -22.201  1.00  0.00     0.210 HD
ENDBRANCH  12  20
BRANCH  13  22
HETATM   22  O10 UNL     1     -15.973   6.950 -21.153  1.00  0.00    -0.388 OA
ATOM     23  H10 UNL     1     -15.531   7.785 -21.049  1.00  0.00     0.210 HD
ENDBRANCH  13  22
ENDBRANCH   7   8
ENDBRANCH   6   7
BRANCH   1  24
HETATM   24  O1  UNL     1     -14.432   5.221 -15.855  1.00  0.00    -0.353 OA
HETATM   25  C1  UNL     1     -14.262   4.855 -14.513  1.00  0.00     0.210 C
ENDBRANCH   1  24
BRANCH   5  26
HETATM   26  O4  UNL     1     -12.939   5.260 -20.453  1.00  0.00    -0.358 OA
ATOM     27  H4  UNL     1     -12.761   6.157 -20.712  1.00  0.00     0.217 HD
ENDBRANCH   5  26
BRANCH   3  28
HETATM   28  C5  UNL     1     -10.467   2.736 -17.055  1.00  0.00     0.041 C
BRANCH  28  29
HETATM   29  C6  UNL     1     -10.054   1.799 -18.180  1.00  0.00     0.031 C
BRANCH  29  30
HETATM   30  C7  UNL     1     -10.764   0.465 -17.898  1.00  0.00     0.171 C
BRANCH  30  31
HETATM   31  O2  UNL     1     -11.185  -0.001 -19.128  1.00  0.00    -0.361 OA
BRANCH  31  32
HETATM   32  C8  UNL     1     -12.516   0.307 -19.403  1.00  0.00     0.259 C
HETATM   33  C9  UNL     1     -13.430   0.205 -18.246  1.00  0.00     0.061 C
HETATM   34  C10 UNL     1     -14.590  -0.725 -18.406  1.00  0.00     0.007 C
HETATM   35  C11 UNL     1     -15.061  -0.959 -19.795  1.00  0.00     0.026 C
HETATM   36  C12 UNL     1     -14.264  -0.071 -20.737  1.00  0.00     0.171 C
HETATM   37  O3  UNL     1     -12.916  -0.435 -20.516  1.00  0.00    -0.361 OA
ENDBRANCH  31  32
ENDBRANCH  30  31
ENDBRANCH  29  30
ENDBRANCH  28  29
ENDBRANCH   3  28
TORSDOF 15
ENDMDL