MODEL 3
REMARK VINA RESULT: -7.350082794      3.926      5.774
REMARK  15 active torsions:
REMARK  status: ('A' for Active; 'I' for Inactive)
REMARK    1  A    between atoms: C2_2  and  C3_3
REMARK    2  A    between atoms: C3_3  and  C4_4
REMARK    3  A    between atoms: C4_4  and  C5_5
REMARK    4  A    between atoms: C5_5  and  C6_6
REMARK    5  A    between atoms: C6_6  and  O2_8
REMARK    6  A    between atoms: O2_8  and  C7_9
REMARK    7  A    between atoms: C7_9  and  C8_10
REMARK    8  A    between atoms: C9_11  and  O3_12
REMARK    9  A    between atoms: C15_19  and  O4_20
REMARK   10  A    between atoms: O4_20  and  C16_21
REMARK   11  A    between atoms: C17_24  and  C18_25
REMARK   12  A    between atoms: C18_25  and  O7_26
REMARK   13  A    between atoms: C19_28  and  O8_29
REMARK   14  A    between atoms: C20_31  and  O9_32
REMARK   15  A    between atoms: C21_34  and  O10_35
ROOT
HETATM    1  C8  UNL     1     -14.956   4.587 -17.107  1.00  0.00     0.069 C
HETATM    2  C9  UNL     1     -14.824   5.304 -18.377  1.00  0.00     0.126 C
HETATM    3  C10 UNL     1     -13.385   5.278 -18.918  1.00  0.00     0.033 C
HETATM    4  C11 UNL     1     -12.555   4.438 -17.995  1.00  0.00     0.014 C
HETATM    5  C12 UNL     1     -13.142   3.027 -17.871  1.00  0.00    -0.021 C
HETATM    6  C13 UNL     1     -13.277   2.395 -19.216  1.00  0.00     0.017 C
HETATM    7  C14 UNL     1     -12.116   2.217 -17.102  1.00  0.00     0.017 C
HETATM    8  C15 UNL     1     -14.424   3.172 -17.093  1.00  0.00     0.141 C
ENDROOT
BRANCH   8   9
HETATM    9  O4  UNL     1     -15.383   2.281 -17.360  1.00  0.00    -0.349 OA
BRANCH   9  10
HETATM   10  C16 UNL     1     -15.948   1.551 -16.376  1.00  0.00     0.328 C
HETATM   11  O5  UNL     1     -15.006   0.533 -16.100  1.00  0.00    -0.205 OA
HETATM   12  O6  UNL     1     -14.558  -0.141 -17.059  1.00  0.00    -0.228 OA
HETATM   13  C17 UNL     1     -15.518  -0.579 -17.946  1.00  0.00     0.215 C
HETATM   14  C19 UNL     1     -16.503  -1.437 -17.187  1.00  0.00     0.183 C
HETATM   15  C20 UNL     1     -17.204  -0.582 -16.174  1.00  0.00     0.183 C
HETATM   16  C21 UNL     1     -17.243   0.865 -16.612  1.00  0.00     0.207 C
BRANCH  13  17
HETATM   17  C18 UNL     1     -14.922  -1.498 -19.012  1.00  0.00     0.201 C
BRANCH  17  18
HETATM   18  O7  UNL     1     -16.003  -2.117 -19.643  1.00  0.00    -0.398 OA
ATOM     19  H7  UNL     1     -15.641  -2.600 -20.376  1.00  0.00     0.209 HD
ENDBRANCH  17  18
ENDBRANCH  13  17
BRANCH  14  20
HETATM   20  O8  UNL     1     -15.749  -2.405 -16.521  1.00  0.00    -0.390 OA
ATOM     21  H8  UNL     1     -15.336  -1.965 -15.787  1.00  0.00     0.210 HD
ENDBRANCH  14  20
BRANCH  15  22
HETATM   22  O9  UNL     1     -16.652  -0.666 -14.898  1.00  0.00    -0.390 OA
ATOM     23  H9  UNL     1     -16.796  -1.507 -14.479  1.00  0.00     0.210 HD
ENDBRANCH  15  22
BRANCH  16  24
HETATM   24  O10 UNL     1     -18.292   1.411 -15.839  1.00  0.00    -0.388 OA
ATOM     25  H10 UNL     1     -18.297   1.081 -14.948  1.00  0.00     0.210 HD
ENDBRANCH  16  24
ENDBRANCH   9  10
ENDBRANCH   8   9
BRANCH   1  26
HETATM   26  C7  UNL     1     -16.311   4.662 -16.489  1.00  0.00     0.188 C
BRANCH  26  27
HETATM   27  O2  UNL     1     -17.446   4.598 -17.195  1.00  0.00    -0.321 OA
BRANCH  27  28
HETATM   28  C6  UNL     1     -18.738   4.318 -17.090  1.00  0.00     0.258 C
HETATM   29  O1  UNL     1     -19.303   4.380 -15.981  1.00  0.00    -0.265 OA
BRANCH  28  30
HETATM   30  C5  UNL     1     -19.622   3.912 -18.249  1.00  0.00     0.111 C
BRANCH  30  31
HETATM   31  C4  UNL     1     -20.147   5.104 -18.970  1.00  0.00     0.010 C
BRANCH  31  32
HETATM   32  C3  UNL     1     -19.333   5.362 -20.203  1.00  0.00     0.000 C
BRANCH  32  33
HETATM   33  C2  UNL     1     -19.032   6.825 -20.331  1.00  0.00    -0.005 C
HETATM   34  C1  UNL     1     -17.838   7.140 -19.450  1.00  0.00     0.005 C
ENDBRANCH  32  33
ENDBRANCH  31  32
ENDBRANCH  30  31
ENDBRANCH  28  30
ENDBRANCH  27  28
ENDBRANCH  26  27
ENDBRANCH   1  26
BRANCH   2  35
HETATM   35  O3  UNL     1     -15.656   4.909 -19.399  1.00  0.00    -0.395 OA
ATOM     36  H3  UNL     1     -16.269   5.558 -19.725  1.00  0.00     0.210 HD
ENDBRANCH   2  35
TORSDOF 15
ENDMDL