MODEL 1
REMARK VINA RESULT: -7.481999404      0.000      0.000
REMARK  15 active torsions:
REMARK  status: ('A' for Active; 'I' for Inactive)
REMARK    1  A    between atoms: C2_2  and  O2_4
REMARK    2  A    between atoms: O2_4  and  C3_5
REMARK    3  A    between atoms: C3_5  and  C4_6
REMARK    4  A    between atoms: C4_6  and  O3_7
REMARK    5  A    between atoms: C4_6  and  C20_33
REMARK    6  A    between atoms: O3_7  and  C5_8
REMARK    7  A    between atoms: C6_10  and  C7_11
REMARK    8  A    between atoms: C7_11  and  C8_12
REMARK    9  A    between atoms: C9_13  and  C10_14
REMARK   10  A    between atoms: C9_13  and  C11_17
REMARK   11  A    between atoms: C10_14  and  O5_15
REMARK   12  A    between atoms: C16_23  and  O6_24
REMARK   13  A    between atoms: C17_26  and  O7_27
REMARK   14  A    between atoms: C18_29  and  O8_31
REMARK   15  A    between atoms: C20_33  and  O9_35
ROOT
HETATM    1  C5  UNL     1     -14.503   5.032 -18.314  1.00  0.00     0.297 C
HETATM    2  O4  UNL     1     -13.146   4.651 -18.450  1.00  0.00    -0.350 OA
HETATM    3  C6  UNL     1     -12.766   3.384 -18.227  1.00  0.00     0.159 C
HETATM    4  C16 UNL     1     -13.888   2.440 -18.213  1.00  0.00     0.179 C
HETATM    5  C17 UNL     1     -15.023   2.816 -17.288  1.00  0.00     0.188 C
HETATM    6  C18 UNL     1     -15.193   4.328 -17.235  1.00  0.00     0.132 C
HETATM    7  C19 UNL     1     -16.652   4.602 -17.039  1.00  0.00     0.054 C
ENDROOT
BRANCH   3   8
HETATM    8  C7  UNL     1     -11.677   3.235 -17.198  1.00  0.00     0.062 C
BRANCH   8   9
HETATM    9  C8  UNL     1     -10.309   3.446 -17.622  1.00  0.00    -0.018 C
HETATM   10  C9  UNL     1      -9.315   2.566 -17.690  1.00  0.00    -0.046 C
BRANCH  10  11
HETATM   11  C10 UNL     1      -7.974   3.029 -18.164  1.00  0.00     0.199 C
BRANCH  11  12
HETATM   12  O5  UNL     1      -8.012   3.709 -19.364  1.00  0.00    -0.397 OA
ATOM     13  H5  UNL     1      -7.156   3.851 -19.752  1.00  0.00     0.209 HD
ENDBRANCH  11  12
ENDBRANCH  10  11
BRANCH  10  14
HETATM   14  C11 UNL     1      -9.452   1.145 -17.328  1.00  0.00     0.080 C
HETATM   15  C12 UNL     1      -8.260   0.253 -17.488  1.00  0.00     0.039 C
HETATM   16  C13 UNL     1      -8.845  -0.904 -18.307  1.00  0.00     0.003 C
HETATM   17  C14 UNL     1      -9.170  -2.143 -17.496  1.00  0.00     0.026 C
HETATM   18  C15 UNL     1      -8.033  -1.288 -19.520  1.00  0.00     0.026 C
HETATM   19  S1  UNL     1     -10.260   0.152 -18.657  1.00  0.00    -0.150 SA
ENDBRANCH  10  14
ENDBRANCH   8   9
ENDBRANCH   3   8
BRANCH   4  20
HETATM   20  O6  UNL     1     -13.589   1.091 -18.137  1.00  0.00    -0.390 OA
ATOM     21  H6  UNL     1     -14.123   0.554 -17.564  1.00  0.00     0.210 HD
ENDBRANCH   4  20
BRANCH   1  22
HETATM   22  O3  UNL     1     -14.973   4.813 -19.562  1.00  0.00    -0.348 OA
BRANCH  22  23
HETATM   23  C4  UNL     1     -15.155   5.758 -20.467  1.00  0.00     0.177 C
BRANCH  23  24
HETATM   24  C3  UNL     1     -16.317   6.724 -20.158  1.00  0.00     0.213 C
BRANCH  24  25
HETATM   25  O2  UNL     1     -17.412   6.467 -21.015  1.00  0.00    -0.319 OA
BRANCH  25  26
HETATM   26  C2  UNL     1     -18.676   6.309 -20.465  1.00  0.00     0.254 C
HETATM   27  C1  UNL     1     -19.063   5.126 -19.661  1.00  0.00     0.126 C
HETATM   28  O1  UNL     1     -19.545   7.201 -20.648  1.00  0.00    -0.266 OA
ENDBRANCH  25  26
ENDBRANCH  24  25
ENDBRANCH  23  24
BRANCH  23  29
HETATM   29  C20 UNL     1     -13.985   6.652 -20.662  1.00  0.00     0.145 C
HETATM   30  C21 UNL     1     -14.274   7.863 -21.485  1.00  0.00     0.042 C
BRANCH  29  31
HETATM   31  O9  UNL     1     -12.926   5.945 -21.245  1.00  0.00    -0.393 OA
ATOM     32  H9  UNL     1     -12.196   5.886 -20.640  1.00  0.00     0.210 HD
ENDBRANCH  29  31
ENDBRANCH  23  29
ENDBRANCH  22  23
ENDBRANCH   1  22
BRANCH   5  33
HETATM   33  O7  UNL     1     -14.757   2.278 -16.033  1.00  0.00    -0.390 OA
ATOM     34  H7  UNL     1     -14.633   2.996 -15.423  1.00  0.00     0.210 HD
ENDBRANCH   5  33
BRANCH   6  35
HETATM   35  O8  UNL     1     -14.675   4.718 -15.951  1.00  0.00    -0.382 OA
ATOM     36  H8  UNL     1     -13.902   4.213 -15.727  1.00  0.00     0.210 HD
ENDBRANCH   6  35
TORSDOF 15
ENDMDL