MODEL 2
REMARK VINA RESULT: -7.342708261      2.853      6.261
REMARK  14 active torsions:
REMARK  status: ('A' for Active; 'I' for Inactive)
REMARK    1  A    between atoms: C2_2  and  C3_3
REMARK    2  A    between atoms: C3_3  and  C4_4
REMARK    3  A    between atoms: C4_4  and  N1_5
REMARK    4  A    between atoms: C6_7  and  O1_8
REMARK    5  A    between atoms: C7_10  and  C8_11
REMARK    6  A    between atoms: C12_16  and  C13_17
REMARK    7  A    between atoms: C13_17  and  N2_18
REMARK    8  A    between atoms: C16_21  and  O3_22
REMARK    9  A    between atoms: O3_22  and  C17_23
REMARK   10  A    between atoms: C18_25  and  C19_26
REMARK   11  A    between atoms: C19_26  and  O5_27
REMARK   12  A    between atoms: C20_29  and  O6_30
REMARK   13  A    between atoms: C21_32  and  O7_33
REMARK   14  A    between atoms: C22_35  and  O8_36
ROOT
HETATM    1  C8  UNL     1     -13.929   3.097 -18.117  1.00  0.00     0.129 C
HETATM    2  O2  UNL     1     -13.285   2.633 -19.310  1.00  0.00    -0.364 OA
HETATM    3  C9  UNL     1     -13.055   1.424 -18.711  1.00  0.00     0.155 C
HETATM    4  C10 UNL     1     -11.798   1.528 -17.908  1.00  0.00     0.035 C
HETATM    5  C11 UNL     1     -11.588   2.997 -17.483  1.00  0.00     0.012 C
HETATM    6  C12 UNL     1     -12.984   3.443 -17.038  1.00  0.00     0.056 C
HETATM    7  C16 UNL     1     -14.363   1.646 -17.942  1.00  0.00     0.193 C
ENDROOT
BRANCH   1   8
HETATM    8  C7  UNL     1     -15.009   4.050 -18.479  1.00  0.00     0.065 A
HETATM    9  C6  UNL     1     -14.884   4.988 -19.503  1.00  0.00     0.095 A
HETATM   10  C5  UNL     1     -16.039   5.735 -19.555  1.00  0.00     0.130 A
HETATM   11  N1  UNL     1     -16.876   5.308 -18.614  1.00  0.00    -0.335 N
HETATM   12  C22 UNL     1     -16.251   4.292 -17.969  1.00  0.00     0.154 A
BRANCH   9  13
HETATM   13  O1  UNL     1     -13.767   5.141 -20.348  1.00  0.00    -0.358 OA
ATOM     14  H1  UNL     1     -13.095   4.488 -20.501  1.00  0.00     0.217 HD
ENDBRANCH   9  13
BRANCH  11  15
HETATM   15  C4  UNL     1     -18.223   5.819 -18.311  1.00  0.00     0.130 C
BRANCH  15  16
HETATM   16  C3  UNL     1     -19.259   5.142 -19.143  1.00  0.00     0.020 C
BRANCH  16  17
HETATM   17  C2  UNL     1     -20.478   4.697 -18.416  1.00  0.00    -0.003 C
HETATM   18  C1  UNL     1     -20.405   3.280 -17.914  1.00  0.00     0.005 C
ENDBRANCH  16  17
ENDBRANCH  15  16
ENDBRANCH  11  15
BRANCH  12  19
HETATM   19  O8  UNL     1     -16.845   3.604 -16.915  1.00  0.00    -0.345 OA
ATOM     20  H8  UNL     1     -17.057   4.025 -16.090  1.00  0.00     0.219 HD
ENDBRANCH  12  19
ENDBRANCH   1   8
BRANCH   6  21
HETATM   21  C13 UNL     1     -12.970   4.802 -16.475  1.00  0.00     0.279 C
BRANCH  21  22
HETATM   22  N2  UNL     1     -13.232   4.640 -15.017  1.00  0.00     0.080 N
HETATM   23  C14 UNL     1     -12.238   5.408 -14.279  1.00  0.00     0.309 C
HETATM   24  C15 UNL     1     -14.572   5.121 -14.719  1.00  0.00     0.309 C
ENDBRANCH  21  22
ENDBRANCH   6  21
BRANCH   7  25
HETATM   25  O3  UNL     1     -14.305   1.226 -16.657  1.00  0.00    -0.347 OA
BRANCH  25  26
HETATM   26  C17 UNL     1     -14.910   0.092 -16.262  1.00  0.00     0.292 C
HETATM   27  O4  UNL     1     -15.945   0.429 -15.388  1.00  0.00    -0.348 OA
HETATM   28  C18 UNL     1     -17.124   0.341 -16.119  1.00  0.00     0.179 C
HETATM   29  C20 UNL     1     -16.952  -0.841 -17.018  1.00  0.00     0.182 C
HETATM   30  C21 UNL     1     -15.458  -0.826 -17.283  1.00  0.00     0.204 C
BRANCH  28  31
HETATM   31  C19 UNL     1     -18.246   0.149 -15.116  1.00  0.00     0.198 C
BRANCH  31  32
HETATM   32  O5  UNL     1     -19.496   0.207 -15.714  1.00  0.00    -0.398 OA
ATOM     33  H5  UNL     1     -20.193   0.295 -15.076  1.00  0.00     0.209 HD
ENDBRANCH  31  32
ENDBRANCH  28  31
BRANCH  29  34
HETATM   34  O6  UNL     1     -17.313  -2.043 -16.370  1.00  0.00    -0.390 OA
ATOM     35  H6  UNL     1     -18.200  -2.305 -16.589  1.00  0.00     0.210 HD
ENDBRANCH  29  34
BRANCH  30  36
HETATM   36  O7  UNL     1     -15.008  -2.146 -17.159  1.00  0.00    -0.388 OA
ATOM     37  H7  UNL     1     -14.740  -2.539 -17.982  1.00  0.00     0.210 HD
ENDBRANCH  30  36
ENDBRANCH  25  26
ENDBRANCH   7  25
TORSDOF 14
ENDMDL