MODEL 5
REMARK VINA RESULT: -7.824298172      0.988      1.322
REMARK  15 active torsions:
REMARK  status: ('A' for Active; 'I' for Inactive)
REMARK    1  A    between atoms: C4_4  and  O1_5
REMARK    2  A    between atoms: C5_7  and  O2_8
REMARK    3  A    between atoms: N1_11  and  C7_13
REMARK    4  A    between atoms: C7_13  and  O3_14
REMARK    5  A    between atoms: C7_13  and  C8_16
REMARK    6  A    between atoms: C8_16  and  C10_18
REMARK    7  A    between atoms: C13_21  and  O4_22
REMARK    8  A    between atoms: O4_22  and  C14_23
REMARK    9  A    between atoms: C14_23  and  C15_25
REMARK   10  A    between atoms: C15_25  and  C16_26
REMARK   11  A    between atoms: C20_31  and  O7_32
REMARK   12  A    between atoms: O7_32  and  C21_33
REMARK   13  A    between atoms: C21_33  and  C22_34
REMARK   14  A    between atoms: C22_34  and  O8_35
REMARK   15  A    between atoms: C22_34  and  O9_37
ROOT
HETATM    1  C1  UNL     1     -11.738  -3.967 -16.618  1.00  0.00     0.048 C
HETATM    2  C2  UNL     1     -11.199  -2.723 -17.261  1.00  0.00    -0.031 C
HETATM    3  C3  UNL     1      -9.880  -2.602 -17.341  1.00  0.00     0.015 C
HETATM    4  C4  UNL     1      -9.067  -1.474 -17.930  1.00  0.00     0.184 C
HETATM    5  C5  UNL     1      -9.506  -0.148 -17.428  1.00  0.00     0.156 C
HETATM    6  C6  UNL     1      -9.119   1.000 -18.245  1.00  0.00     0.057 C
HETATM    7  N1  UNL     1      -8.074   1.481 -18.744  1.00  0.00    -0.365 N
ATOM      8  H1  UNL     1      -8.200   2.339 -19.280  1.00  0.00     0.161 HD
HETATM    9  C13 UNL     1     -10.581   1.421 -18.242  1.00  0.00     0.213 C
HETATM   10  C19 UNL     1     -10.971   0.128 -17.606  1.00  0.00     0.203 C
HETATM   11  O6  UNL     1     -11.619  -0.743 -18.470  1.00  0.00    -0.346 OA
HETATM   12  C20 UNL     1     -12.232  -1.760 -17.740  1.00  0.00     0.290 C
ENDROOT
BRANCH   5  13
HETATM   13  O2  UNL     1      -9.109   0.017 -16.088  1.00  0.00    -0.378 OA
ATOM     14  H2  UNL     1      -8.347   0.582 -16.041  1.00  0.00     0.211 HD
ENDBRANCH   5  13
BRANCH   7  15
HETATM   15  C7  UNL     1      -6.739   1.001 -18.669  1.00  0.00     0.221 C
BRANCH  15  16
HETATM   16  O3  UNL     1      -6.446   0.897 -17.286  1.00  0.00    -0.377 OA
ATOM     17  H3  UNL     1      -6.956   0.160 -16.970  1.00  0.00     0.212 HD
ENDBRANCH  15  16
BRANCH  15  18
HETATM   18  C8  UNL     1      -5.854   2.119 -19.184  1.00  0.00     0.033 C
HETATM   19  C9  UNL     1      -6.422   3.433 -18.694  1.00  0.00     0.015 C
BRANCH  18  20
HETATM   20  C10 UNL     1      -5.812   2.175 -20.689  1.00  0.00    -0.015 C
HETATM   21  C11 UNL     1      -4.663   3.098 -21.063  1.00  0.00     0.010 C
HETATM   22  C12 UNL     1      -5.596   0.837 -21.327  1.00  0.00     0.010 C
ENDBRANCH  18  20
ENDBRANCH  15  18
ENDBRANCH   7  15
BRANCH   9  23
HETATM   23  O4  UNL     1     -10.697   2.565 -17.418  1.00  0.00    -0.307 OA
BRANCH  23  24
HETATM   24  C14 UNL     1     -11.754   3.441 -17.434  1.00  0.00     0.259 C
HETATM   25  O5  UNL     1     -11.815   4.292 -18.357  1.00  0.00    -0.265 OA
BRANCH  24  26
HETATM   26  C15 UNL     1     -12.837   3.449 -16.425  1.00  0.00     0.115 C
BRANCH  26  27
HETATM   27  C16 UNL     1     -13.068   4.834 -15.859  1.00  0.00    -0.013 C
HETATM   28  C17 UNL     1     -14.537   4.977 -15.519  1.00  0.00     0.010 C
HETATM   29  C18 UNL     1     -12.298   5.015 -14.548  1.00  0.00     0.010 C
ENDBRANCH  26  27
ENDBRANCH  24  26
ENDBRANCH  23  24
ENDBRANCH   9  23
BRANCH   4  30
HETATM   30  O1  UNL     1      -8.966  -1.587 -19.297  1.00  0.00    -0.388 OA
ATOM     31  H1  UNL     1      -8.886  -0.736 -19.712  1.00  0.00     0.210 HD
ENDBRANCH   4  30
BRANCH  12  32
HETATM   32  O7  UNL     1     -13.200  -2.424 -18.447  1.00  0.00    -0.352 OA
BRANCH  32  33
HETATM   33  C21 UNL     1     -14.481  -1.956 -18.314  1.00  0.00     0.231 C
BRANCH  33  34
HETATM   34  C22 UNL     1     -14.990  -1.274 -19.572  1.00  0.00     0.277 C
BRANCH  34  35
HETATM   35  O8  UNL     1     -13.880  -0.938 -20.380  1.00  0.00    -0.369 OA
ATOM     36  H8  UNL     1     -14.069  -0.121 -20.827  1.00  0.00     0.212 HD
ENDBRANCH  34  35
BRANCH  34  37
HETATM   37  O9  UNL     1     -15.760  -2.147 -20.337  1.00  0.00    -0.369 OA
ATOM     38  H9  UNL     1     -16.310  -1.670 -20.947  1.00  0.00     0.212 HD
ENDBRANCH  34  37
ENDBRANCH  33  34
ENDBRANCH  32  33
ENDBRANCH  12  32
TORSDOF 15
ENDMDL