MODEL 3
REMARK VINA RESULT: -5.268081663      2.550      3.611
REMARK  4 active torsions:
REMARK  status: ('A' for Active; 'I' for Inactive)
REMARK    1  A    between atoms: N2_4  and  N3_6
REMARK    2  A    between atoms: N3_6  and  C1_8
REMARK    3  A    between atoms: N4_9  and  C2_11
REMARK    4  A    between atoms: C2_11  and  C3_12
ROOT
HETATM    1  N3  UNL     1      42.231  72.302  14.043  1.00  0.00    -0.283 N
ATOM      2  H3  UNL     1      42.861  71.582  13.689  1.00  0.00     0.189 HD
ENDROOT
BRANCH   1   3
HETATM    3  N2  UNL     1      40.858  72.068  13.978  1.00  0.00    -0.248 N
HETATM    4  N1  UNL     1      40.396  71.547  12.920  1.00  0.00    -0.331 N
ATOM      5  H12 UNL     1      41.022  71.312  12.150  1.00  0.00     0.178 HD
ATOM      6  H11 UNL     1      39.391  71.375  12.873  1.00  0.00     0.178 HD
ATOM      7  H2  UNL     1      40.246  72.309  14.758  1.00  0.00     0.207 HD
ENDBRANCH   1   3
BRANCH   1   8
HETATM    8  C1  UNL     1      42.801  73.490  14.576  1.00  0.00     0.194 C
HETATM    9  N4  UNL     1      43.606  73.418  15.559  1.00  0.00    -0.385 N
ATOM     10  H4  UNL     1      43.805  72.486  15.922  1.00  0.00     0.160 HD
BRANCH   9  11
HETATM   11  C2  UNL     1      44.256  74.511  16.202  1.00  0.00     0.125 C
BRANCH  11  12
HETATM   12  C3  UNL     1      44.507  75.638  15.234  1.00  0.00     0.003 A
HETATM   13  C4  UNL     1      43.966  76.988  15.640  1.00  0.00     0.007 A
HETATM   14  C5  UNL     1      45.438  76.742  15.557  1.00  0.00     0.007 A
ENDBRANCH  11  12
ENDBRANCH   9  11
ENDBRANCH   1   8
TORSDOF 4
ENDMDL