MODEL 1
REMARK VINA RESULT: -5.174375033      0.000      0.000
REMARK  4 active torsions:
REMARK  status: ('A' for Active; 'I' for Inactive)
REMARK    1  A    between atoms: N2_4  and  N3_6
REMARK    2  A    between atoms: N3_6  and  C1_8
REMARK    3  A    between atoms: C3_10  and  C4_11
REMARK    4  A    between atoms: C4_11  and  N4_12
ROOT
HETATM    1  C1  UNL     1      42.754  73.533  14.620  1.00  0.00     0.135 A
HETATM    2  C2  UNL     1      44.117  74.010  14.250  1.00  0.00     0.069 A
HETATM    3  C3  UNL     1      43.822  73.605  15.598  1.00  0.00    -0.038 A
ENDROOT
BRANCH   1   4
HETATM    4  N3  UNL     1      42.325  72.271  14.056  1.00  0.00    -0.313 N
ATOM      5  H3  UNL     1      42.997  71.596  13.691  1.00  0.00     0.182 HD
BRANCH   4   6
HETATM    6  N2  UNL     1      40.953  72.016  14.032  1.00  0.00    -0.253 N
HETATM    7  N1  UNL     1      40.424  71.556  12.959  1.00  0.00    -0.331 N
ATOM      8  H12 UNL     1      41.011  71.384  12.143  1.00  0.00     0.178 HD
ATOM      9  H11 UNL     1      39.421  71.370  12.941  1.00  0.00     0.178 HD
ATOM     10  H2  UNL     1      40.380  72.194  14.856  1.00  0.00     0.207 HD
ENDBRANCH   4   6
ENDBRANCH   1   4
BRANCH   3  11
HETATM   11  C4  UNL     1      44.447  73.477  16.888  1.00  0.00     0.085 C
BRANCH  11  12
HETATM   12  N4  UNL     1      43.787  73.463  17.990  1.00  0.00    -0.408 N
ATOM     13  H42 UNL     1      43.266  72.615  18.214  1.00  0.00     0.155 HD
ATOM     14  H41 UNL     1      43.766  74.251  18.638  1.00  0.00     0.155 HD
ENDBRANCH  11  12
ENDBRANCH   3  11
TORSDOF 4
ENDMDL