MODEL 2
REMARK VINA RESULT: -4.851603560      1.468      2.015
REMARK  3 active torsions:
REMARK  status: ('A' for Active; 'I' for Inactive)
REMARK    1  A    between atoms: N2_4  and  C1_6
REMARK    2  A    between atoms: C1_6  and  C2_7
REMARK    3  A    between atoms: C4_12  and  C5_13
ROOT
HETATM    1  C2  UNL     1      44.274  73.423  15.393  1.00  0.00     0.215 C
HETATM    2  N3  UNL     1      44.482  74.350  16.489  1.00  0.00    -0.068 N
ATOM      3  H31 UNL     1      44.093  75.293  16.459  1.00  0.00     0.277 HD
ATOM      4  H32 UNL     1      45.401  74.754  16.666  1.00  0.00     0.277 HD
HETATM    5  C3  UNL     1      43.935  73.358  17.365  1.00  0.00     0.244 C
HETATM    6  C4  UNL     1      44.436  72.301  16.383  1.00  0.00     0.081 C
ENDROOT
BRANCH   1   7
HETATM    7  C1  UNL     1      42.903  73.517  14.817  1.00  0.00     0.172 C
BRANCH   7   8
HETATM    8  N2  UNL     1      42.402  72.251  14.354  1.00  0.00    -0.341 N
HETATM    9  N1  UNL     1      41.256  72.132  13.848  1.00  0.00    -0.349 N
ATOM     10  H12 UNL     1      40.678  72.968  13.771  1.00  0.00     0.176 HD
ATOM     11  H11 UNL     1      40.901  71.234  13.521  1.00  0.00     0.176 HD
ATOM     12  H2  UNL     1      42.993  71.424  14.439  1.00  0.00     0.179 HD
ENDBRANCH   7   8
ENDBRANCH   1   7
BRANCH   6  13
HETATM   13  C5  UNL     1      45.813  71.945  16.739  1.00  0.00     0.061 C
HETATM   14  N4  UNL     1      46.307  70.869  16.261  1.00  0.00    -0.411 N
ATOM     15  H42 UNL     1      45.743  70.282  15.647  1.00  0.00     0.155 HD
ATOM     16  H41 UNL     1      47.265  70.621  16.508  1.00  0.00     0.155 HD
ENDBRANCH   6  13
TORSDOF 3
ENDMDL