MODEL 2
REMARK VINA RESULT: -4.789092855      2.042      2.259
REMARK  4 active torsions:
REMARK  status: ('A' for Active; 'I' for Inactive)
REMARK    1  A    between atoms: C1_4  and  C2_5
REMARK    2  A    between atoms: C3_6  and  C4_7
REMARK    3  A    between atoms: C5_8  and  C6_9
REMARK    4  A    between atoms: N2_10  and  N3_12
ROOT
HETATM    1  C4  UNL     1      43.829  72.344  16.436  1.00  0.00     0.001 C
HETATM    2  C5  UNL     1      43.732  73.305  15.533  1.00  0.00     0.019 C
ENDROOT
BRANCH   1   3
HETATM    3  C3  UNL     1      44.848  72.339  17.459  1.00  0.00     0.001 C
HETATM    4  C2  UNL     1      45.713  71.379  17.677  1.00  0.00     0.016 C
BRANCH   4   5
HETATM    5  C1  UNL     1      45.710  70.185  16.856  1.00  0.00     0.080 C
HETATM    6  N1  UNL     1      45.130  69.114  17.331  1.00  0.00    -0.408 N
ATOM      7  H12 UNL     1      44.697  69.135  18.254  1.00  0.00     0.155 HD
ATOM      8  H11 UNL     1      45.127  68.274  16.752  1.00  0.00     0.155 HD
ENDBRANCH   4   5
ENDBRANCH   1   3
BRANCH   2   9
HETATM    9  C6  UNL     1      42.721  73.325  14.505  1.00  0.00     0.106 C
HETATM   10  N2  UNL     1      42.249  74.424  14.056  1.00  0.00    -0.318 N
ATOM     11  H2  UNL     1      41.537  74.370  13.328  1.00  0.00     0.185 HD
BRANCH  10  12
HETATM   12  N3  UNL     1      42.634  75.681  14.484  1.00  0.00    -0.345 N
ATOM     13  H32 UNL     1      43.562  75.995  14.199  1.00  0.00     0.176 HD
ATOM     14  H31 UNL     1      42.060  76.303  15.055  1.00  0.00     0.176 HD
ENDBRANCH  10  12
ENDBRANCH   2   9
TORSDOF 4
ENDMDL