MODEL 1
REMARK VINA RESULT: -5.485157394      0.000      0.000
REMARK  3 active torsions:
REMARK  status: ('A' for Active; 'I' for Inactive)
REMARK    1  A    between atoms: N2_4  and  N3_6
REMARK    2  A    between atoms: C1_8  and  N4_9
REMARK    3  A    between atoms: C3_11  and  C4_12
ROOT
HETATM    1  N3  UNL     1      41.910  72.993  13.953  1.00  0.00    -0.282 N
ATOM      2  H3  UNL     1      41.723  73.752  13.297  1.00  0.00     0.189 HD
HETATM    3  C1  UNL     1      42.899  73.097  14.771  1.00  0.00     0.197 C
ENDROOT
BRANCH   3   4
HETATM    4  N4  UNL     1      43.680  74.275  14.709  1.00  0.00    -0.363 N
HETATM    5  C2  UNL     1      43.712  75.750  15.050  1.00  0.00     0.155 A
HETATM    6  C3  UNL     1      44.862  75.029  14.365  1.00  0.00     0.141 A
BRANCH   6   7
HETATM    7  C4  UNL     1      46.069  74.912  15.207  1.00  0.00     0.080 C
HETATM    8  N5  UNL     1      47.045  74.209  14.783  1.00  0.00    -0.409 N
ATOM      9  H52 UNL     1      46.976  73.743  13.878  1.00  0.00     0.155 HD
ATOM     10  H51 UNL     1      47.879  74.129  15.365  1.00  0.00     0.155 HD
ENDBRANCH   6   7
ENDBRANCH   3   4
BRANCH   1  11
HETATM   11  N2  UNL     1      41.088  71.868  13.943  1.00  0.00    -0.248 N
HETATM   12  N1  UNL     1      40.351  71.651  12.941  1.00  0.00    -0.331 N
ATOM     13  H12 UNL     1      40.369  72.301  12.156  1.00  0.00     0.178 HD
ATOM     14  H11 UNL     1      39.750  70.826  12.934  1.00  0.00     0.178 HD
ATOM     15  H2  UNL     1      41.082  71.227  14.737  1.00  0.00     0.207 HD
ENDBRANCH   1  11
TORSDOF 3
ENDMDL