MODEL 5
REMARK VINA RESULT: -4.747309467      1.532      2.175
REMARK  3 active torsions:
REMARK  status: ('A' for Active; 'I' for Inactive)
REMARK    1  A    between atoms: C4_5  and  N2_6
REMARK    2  A    between atoms: N2_6  and  C5_8
REMARK    3  A    between atoms: C5_8  and  N3_9
ROOT
HETATM    1  N2  UNL     1      42.321  73.747  13.933  1.00  0.00    -0.356 N
ATOM      2  H2  UNL     1      41.956  74.500  13.349  1.00  0.00     0.162 HD
ENDROOT
BRANCH   1   3
HETATM    3  C4  UNL     1      43.602  73.748  14.550  1.00  0.00     0.315 A
HETATM    4  N1  UNL     1      44.099  75.019  15.102  1.00  0.00    -0.049 N
HETATM    5  C1  UNL     1      44.857  74.936  16.340  1.00  0.00     0.274 C
HETATM    6  C2  UNL     1      43.278  76.223  14.916  1.00  0.00     0.274 C
HETATM    7  C3  UNL     1      44.734  74.494  13.921  1.00  0.00     0.293 A
ENDBRANCH   1   3
BRANCH   1   8
HETATM    8  C5  UNL     1      41.610  72.527  14.247  1.00  0.00     0.193 C
BRANCH   8   9
HETATM    9  N3  UNL     1      41.090  71.830  13.130  1.00  0.00    -0.303 N
HETATM   10  N4  UNL     1      39.928  71.482  13.048  1.00  0.00    -0.344 N
ATOM     11  H42 UNL     1      39.312  71.711  13.828  1.00  0.00     0.176 HD
ATOM     12  H41 UNL     1      39.553  70.980  12.242  1.00  0.00     0.176 HD
ATOM     13  H3  UNL     1      41.719  71.610  12.357  1.00  0.00     0.187 HD
ENDBRANCH   8   9
ENDBRANCH   1   8
TORSDOF 3
ENDMDL