MODEL 2
REMARK VINA RESULT: -7.749717743      0.912      1.136
REMARK  7 active torsions:
REMARK  status: ('A' for Active; 'I' for Inactive)
REMARK    1  A    between atoms: C6_6  and  O1_8
REMARK    2  A    between atoms: C9_11  and  O2_12
REMARK    3  A    between atoms: C11_15  and  O3_16
REMARK    4  A    between atoms: O3_16  and  C12_17
REMARK    5  A    between atoms: C12_17  and  O5_19
REMARK    6  A    between atoms: O5_19  and  C13_20
REMARK    7  A    between atoms: C14_22  and  O7_23
ROOT
HETATM    1  C1  UNL     1       2.554  -7.814  44.046  1.00  0.00     0.017 C
HETATM    2  C2  UNL     1       2.488  -9.100  43.727  1.00  0.00    -0.058 C
HETATM    3  C3  UNL     1       2.015  -9.987  44.784  1.00  0.00     0.036 C
HETATM    4  C4  UNL     1       1.674 -11.372  44.471  1.00  0.00     0.007 C
HETATM    5  C5  UNL     1       0.260 -11.724  44.953  1.00  0.00     0.038 C
HETATM    6  C6  UNL     1      -0.598 -12.094  43.732  1.00  0.00     0.056 C
HETATM    7  C7  UNL     1      -1.747 -12.927  44.327  1.00  0.00     0.045 C
HETATM    8  C8  UNL     1      -1.103 -10.892  43.052  1.00  0.00     0.069 C
HETATM    9  C9  UNL     1      -0.510 -10.527  41.729  1.00  0.00     0.123 C
HETATM   10  C10 UNL     1       0.420  -9.337  41.865  1.00  0.00     0.067 C
HETATM   11  C11 UNL     1       1.804  -9.566  41.345  1.00  0.00     0.169 C
HETATM   12  C14 UNL     1       2.897  -9.490  42.361  1.00  0.00     0.176 C
ENDROOT
BRANCH  11  13
HETATM   13  O3  UNL     1       2.062  -8.723  40.212  1.00  0.00    -0.289 OA
BRANCH  13  14
HETATM   14  C12 UNL     1       1.833  -9.074  38.912  1.00  0.00     0.414 C
HETATM   15  O4  UNL     1       1.515 -10.265  38.677  1.00  0.00    -0.229 OA
BRANCH  14  16
HETATM   16  O5  UNL     1       1.928  -8.210  37.837  1.00  0.00    -0.229 OA
BRANCH  16  17
HETATM   17  C13 UNL     1       2.609  -8.620  36.700  1.00  0.00     0.408 C
HETATM   18  O6  UNL     1       2.266  -8.227  35.540  1.00  0.00    -0.275 OA
ENDBRANCH  16  17
ENDBRANCH  14  16
ENDBRANCH  13  14
ENDBRANCH  11  13
BRANCH  12  19
HETATM   19  O7  UNL     1       3.704 -10.657  42.382  1.00  0.00    -0.389 OA
ATOM     20  H7  UNL     1       3.198 -11.427  42.150  1.00  0.00     0.210 HD
ENDBRANCH  12  19
BRANCH   9  21
HETATM   21  O2  UNL     1       0.091 -11.596  41.067  1.00  0.00    -0.395 OA
ATOM     22  H2  UNL     1       0.976 -11.781  41.359  1.00  0.00     0.210 HD
ENDBRANCH   9  21
BRANCH   6  23
HETATM   23  O1  UNL     1       0.168 -12.963  42.992  1.00  0.00    -0.390 OA
ATOM     24  H1  UNL     1      -0.089 -12.825  42.088  1.00  0.00     0.210 HD
ENDBRANCH   6  23
TORSDOF 7
ENDMDL