MODEL 3
REMARK VINA RESULT: -7.728354834      1.215      1.329
REMARK  4 active torsions:
REMARK  status: ('A' for Active; 'I' for Inactive)
REMARK    1  A    between atoms: C3_3  and  C4_4
REMARK    2  A    between atoms: C8_9  and  O2_10
REMARK    3  A    between atoms: N1_14  and  O3_16
REMARK    4  A    between atoms: C15_23  and  O5_24
ROOT
HETATM    1  C4  UNL     1       1.625 -11.090  42.932  1.00  0.00     0.208 C
HETATM    2  O1  UNL     1       1.294 -11.617  44.118  1.00  0.00    -0.359 OA
HETATM    3  C5  UNL     1       0.370 -11.021  44.898  1.00  0.00     0.105 C
HETATM    4  C6  UNL     1      -0.395 -12.190  45.561  1.00  0.00     0.047 C
HETATM    5  C7  UNL     1      -0.814 -11.712  46.906  1.00  0.00     0.035 C
HETATM    6  C8  UNL     1       0.104 -10.580  47.272  1.00  0.00     0.121 C
HETATM    7  C9  UNL     1       0.877 -10.212  46.051  1.00  0.00     0.076 C
HETATM    8  C10 UNL     1      -0.713 -10.278  44.167  1.00  0.00     0.054 C
HETATM    9  N1  UNL     1      -1.860 -10.142  44.726  1.00  0.00    -0.274 N
ATOM     10  H1  UNL     1      -2.020 -10.537  45.652  1.00  0.00     0.193 HD
HETATM   11  C11 UNL     1      -0.448  -9.737  42.849  1.00  0.00     0.102 C
HETATM   12  C12 UNL     1      -1.008  -8.410  42.508  1.00  0.00     0.018 C
HETATM   13  C13 UNL     1      -0.188  -7.572  41.575  1.00  0.00     0.027 C
HETATM   14  C14 UNL     1       0.928  -8.240  40.885  1.00  0.00     0.171 C
HETATM   15  O4  UNL     1       1.158  -9.547  41.206  1.00  0.00    -0.352 OA
HETATM   16  C15 UNL     1       1.051  -9.748  42.606  1.00  0.00     0.201 C
ENDROOT
BRANCH   1  17
HETATM   17  C3  UNL     1       3.132 -11.061  42.834  1.00  0.00     0.006 C
HETATM   18  C2  UNL     1       3.768 -11.914  42.065  1.00  0.00    -0.032 C
HETATM   19  C1  UNL     1       5.238 -11.886  41.969  1.00  0.00     0.036 C
ENDBRANCH   1  17
BRANCH   6  20
HETATM   20  O2  UNL     1      -0.581  -9.508  47.813  1.00  0.00    -0.395 OA
ATOM     21  H2  UNL     1      -1.510  -9.684  47.901  1.00  0.00     0.210 HD
ENDBRANCH   6  20
BRANCH   9  22
HETATM   22  O3  UNL     1      -2.861  -9.478  44.095  1.00  0.00    -0.290 OA
ATOM     23  H3  UNL     1      -3.278  -8.730  44.505  1.00  0.00     0.244 HD
ENDBRANCH   9  22
BRANCH  16  24
HETATM   24  O5  UNL     1       1.719  -8.687  43.188  1.00  0.00    -0.362 OA
ATOM     25  H5  UNL     1       2.658  -8.690  43.043  1.00  0.00     0.213 HD
ENDBRANCH  16  24
TORSDOF 4
ENDMDL