MODEL 1
REMARK VINA RESULT: -8.562837983      0.000      0.000
REMARK  4 active torsions:
REMARK  status: ('A' for Active; 'I' for Inactive)
REMARK    1  A    between atoms: C3_3  and  O1_4
REMARK    2  A    between atoms: C5_7  and  O2_8
REMARK    3  A    between atoms: N1_16  and  O3_18
REMARK    4  A    between atoms: C14_23  and  C15_24
ROOT
HETATM    1  C1  UNL     1       1.638 -10.048  45.005  1.00  0.00     0.022 C
HETATM    2  C2  UNL     1       0.290 -10.777  44.749  1.00  0.00     0.025 A
HETATM    3  C3  UNL     1      -0.478 -10.611  46.022  1.00  0.00     0.132 C
HETATM    4  C4  UNL     1       0.329 -10.208  47.223  1.00  0.00     0.064 C
HETATM    5  C5  UNL     1      -0.088 -10.828  48.532  1.00  0.00     0.120 C
HETATM    6  C6  UNL     1      -1.447 -11.348  48.643  1.00  0.00     0.032 C
HETATM    7  C7  UNL     1      -1.730 -12.788  48.514  1.00  0.00     0.002 C
HETATM    8  C8  UNL     1      -0.630 -13.773  48.584  1.00  0.00     0.000 C
HETATM    9  C9  UNL     1      -0.421 -14.511  47.260  1.00  0.00     0.006 C
HETATM   10  C10 UNL     1       0.588 -13.855  46.359  1.00  0.00     0.057 C
HETATM   11  C11 UNL     1      -0.030 -13.252  45.158  1.00  0.00     0.039 C
HETATM   12  N1  UNL     1      -1.155 -13.727  44.832  1.00  0.00    -0.275 N
ATOM     13  H1  UNL     1      -1.498 -14.469  45.443  1.00  0.00     0.193 HD
HETATM   14  C12 UNL     1       0.638 -12.188  44.391  1.00  0.00     0.180 A
HETATM   15  O4  UNL     1       0.446 -12.340  43.020  1.00  0.00    -0.378 OA
HETATM   16  C13 UNL     1      -0.107 -11.234  42.475  1.00  0.00     0.181 A
HETATM   17  C14 UNL     1      -0.245 -10.156  43.524  1.00  0.00     0.084 A
ENDROOT
BRANCH  12  18
HETATM   18  O3  UNL     1      -1.974 -13.415  43.816  1.00  0.00    -0.290 OA
ATOM     19  H3  UNL     1      -1.873 -13.542  42.880  1.00  0.00     0.244 HD
ENDBRANCH  12  18
BRANCH   3  20
HETATM   20  O1  UNL     1      -1.480  -9.609  45.935  1.00  0.00    -0.395 OA
ATOM     21  H1  UNL     1      -2.269  -9.833  46.413  1.00  0.00     0.210 HD
ENDBRANCH   3  20
BRANCH  17  22
HETATM   22  C15 UNL     1      -1.591  -9.624  43.485  1.00  0.00     0.238 C
HETATM   23  O5  UNL     1      -2.643 -10.205  43.323  1.00  0.00    -0.306 OA
ENDBRANCH  17  22
BRANCH   5  24
HETATM   24  O2  UNL     1       0.117  -9.794  49.503  1.00  0.00    -0.395 OA
ATOM     25  H2  UNL     1       0.684 -10.188  50.156  1.00  0.00     0.210 HD
ENDBRANCH   5  24
TORSDOF 4
ENDMDL