MODEL 5
REMARK VINA RESULT: -7.179353293      2.181      5.372
REMARK  5 active torsions:
REMARK  status: ('A' for Active; 'I' for Inactive)
REMARK    1  A    between atoms: C2_2  and  O2_4
REMARK    2  A    between atoms: O2_4  and  C3_5
REMARK    3  A    between atoms: C11_14  and  O4_15
REMARK    4  A    between atoms: C13_18  and  C15_20
REMARK    5  A    between atoms: C16_21  and  O5_22
ROOT
HETATM    1  C3  UNL     1       0.386 -10.365  41.773  1.00  0.00     0.173 C
HETATM    2  C4  UNL     1       0.447 -10.693  40.275  1.00  0.00     0.067 C
HETATM    3  C5  UNL     1       1.694  -9.988  39.873  1.00  0.00     0.121 C
HETATM    4  C6  UNL     1       1.615  -9.439  38.448  1.00  0.00     0.040 C
HETATM    5  O3  UNL     1       1.882  -8.929  40.709  1.00  0.00    -0.367 OA
HETATM    6  C7  UNL     1       1.119  -9.065  41.849  1.00  0.00     0.117 C
HETATM    7  C8  UNL     1       0.105  -7.974  41.862  1.00  0.00     0.019 C
HETATM    8  C9  UNL     1       0.574  -6.739  41.991  1.00  0.00    -0.056 C
HETATM    9  C10 UNL     1      -0.387  -5.617  42.010  1.00  0.00     0.046 C
HETATM   10  C11 UNL     1       2.043  -6.585  42.103  1.00  0.00     0.147 C
HETATM   11  C12 UNL     1       2.626  -7.548  43.078  1.00  0.00     0.053 C
HETATM   12  C13 UNL     1       2.031  -8.939  43.037  1.00  0.00     0.015 C
HETATM   13  C14 UNL     1       1.327  -9.164  44.348  1.00  0.00     0.023 C
ENDROOT
BRANCH   1  14
HETATM   14  O2  UNL     1      -0.992 -10.237  42.075  1.00  0.00    -0.313 OA
BRANCH  14  15
HETATM   15  C2  UNL     1      -1.595 -10.946  43.113  1.00  0.00     0.255 C
HETATM   16  C1  UNL     1      -0.964 -12.137  43.732  1.00  0.00     0.126 C
HETATM   17  O1  UNL     1      -2.715 -10.513  43.497  1.00  0.00    -0.266 OA
ENDBRANCH  14  15
ENDBRANCH   1  14
BRANCH  12  18
HETATM   18  C15 UNL     1       3.153  -9.913  42.972  1.00  0.00     0.010 C
HETATM   19  C16 UNL     1       4.294  -9.701  42.381  1.00  0.00     0.128 C
BRANCH  19  20
HETATM   20  O5  UNL     1       4.533  -8.500  41.750  1.00  0.00    -0.373 OA
ATOM     21  H5  UNL     1       4.330  -7.683  42.188  1.00  0.00     0.216 HD
ENDBRANCH  19  20
ENDBRANCH  12  18
BRANCH  10  22
HETATM   22  O4  UNL     1       2.258  -5.287  42.626  1.00  0.00    -0.391 OA
ATOM     23  H4  UNL     1       3.139  -5.045  42.365  1.00  0.00     0.210 HD
ENDBRANCH  10  22
TORSDOF 5
ENDMDL