MODEL 5
REMARK VINA RESULT: -7.548187048      2.012      3.416
REMARK  4 active torsions:
REMARK  status: ('A' for Active; 'I' for Inactive)
REMARK    1  A    between atoms: C2_2  and  O2_4
REMARK    2  A    between atoms: O2_4  and  C3_5
REMARK    3  A    between atoms: C4_6  and  O3_8
REMARK    4  A    between atoms: C15_22  and  O5_23
ROOT
HETATM    1  C3  UNL     1      -0.222  -9.979  45.203  1.00  0.00     0.230 C
HETATM    2  C4  UNL     1      -1.408  -9.251  44.647  1.00  0.00     0.188 C
HETATM    3  C5  UNL     1      -2.396 -10.249  44.130  1.00  0.00     0.082 C
HETATM    4  O4  UNL     1      -0.937  -8.402  43.640  1.00  0.00    -0.343 OA
HETATM    5  C6  UNL     1       0.076  -9.110  43.046  1.00  0.00     0.185 C
HETATM    6  C7  UNL     1       0.989  -8.360  42.177  1.00  0.00     0.121 C
HETATM    7  N1  UNL     1       0.467  -7.435  41.268  1.00  0.00    -0.389 N
ATOM      8  H1  UNL     1      -0.489  -7.437  40.913  1.00  0.00     0.159 HD
HETATM    9  C8  UNL     1       1.367  -6.585  40.949  1.00  0.00    -0.021 C
HETATM   10  C9  UNL     1       1.165  -5.465  40.007  1.00  0.00     0.062 C
HETATM   11  C10 UNL     1       2.643  -6.888  41.674  1.00  0.00     0.062 C
HETATM   12  C11 UNL     1       2.025  -7.533  42.904  1.00  0.00    -0.016 C
HETATM   13  C12 UNL     1       1.448  -6.438  43.736  1.00  0.00     0.018 C
HETATM   14  C13 UNL     1       2.894  -8.451  43.657  1.00  0.00     0.014 C
HETATM   15  C14 UNL     1       2.015  -9.158  44.668  1.00  0.00     0.044 C
HETATM   16  C15 UNL     1       0.833  -9.846  44.118  1.00  0.00     0.117 C
ENDROOT
BRANCH   1  17
HETATM   17  O2  UNL     1       0.193  -9.459  46.432  1.00  0.00    -0.308 OA
BRANCH  17  18
HETATM   18  C2  UNL     1       0.269 -10.187  47.587  1.00  0.00     0.255 C
HETATM   19  C1  UNL     1      -0.262 -11.595  47.616  1.00  0.00     0.126 C
HETATM   20  O1  UNL     1       0.783  -9.674  48.618  1.00  0.00    -0.266 OA
ENDBRANCH  17  18
ENDBRANCH   1  17
BRANCH   2  21
HETATM   21  O3  UNL     1      -1.995  -8.534  45.677  1.00  0.00    -0.363 OA
ATOM     22  H3  UNL     1      -2.363  -9.154  46.296  1.00  0.00     0.213 HD
ENDBRANCH   2  21
BRANCH  16  23
HETATM   23  O5  UNL     1       1.219 -11.113  43.650  1.00  0.00    -0.384 OA
ATOM     24  H5  UNL     1       2.082 -11.072  43.257  1.00  0.00     0.210 HD
ENDBRANCH  16  23
TORSDOF 4
ENDMDL