MODEL 3
REMARK VINA RESULT: -7.354530305      2.243      4.365
REMARK  5 active torsions:
REMARK  status: ('A' for Active; 'I' for Inactive)
REMARK    1  A    between atoms: C2_2  and  O2_4
REMARK    2  A    between atoms: O2_4  and  C3_5
REMARK    3  A    between atoms: C6_8  and  O3_10
REMARK    4  A    between atoms: C8_12  and  O4_14
REMARK    5  A    between atoms: C12_18  and  O5_20
ROOT
HETATM    1  C3  UNL     1      -0.298  -8.571  42.580  1.00  0.00     0.154 C
HETATM    2  C4  UNL     1      -0.310  -9.882  41.902  1.00  0.00     0.004 C
HETATM    3  C5  UNL     1       0.639 -10.642  41.460  1.00  0.00     0.012 C
HETATM    4  C6  UNL     1       2.102 -10.493  41.459  1.00  0.00     0.102 C
HETATM    5  C7  UNL     1       2.631  -9.121  41.253  1.00  0.00     0.053 C
HETATM    6  C8  UNL     1       2.783 -11.189  42.633  1.00  0.00     0.088 C
HETATM    7  C9  UNL     1       2.606 -12.680  42.570  1.00  0.00     0.049 C
HETATM    8  C10 UNL     1       2.534 -10.584  43.957  1.00  0.00     0.044 C
HETATM    9  C11 UNL     1       1.368 -11.147  44.720  1.00  0.00     0.040 C
HETATM   10  C12 UNL     1       0.506 -10.048  45.322  1.00  0.00     0.054 C
HETATM   11  C13 UNL     1       0.187 -10.327  46.790  1.00  0.00     0.045 C
HETATM   12  C14 UNL     1      -0.815  -9.989  44.582  1.00  0.00     0.040 C
HETATM   13  C15 UNL     1      -0.944  -8.635  43.957  1.00  0.00     0.039 C
ENDROOT
BRANCH   1  14
HETATM   14  O2  UNL     1      -1.019  -7.585  41.824  1.00  0.00    -0.312 OA
BRANCH  14  15
HETATM   15  C2  UNL     1      -0.456  -6.456  41.302  1.00  0.00     0.255 C
HETATM   16  C1  UNL     1       0.251  -6.401  39.997  1.00  0.00     0.126 C
HETATM   17  O1  UNL     1      -0.533  -5.396  41.952  1.00  0.00    -0.266 OA
ENDBRANCH  14  15
ENDBRANCH   1  14
BRANCH   4  18
HETATM   18  O3  UNL     1       2.610 -11.221  40.332  1.00  0.00    -0.383 OA
ATOM     19  H3  UNL     1       3.470 -11.548  40.567  1.00  0.00     0.211 HD
ENDBRANCH   4  18
BRANCH  10  20
HETATM   20  O5  UNL     1       1.170  -8.820  45.313  1.00  0.00    -0.390 OA
ATOM     21  H5  UNL     1       1.695  -8.706  46.096  1.00  0.00     0.210 HD
ENDBRANCH  10  20
BRANCH   6  22
HETATM   22  O4  UNL     1       4.176 -11.018  42.388  1.00  0.00    -0.387 OA
ATOM     23  H4  UNL     1       4.471 -11.872  42.094  1.00  0.00     0.210 HD
ENDBRANCH   6  22
TORSDOF 5
ENDMDL