MODEL 5
REMARK VINA RESULT: -7.857885978      2.039      5.229
REMARK  3 active torsions:
REMARK  status: ('A' for Active; 'I' for Inactive)
REMARK    1  A    between atoms: C4_4  and  O1_5
REMARK    2  A    between atoms: C5_7  and  O2_8
REMARK    3  A    between atoms: C7_12  and  O3_14
ROOT
HETATM    1  C1  UNL     1       3.417  -8.243  40.991  1.00  0.00     0.017 C
HETATM    2  C2  UNL     1       2.340  -8.847  41.439  1.00  0.00    -0.048 C
HETATM    3  C3  UNL     1       2.202 -10.225  40.884  1.00  0.00     0.072 C
HETATM    4  C4  UNL     1       2.208 -11.136  42.102  1.00  0.00     0.170 C
HETATM    5  C5  UNL     1       0.758 -11.303  42.480  1.00  0.00     0.245 C
HETATM    6  N1  UNL     1       0.168 -10.220  43.129  1.00  0.00    -0.375 N
HETATM    7  C6  UNL     1      -0.746 -10.544  44.189  1.00  0.00     0.157 C
HETATM    8  C7  UNL     1      -1.145  -9.212  44.769  1.00  0.00     0.072 C
HETATM    9  C8  UNL     1      -0.811  -9.077  46.227  1.00  0.00     0.047 C
HETATM   10  C9  UNL     1      -0.416  -8.197  43.917  1.00  0.00     0.067 C
HETATM   11  C10 UNL     1       0.773  -9.038  43.404  1.00  0.00     0.126 C
HETATM   12  C11 UNL     1       1.420  -8.178  42.370  1.00  0.00     0.129 C
HETATM   13  C12 UNL     1       2.215  -7.128  43.135  1.00  0.00     0.216 C
HETATM   14  O4  UNL     1       2.015  -5.958  42.455  1.00  0.00    -0.352 OA
HETATM   15  C13 UNL     1       0.885  -6.090  41.711  1.00  0.00     0.158 C
HETATM   16  C14 UNL     1       1.186  -5.594  40.296  1.00  0.00     0.078 C
HETATM   17  C15 UNL     1      -0.156  -5.116  42.255  1.00  0.00     0.078 C
HETATM   18  O5  UNL     1       0.480  -7.389  41.696  1.00  0.00    -0.336 OA
ENDROOT
BRANCH   4  19
HETATM   19  O1  UNL     1       2.817 -12.352  41.810  1.00  0.00    -0.391 OA
ATOM     20  H1  UNL     1       3.695 -12.219  41.473  1.00  0.00     0.210 HD
ENDBRANCH   4  19
BRANCH   5  21
HETATM   21  O2  UNL     1       0.058 -11.611  41.315  1.00  0.00    -0.374 OA
ATOM     22  H2  UNL     1       0.018 -10.820  40.791  1.00  0.00     0.212 HD
ENDBRANCH   5  21
BRANCH   8  23
HETATM   23  O3  UNL     1      -2.526  -8.985  44.615  1.00  0.00    -0.389 OA
ATOM     24  H3  UNL     1      -2.909  -8.647  45.416  1.00  0.00     0.210 HD
ENDBRANCH   8  23
TORSDOF 3
ENDMDL