MODEL 2
REMARK VINA RESULT: -7.976821010      0.780      1.021
REMARK  6 active torsions:
REMARK  status: ('A' for Active; 'I' for Inactive)
REMARK    1  A    between atoms: C2_2  and  O2_4
REMARK    2  A    between atoms: O2_4  and  C3_5
REMARK    3  A    between atoms: C10_12  and  O3_13
REMARK    4  A    between atoms: C12_16  and  O4_17
REMARK    5  A    between atoms: C13_19  and  C14_20
REMARK    6  A    between atoms: C14_20  and  O5_21
ROOT
HETATM    1  C3  UNL     1       2.352  -9.678  42.077  1.00  0.00     0.156 C
HETATM    2  C4  UNL     1       2.350 -10.544  43.336  1.00  0.00     0.039 C
HETATM    3  C5  UNL     1       0.990 -11.125  43.530  1.00  0.00     0.036 C
HETATM    4  C6  UNL     1       0.652 -11.456  44.939  1.00  0.00    -0.087 C
HETATM    5  C7  UNL     1       0.840 -12.905  45.331  1.00  0.00     0.043 C
HETATM    6  C8  UNL     1       0.220 -10.627  45.843  1.00  0.00    -0.022 C
HETATM    7  C9  UNL     1      -0.022  -9.162  45.628  1.00  0.00     0.059 C
HETATM    8  C10 UNL     1      -1.283  -8.845  44.937  1.00  0.00     0.124 C
HETATM    9  C11 UNL     1      -1.256  -7.793  43.899  1.00  0.00     0.066 C
HETATM   10  C12 UNL     1      -0.353  -6.641  44.120  1.00  0.00     0.151 C
HETATM   11  C13 UNL     1       0.825  -6.587  43.172  1.00  0.00     0.173 C
HETATM   12  O6  UNL     1       0.939  -7.794  42.446  1.00  0.00    -0.379 OA
HETATM   13  C15 UNL     1       2.264  -8.212  42.388  1.00  0.00     0.200 C
ENDROOT
BRANCH   1  14
HETATM   14  O2  UNL     1       3.474  -9.998  41.286  1.00  0.00    -0.314 OA
BRANCH  14  15
HETATM   15  C2  UNL     1       3.358 -10.593  40.040  1.00  0.00     0.255 C
HETATM   16  C1  UNL     1       2.689  -9.870  38.940  1.00  0.00     0.126 C
HETATM   17  O1  UNL     1       3.839 -11.746  39.895  1.00  0.00    -0.266 OA
ENDBRANCH  14  15
ENDBRANCH   1  14
BRANCH  11  18
HETATM   18  C14 UNL     1       0.628  -5.511  42.093  1.00  0.00     0.198 C
BRANCH  18  19
HETATM   19  O5  UNL     1       0.413  -4.267  42.632  1.00  0.00    -0.398 OA
ATOM     20  H5  UNL     1       1.167  -3.948  43.113  1.00  0.00     0.209 HD
ENDBRANCH  18  19
ENDBRANCH  11  18
BRANCH  10  21
HETATM   21  O4  UNL     1       0.050  -6.488  45.449  1.00  0.00    -0.393 OA
ATOM     22  H4  UNL     1       0.232  -5.588  45.692  1.00  0.00     0.210 HD
ENDBRANCH  10  21
BRANCH   8  23
HETATM   23  O3  UNL     1      -2.322  -8.527  45.845  1.00  0.00    -0.395 OA
ATOM     24  H3  UNL     1      -2.078  -8.712  46.745  1.00  0.00     0.210 HD
ENDBRANCH   8  23
TORSDOF 6
ENDMDL