MODEL 5
REMARK VINA RESULT: -6.734728356      1.936      5.305
REMARK  5 active torsions:
REMARK  status: ('A' for Active; 'I' for Inactive)
REMARK    1  A    between atoms: C2_2  and  O2_4
REMARK    2  A    between atoms: O2_4  and  C3_5
REMARK    3  A    between atoms: C5_7  and  O3_9
REMARK    4  A    between atoms: C9_14  and  O4_16
REMARK    5  A    between atoms: C13_20  and  O5_21
ROOT
HETATM    1  C3  UNL     1       0.897  -8.854  42.680  1.00  0.00     0.175 C
HETATM    2  C4  UNL     1       1.306  -7.465  42.316  1.00  0.00     0.085 C
HETATM    3  C5  UNL     1       0.058  -6.580  42.403  1.00  0.00     0.109 C
HETATM    4  C6  UNL     1       0.418  -5.137  42.265  1.00  0.00     0.058 C
HETATM    5  S1  UNL     1      -0.736  -6.826  44.021  1.00  0.00    -0.094 SA
HETATM    6  C7  UNL     1      -0.247  -8.387  44.735  1.00  0.00     0.017 C
HETATM    7  C8  UNL     1      -0.984  -8.901  45.703  1.00  0.00     0.027 C
HETATM    8  C9  UNL     1      -0.627 -10.215  46.347  1.00  0.00     0.073 C
HETATM    9  C10 UNL     1      -0.900 -10.146  47.819  1.00  0.00     0.050 C
HETATM   10  C11 UNL     1       0.786 -10.606  46.015  1.00  0.00     0.045 C
HETATM   11  C12 UNL     1       0.946 -10.509  44.510  1.00  0.00     0.049 C
HETATM   12  C13 UNL     1       0.986  -9.030  44.182  1.00  0.00     0.117 C
ENDROOT
BRANCH   1  13
HETATM   13  O2  UNL     1       1.623  -9.853  41.993  1.00  0.00    -0.313 OA
BRANCH  13  14
HETATM   14  C2  UNL     1       1.297 -10.285  40.709  1.00  0.00     0.255 C
HETATM   15  C1  UNL     1       2.084  -9.918  39.520  1.00  0.00     0.126 C
HETATM   16  O1  UNL     1       0.274 -11.025  40.595  1.00  0.00    -0.266 OA
ENDBRANCH  13  14
ENDBRANCH   1  13
BRANCH  12  17
HETATM   17  O5  UNL     1       2.140  -8.431  44.643  1.00  0.00    -0.382 OA
ATOM     18  H5  UNL     1       2.424  -8.868  45.438  1.00  0.00     0.211 HD
ENDBRANCH  12  17
BRANCH   3  19
HETATM   19  O3  UNL     1      -0.789  -6.970  41.373  1.00  0.00    -0.379 OA
ATOM     20  H3  UNL     1      -1.530  -7.409  41.775  1.00  0.00     0.211 HD
ENDBRANCH   3  19
BRANCH   8  21
HETATM   21  O4  UNL     1      -1.467 -11.165  45.762  1.00  0.00    -0.386 OA
ATOM     22  H4  UNL     1      -1.397 -11.940  46.306  1.00  0.00     0.211 HD
ENDBRANCH   8  21
TORSDOF 5
ENDMDL