MODEL 5
REMARK VINA RESULT: -6.866457162      3.738      6.250
REMARK  6 active torsions:
REMARK  status: ('A' for Active; 'I' for Inactive)
REMARK    1  A    between atoms: C2_2  and  C3_3
REMARK    2  A    between atoms: C3_3  and  O1_4
REMARK    3  A    between atoms: C7_9  and  C8_10
REMARK    4  A    between atoms: C8_10  and  C9_11
REMARK    5  A    between atoms: C12_14  and  O2_15
REMARK    6  A    between atoms: C15_19  and  O3_20
ROOT
HETATM    1  C3  UNL     1      14.592 -16.726  22.123  1.00  0.00     0.101 C
HETATM    2  C4  UNL     1      13.107 -16.775  22.316  1.00  0.00     0.045 C
HETATM    3  C5  UNL     1      12.546 -15.593  23.035  1.00  0.00     0.009 C
HETATM    4  C6  UNL     1      12.973 -14.318  22.346  1.00  0.00    -0.004 C
HETATM    5  C7  UNL     1      13.267 -13.176  23.327  1.00  0.00    -0.009 C
HETATM    6  C13 UNL     1      14.550 -12.955  22.605  1.00  0.00     0.012 C
HETATM    7  C14 UNL     1      14.424 -14.314  21.988  1.00  0.00     0.022 C
HETATM    8  C15 UNL     1      15.194 -15.422  22.654  1.00  0.00     0.161 C
ENDROOT
BRANCH   5   9
HETATM    9  C8  UNL     1      12.211 -12.116  23.169  1.00  0.00     0.012 C
BRANCH   9  10
HETATM   10  C9  UNL     1      11.882 -11.398  24.435  1.00  0.00     0.015 C
HETATM   11  C10 UNL     1      12.921 -11.360  25.499  1.00  0.00     0.010 C
HETATM   12  C11 UNL     1      12.492  -9.904  25.744  1.00  0.00     0.032 C
HETATM   13  C12 UNL     1      12.120  -9.892  24.261  1.00  0.00     0.122 C
BRANCH  13  14
HETATM   14  O2  UNL     1      13.227  -9.709  23.446  1.00  0.00    -0.395 OA
ATOM     15  H2  UNL     1      13.175 -10.321  22.722  1.00  0.00     0.210 HD
ENDBRANCH  13  14
ENDBRANCH   9  10
ENDBRANCH   5   9
BRANCH   8  16
HETATM   16  O3  UNL     1      15.195 -15.356  24.020  1.00  0.00    -0.392 OA
ATOM     17  H3  UNL     1      14.898 -14.516  24.348  1.00  0.00     0.210 HD
ENDBRANCH   8  16
BRANCH   1  18
HETATM   18  C2  UNL     1      15.290 -17.903  22.636  1.00  0.00     0.003 C
HETATM   19  C1  UNL     1      15.316 -19.017  21.930  1.00  0.00     0.010 C
ENDBRANCH   1  18
BRANCH   1  20
HETATM   20  O1  UNL     1      14.816 -16.685  20.727  1.00  0.00    -0.383 OA
ATOM     21  H1  UNL     1      14.264 -15.996  20.375  1.00  0.00     0.211 HD
ENDBRANCH   1  20
TORSDOF 6
ENDMDL