MODEL 1
REMARK VINA RESULT: -6.967804568      0.000      0.000
REMARK  6 active torsions:
REMARK  status: ('A' for Active; 'I' for Inactive)
REMARK    1  A    between atoms: C3_3  and  C4_4
REMARK    2  A    between atoms: C6_6  and  C7_7
REMARK    3  A    between atoms: C7_7  and  O1_8
REMARK    4  A    between atoms: C7_7  and  C8_10
REMARK    5  A    between atoms: C8_10  and  O2_11
REMARK    6  A    between atoms: C14_18  and  O3_19
ROOT
HETATM    1  C4  UNL     1       9.492 -11.933  25.897  1.00  0.00     0.015 C
HETATM    2  C5  UNL     1      10.375 -10.765  26.269  1.00  0.00     0.017 C
HETATM    3  C6  UNL     1      11.749 -11.045  25.655  1.00  0.00     0.026 C
HETATM    4  C9  UNL     1      11.644 -12.246  24.813  1.00  0.00    -0.031 C
HETATM    5  C10 UNL     1      12.463 -13.347  25.445  1.00  0.00     0.016 C
HETATM    6  C11 UNL     1      12.119 -12.154  23.387  1.00  0.00     0.010 C
HETATM    7  C12 UNL     1      11.386 -13.089  22.460  1.00  0.00     0.003 C
HETATM    8  C13 UNL     1      10.637 -14.200  23.064  1.00  0.00     0.032 C
HETATM    9  C14 UNL     1       9.933 -13.915  24.364  1.00  0.00     0.123 C
HETATM   10  C15 UNL     1      10.174 -12.501  24.725  1.00  0.00     0.030 C
ENDROOT
BRANCH   3  11
HETATM   11  C7  UNL     1      12.319  -9.808  25.012  1.00  0.00     0.146 C
BRANCH  11  12
HETATM   12  O1  UNL     1      13.689  -9.799  25.177  1.00  0.00    -0.393 OA
ATOM     13  H1  UNL     1      13.924  -9.135  25.815  1.00  0.00     0.210 HD
ENDBRANCH  11  12
BRANCH  11  14
HETATM   14  C8  UNL     1      11.769  -8.620  25.782  1.00  0.00     0.196 C
BRANCH  14  15
HETATM   15  O2  UNL     1      11.403  -7.576  24.935  1.00  0.00    -0.398 OA
ATOM     16  H2  UNL     1      11.012  -6.853  25.411  1.00  0.00     0.209 HD
ENDBRANCH  14  15
ENDBRANCH  11  14
ENDBRANCH   3  11
BRANCH   1  17
HETATM   17  C3  UNL     1       9.203 -12.849  27.017  1.00  0.00    -0.026 C
HETATM   18  C2  UNL     1       8.150 -12.730  27.801  1.00  0.00    -0.035 C
HETATM   19  C1  UNL     1       7.191 -11.628  27.571  1.00  0.00     0.036 C
ENDBRANCH   1  17
BRANCH   9  20
HETATM   20  O3  UNL     1      10.347 -14.842  25.310  1.00  0.00    -0.395 OA
ATOM     21  H3  UNL     1      10.965 -14.425  25.899  1.00  0.00     0.210 HD
ENDBRANCH   9  20
TORSDOF 6
ENDMDL