MODEL 2
REMARK VINA RESULT: -7.347543638      3.501      5.406
REMARK  3 active torsions:
REMARK  status: ('A' for Active; 'I' for Inactive)
REMARK    1  A    between atoms: C4_4  and  C5_5
REMARK    2  A    between atoms: C9_11  and  C10_12
REMARK    3  A    between atoms: C12_16  and  O5_17
ROOT
HETATM    1  C1  UNL     1      11.406 -12.934  25.230  1.00  0.00     0.011 C
HETATM    2  C2  UNL     1      10.666 -11.616  25.349  1.00  0.00     0.002 C
HETATM    3  C3  UNL     1       9.940 -11.630  26.661  1.00  0.00     0.026 C
HETATM    4  C4  UNL     1       9.020 -10.489  26.880  1.00  0.00     0.052 C
HETATM    5  C6  UNL     1       9.702  -9.424  27.724  1.00  0.00     0.028 C
HETATM    6  C7  UNL     1      10.609  -8.774  26.683  1.00  0.00     0.022 C
HETATM    7  C8  UNL     1      11.782  -9.666  26.455  1.00  0.00     0.028 C
HETATM    8  C9  UNL     1      11.542 -10.422  25.167  1.00  0.00     0.055 C
HETATM    9  C11 UNL     1      10.774  -9.398  24.361  1.00  0.00     0.059 C
HETATM   10  C12 UNL     1       9.827  -8.826  25.385  1.00  0.00     0.064 C
HETATM   11  C13 UNL     1       8.661  -9.721  25.643  1.00  0.00     0.058 C
ENDROOT
BRANCH   4  12
HETATM   12  C5  UNL     1       7.765 -10.948  27.512  1.00  0.00     0.182 C
HETATM   13  O1  UNL     1       7.700 -12.005  28.178  1.00  0.00    -0.647 OA
HETATM   14  O2  UNL     1       6.626 -10.184  27.361  1.00  0.00    -0.647 OA
ENDBRANCH   4  12
BRANCH  10  15
HETATM   15  O5  UNL     1       9.439  -7.551  24.966  1.00  0.00    -0.389 OA
ATOM     16  H5  UNL     1       8.517  -7.395  25.127  1.00  0.00     0.210 HD
ENDBRANCH  10  15
BRANCH   8  17
HETATM   17  C10 UNL     1      12.822 -10.665  24.535  1.00  0.00     0.182 C
HETATM   18  O3  UNL     1      12.874 -10.788  23.288  1.00  0.00    -0.647 OA
HETATM   19  O4  UNL     1      14.021 -10.773  25.226  1.00  0.00    -0.647 OA
ENDBRANCH   8  17
TORSDOF 3
ENDMDL