MODEL 1
REMARK VINA RESULT: -7.253722041      0.000      0.000
REMARK  3 active torsions:
REMARK  status: ('A' for Active; 'I' for Inactive)
REMARK    1  A    between atoms: C4_4  and  C5_5
REMARK    2  A    between atoms: C9_11  and  O3_13
REMARK    3  A    between atoms: C11_15  and  C13_17
ROOT
HETATM    1  C1  UNL     1      11.190  -9.335  27.201  1.00  0.00     0.011 C
HETATM    2  C2  UNL     1      10.173 -10.362  26.745  1.00  0.00     0.002 C
HETATM    3  C3  UNL     1       8.894 -10.193  27.537  1.00  0.00     0.029 C
HETATM    4  C4  UNL     1       7.724 -10.913  26.976  1.00  0.00     0.079 C
HETATM    5  C6  UNL     1       7.465 -10.439  25.544  1.00  0.00     0.029 C
HETATM    6  C7  UNL     1       8.708 -10.998  24.866  1.00  0.00     0.009 C
HETATM    7  C8  UNL     1       8.699 -12.404  25.421  1.00  0.00     0.044 C
HETATM    8  C9  UNL     1       7.945 -12.371  26.730  1.00  0.00     0.072 C
HETATM    9  C10 UNL     1       8.630 -13.097  27.831  1.00  0.00     0.047 C
HETATM   10  C11 UNL     1       9.925 -10.204  25.261  1.00  0.00     0.052 C
HETATM   11  C12 UNL     1       9.649  -8.758  24.893  1.00  0.00     0.027 C
ENDROOT
BRANCH  10  12
HETATM   12  C13 UNL     1      11.122 -10.654  24.536  1.00  0.00     0.182 C
HETATM   13  O4  UNL     1      11.496 -10.044  23.471  1.00  0.00    -0.647 OA
HETATM   14  O5  UNL     1      11.932 -11.718  24.894  1.00  0.00    -0.647 OA
ENDBRANCH  10  12
BRANCH   4  15
HETATM   15  C5  UNL     1       6.535 -10.655  27.794  1.00  0.00     0.184 C
HETATM   16  O1  UNL     1       6.543 -10.831  29.030  1.00  0.00    -0.647 OA
HETATM   17  O2  UNL     1       5.377 -10.206  27.186  1.00  0.00    -0.647 OA
ENDBRANCH   4  15
BRANCH   8  18
HETATM   18  O3  UNL     1       6.700 -12.962  26.524  1.00  0.00    -0.389 OA
ATOM     19  H3  UNL     1       6.796 -13.897  26.662  1.00  0.00     0.210 HD
ENDBRANCH   8  18
TORSDOF 3
ENDMDL