MODEL 5
REMARK VINA RESULT: -6.994684350      2.762      5.004
REMARK  5 active torsions:
REMARK  status: ('A' for Active; 'I' for Inactive)
REMARK    1  A    between atoms: C2_2  and  C3_3
REMARK    2  A    between atoms: C3_3  and  C4_4
REMARK    3  A    between atoms: C8_8  and  O1_9
REMARK    4  A    between atoms: C9_11  and  O2_13
REMARK    5  A    between atoms: C11_15  and  O3_16
ROOT
HETATM    1  C4  UNL     1      10.097 -13.868  23.006  1.00  0.00     0.002 C
HETATM    2  C5  UNL     1      10.623 -12.610  22.426  1.00  0.00    -0.006 C
HETATM    3  C6  UNL     1      10.322 -11.317  23.097  1.00  0.00     0.011 C
HETATM    4  C7  UNL     1      11.966 -13.230  22.649  1.00  0.00     0.030 C
HETATM    5  C8  UNL     1      13.161 -12.432  22.869  1.00  0.00     0.160 C
HETATM    6  C9  UNL     1      14.376 -13.324  22.559  1.00  0.00     0.106 C
HETATM    7  C10 UNL     1      14.527 -13.479  21.082  1.00  0.00     0.051 C
HETATM    8  C11 UNL     1      14.331 -14.600  23.324  1.00  0.00     0.154 C
HETATM    9  C12 UNL     1      13.280 -15.563  22.933  1.00  0.00     0.035 C
HETATM   10  C13 UNL     1      11.981 -15.451  23.639  1.00  0.00     0.012 C
HETATM   11  C14 UNL     1      11.416 -14.053  23.731  1.00  0.00    -0.033 C
HETATM   12  C15 UNL     1      11.325 -13.608  25.120  1.00  0.00     0.016 C
ENDROOT
BRANCH   1  13
HETATM   13  C3  UNL     1       8.850 -13.847  23.797  1.00  0.00     0.032 C
BRANCH  13  14
HETATM   14  C2  UNL     1       7.919 -14.868  23.226  1.00  0.00    -0.036 C
HETATM   15  C1  UNL     1       8.249 -16.153  23.135  1.00  0.00     0.007 C
ENDBRANCH  13  14
ENDBRANCH   1  13
BRANCH   5  16
HETATM   16  O1  UNL     1      13.382 -11.902  24.106  1.00  0.00    -0.392 OA
ATOM     17  H1  UNL     1      12.926 -12.272  24.853  1.00  0.00     0.210 HD
ENDBRANCH   5  16
BRANCH   6  18
HETATM   18  O2  UNL     1      15.493 -12.599  23.018  1.00  0.00    -0.385 OA
ATOM     19  H2  UNL     1      15.538 -12.776  23.950  1.00  0.00     0.210 HD
ENDBRANCH   6  18
BRANCH   8  20
HETATM   20  O3  UNL     1      15.583 -15.219  23.161  1.00  0.00    -0.392 OA
ATOM     21  H3  UNL     1      15.670 -15.854  23.862  1.00  0.00     0.210 HD
ENDBRANCH   8  20
TORSDOF 5
ENDMDL