MODEL 5
REMARK VINA RESULT: -6.779356679      2.601      6.365
REMARK  3 active torsions:
REMARK  status: ('A' for Active; 'I' for Inactive)
REMARK    1  A    between atoms: C2_2  and  N1_4
REMARK    2  A    between atoms: C2_2  and  C6_10
REMARK       I    between atoms: N1_4  and  C4_6
REMARK       I    between atoms: C6_10  and  N3_12
REMARK    3  A    between atoms: N3_12  and  C7_14
ROOT
HETATM    1  N1  UNL     1      11.516 -15.711  24.436  1.00  0.00    -0.331 N
ATOM      2  H1  UNL     1      11.180 -16.662  24.592  1.00  0.00     0.164 HD
HETATM    3  C4  UNL     1      12.843 -15.372  24.822  1.00  0.00     0.323 C
HETATM    4  O1  UNL     1      13.235 -14.192  24.620  1.00  0.00    -0.256 OA
HETATM    5  C5  UNL     1      13.730 -16.303  25.419  1.00  0.00     0.162 C
HETATM    6  N2  UNL     1      14.467 -17.069  25.897  1.00  0.00    -0.186 NA
ENDROOT
BRANCH   1   7
HETATM    7  C2  UNL     1      10.629 -14.739  23.827  1.00  0.00     0.107 C
HETATM    8  C1  UNL     1       9.378 -15.458  23.396  1.00  0.00     0.048 C
HETATM    9  C3  UNL     1      11.349 -14.141  22.624  1.00  0.00     0.048 C
BRANCH   7  10
HETATM   10  C6  UNL     1      10.302 -13.714  24.831  1.00  0.00     0.245 C
HETATM   11  O2  UNL     1       9.584 -13.984  25.800  1.00  0.00    -0.271 OA
HETATM   12  N3  UNL     1      10.797 -12.376  24.720  1.00  0.00    -0.354 N
ATOM     13  H3  UNL     1      11.392 -12.126  23.930  1.00  0.00     0.162 HD
BRANCH  12  14
HETATM   14  C7  UNL     1      10.467 -11.361  25.719  1.00  0.00     0.084 C
HETATM   15  C8  UNL     1       9.278 -10.607  25.234  1.00  0.00     0.025 C
HETATM   16  C9  UNL     1       8.380 -10.106  26.322  1.00  0.00     0.002 C
HETATM   17  C10 UNL     1       9.119  -9.770  27.597  1.00  0.00     0.000 C
HETATM   18  C11 UNL     1      10.298  -8.880  27.352  1.00  0.00     0.000 C
HETATM   19  C12 UNL     1      11.576  -9.611  27.132  1.00  0.00     0.002 C
HETATM   20  C13 UNL     1      11.620 -10.404  25.863  1.00  0.00     0.025 C
ENDBRANCH  12  14
ENDBRANCH   7  10
ENDBRANCH   1   7
TORSDOF 3
ENDMDL