MODEL 5
REMARK VINA RESULT: -6.289955324      3.921      7.803
REMARK  4 active torsions:
REMARK  status: ('A' for Active; 'I' for Inactive)
REMARK    1  A    between atoms: C2_2  and  C4_10
REMARK    2  A    between atoms: N1_3  and  N2_5
REMARK    3  A    between atoms: N2_5  and  C3_7
REMARK       I    between atoms: C4_10  and  N3_12
REMARK    4  A    between atoms: N3_12  and  C5_14
ROOT
HETATM    1  C4  UNL     1      12.864 -12.485  24.348  1.00  0.00     0.265 C
HETATM    2  O1  UNL     1      13.793 -12.742  25.153  1.00  0.00    -0.266 OA
HETATM    3  N3  UNL     1      11.677 -11.790  24.780  1.00  0.00    -0.351 N
ATOM      4  H3  UNL     1      10.938 -11.595  24.104  1.00  0.00     0.163 HD
ENDROOT
BRANCH   1   5
HETATM    5  C2  UNL     1      13.025 -12.913  22.968  1.00  0.00     0.089 C
HETATM    6  C1  UNL     1      12.112 -13.919  22.371  1.00  0.00     0.076 C
HETATM    7  N1  UNL     1      13.956 -12.446  22.205  1.00  0.00    -0.298 N
ATOM      8  H1  UNL     1      14.595 -11.754  22.596  1.00  0.00     0.186 HD
BRANCH   7   9
HETATM    9  N2  UNL     1      14.137 -12.831  20.890  1.00  0.00    -0.284 N
ATOM     10  H2  UNL     1      13.436 -12.542  20.208  1.00  0.00     0.188 HD
BRANCH   9  11
HETATM   11  C3  UNL     1      15.232 -13.601  20.428  1.00  0.00     0.164 C
HETATM   12  S1  UNL     1      15.454 -15.125  20.912  1.00  0.00    -0.050 SA
HETATM   13  S2  UNL     1      16.403 -12.887  19.284  1.00  0.00    -0.019 SA
ENDBRANCH   9  11
ENDBRANCH   7   9
ENDBRANCH   1   5
BRANCH   3  14
HETATM   14  C5  UNL     1      11.511 -11.362  26.155  1.00  0.00     0.084 C
HETATM   15  C6  UNL     1      12.051  -9.991  26.380  1.00  0.00     0.025 C
HETATM   16  C7  UNL     1      11.381  -9.174  27.416  1.00  0.00     0.002 C
HETATM   17  C8  UNL     1       9.897  -9.315  27.498  1.00  0.00     0.000 C
HETATM   18  C9  UNL     1       9.337 -10.165  26.374  1.00  0.00     0.002 C
HETATM   19  C10 UNL     1      10.051 -11.508  26.496  1.00  0.00     0.025 C
ENDBRANCH   3  14
TORSDOF 4
ENDMDL