MODEL 5
REMARK VINA RESULT: -7.043517669      2.190      3.203
REMARK  5 active torsions:
REMARK  status: ('A' for Active; 'I' for Inactive)
REMARK       I    between atoms: C1_2  and  N1_3
REMARK    1  A    between atoms: C1_2  and  C9_16
REMARK    2  A    between atoms: N1_3  and  C2_5
REMARK    3  A    between atoms: C5_8  and  C6_9
REMARK    4  A    between atoms: C6_9  and  O2_10
REMARK    5  A    between atoms: C8_13  and  O3_14
ROOT
HETATM    1  C2  UNL     1      11.803 -11.083  24.203  1.00  0.00     0.113 C
HETATM    2  C3  UNL     1      12.767 -10.756  25.321  1.00  0.00     0.028 C
HETATM    3  C4  UNL     1      11.938 -10.348  26.510  1.00  0.00     0.009 C
HETATM    4  C5  UNL     1      11.168  -9.114  26.160  1.00  0.00     0.012 C
HETATM    5  C7  UNL     1      10.415  -9.198  24.873  1.00  0.00     0.040 C
HETATM    6  C8  UNL     1      11.211  -9.768  23.733  1.00  0.00     0.141 C
ENDROOT
BRANCH   1   7
HETATM    7  N1  UNL     1      12.389 -11.848  23.150  1.00  0.00    -0.354 N
HETATM    8  C1  UNL     1      12.447 -13.278  23.144  1.00  0.00     0.222 C
HETATM    9  O1  UNL     1      11.963 -13.922  24.104  1.00  0.00    -0.273 OA
ATOM     10  H1  UNL     1      12.790 -11.347  22.357  1.00  0.00     0.163 HD
BRANCH   8  11
HETATM   11  C9  UNL     1      13.064 -14.021  22.029  1.00  0.00     0.078 C
HETATM   12  C10 UNL     1      14.215 -13.276  21.402  1.00  0.00     0.014 C
HETATM   13  C11 UNL     1      15.547 -13.635  22.003  1.00  0.00     0.001 C
HETATM   14  C12 UNL     1      15.780 -15.121  22.069  1.00  0.00     0.000 C
HETATM   15  C13 UNL     1      14.560 -15.909  21.652  1.00  0.00     0.001 C
HETATM   16  C14 UNL     1      13.394 -15.409  22.448  1.00  0.00     0.014 C
ENDBRANCH   8  11
ENDBRANCH   1   7
BRANCH   6  17
HETATM   17  O3  UNL     1      10.381  -9.927  22.642  1.00  0.00    -0.394 OA
ATOM     18  H3  UNL     1      10.430 -10.803  22.276  1.00  0.00     0.210 HD
ENDBRANCH   6  17
BRANCH   4  19
HETATM   19  C6  UNL     1      10.183  -8.853  27.286  1.00  0.00     0.168 C
BRANCH  19  20
HETATM   20  O2  UNL     1       9.077  -8.121  26.832  1.00  0.00    -0.400 OA
ATOM     21  H2  UNL     1       8.384  -8.109  27.482  1.00  0.00     0.209 HD
ENDBRANCH  19  20
ENDBRANCH   4  19
TORSDOF 5
ENDMDL