MODEL 4
REMARK VINA RESULT: -7.271761949      2.313      5.541
REMARK  4 active torsions:
REMARK  status: ('A' for Active; 'I' for Inactive)
REMARK       I    between atoms: N1_2  and  C2_4
REMARK       I    between atoms: C2_4  and  N2_6
REMARK    1  A    between atoms: N2_6  and  N3_8
REMARK    2  A    between atoms: C3_10  and  C4_11
REMARK    3  A    between atoms: C3_10  and  C11_18
REMARK    4  A    between atoms: C4_11  and  C5_12
REMARK       I    between atoms: C11_18  and  N4_20
ROOT
HETATM    1  N3  UNL     1      16.878 -14.002  20.679  1.00  0.00    -0.295 N
ATOM      2  H3  UNL     1      17.677 -14.407  20.192  1.00  0.00     0.187 HD
HETATM    3  C3  UNL     1      16.385 -14.802  21.539  1.00  0.00     0.093 C
ENDROOT
BRANCH   3   4
HETATM    4  C4  UNL     1      17.086 -16.127  21.625  1.00  0.00     0.069 C
BRANCH   4   5
HETATM    5  C5  UNL     1      16.267 -17.312  21.248  1.00  0.00    -0.009 C
HETATM    6  C6  UNL     1      15.871 -18.198  22.361  1.00  0.00     0.005 C
HETATM    7  C7  UNL     1      15.024 -19.383  21.881  1.00  0.00     0.000 C
HETATM    8  C8  UNL     1      13.827 -18.945  21.107  1.00  0.00     0.000 C
HETATM    9  C9  UNL     1      13.784 -17.461  20.877  1.00  0.00     0.000 C
HETATM   10  C10 UNL     1      15.083 -16.895  20.382  1.00  0.00     0.005 C
ENDBRANCH   4   5
ENDBRANCH   3   4
BRANCH   3  11
HETATM   11  C11 UNL     1      15.288 -14.463  22.425  1.00  0.00     0.265 C
HETATM   12  O2  UNL     1      14.391 -13.658  21.940  1.00  0.00    -0.266 OA
HETATM   13  N4  UNL     1      15.084 -14.905  23.743  1.00  0.00    -0.360 N
HETATM   14  C12 UNL     1      13.927 -14.474  24.514  1.00  0.00     0.149 C
ATOM     15  H4  UNL     1      15.760 -15.540  24.168  1.00  0.00     0.162 HD
ENDBRANCH   3  11
BRANCH   1  16
HETATM   16  N2  UNL     1      16.607 -12.753  20.254  1.00  0.00    -0.251 N
HETATM   17  C2  UNL     1      16.846 -12.276  18.924  1.00  0.00     0.334 C
HETATM   18  N1  UNL     1      16.562 -10.976  18.487  1.00  0.00    -0.346 N
HETATM   19  O1  UNL     1      17.344 -13.094  18.108  1.00  0.00    -0.246 OA
HETATM   20  C1  UNL     1      16.812 -10.522  17.138  1.00  0.00     0.151 C
ATOM     21  H1  UNL     1      16.158 -10.318  19.153  1.00  0.00     0.163 HD
ATOM     22  H2  UNL     1      16.204 -12.101  20.926  1.00  0.00     0.191 HD
ENDBRANCH   1  16
TORSDOF 4
ENDMDL