MODEL 5
REMARK VINA RESULT: -6.856307954      2.575      4.084
REMARK  6 active torsions:
REMARK  status: ('A' for Active; 'I' for Inactive)
REMARK    1  A    between atoms: C2_2  and  C3_3
REMARK    2  A    between atoms: C3_3  and  C4_4
REMARK    3  A    between atoms: C4_4  and  C5_5
REMARK    4  A    between atoms: C5_5  and  O1_6
REMARK    5  A    between atoms: C11_13  and  O2_14
REMARK    6  A    between atoms: C14_18  and  O3_19
ROOT
HETATM    1  C4  UNL     1      11.736 -11.240  24.755  1.00  0.00    -0.009 C
HETATM    2  C6  UNL     1      10.585 -11.029  23.854  1.00  0.00     0.012 C
HETATM    3  C7  UNL     1      10.627 -11.773  22.559  1.00  0.00     0.002 C
HETATM    4  C8  UNL     1      10.976 -13.214  22.723  1.00  0.00     0.012 C
HETATM    5  C9  UNL     1      12.356 -13.273  23.360  1.00  0.00    -0.011 C
HETATM    6  C10 UNL     1      13.336 -12.973  22.305  1.00  0.00     0.018 C
HETATM    7  C11 UNL     1      12.550 -14.779  23.655  1.00  0.00     0.127 C
HETATM    8  C12 UNL     1      13.845 -14.996  24.384  1.00  0.00     0.035 C
HETATM    9  C13 UNL     1      13.967 -14.159  25.629  1.00  0.00     0.034 C
HETATM   10  C14 UNL     1      13.700 -12.686  25.363  1.00  0.00     0.124 C
HETATM   11  C15 UNL     1      12.396 -12.576  24.655  1.00  0.00     0.036 C
ENDROOT
BRANCH   1  12
HETATM   12  C3  UNL     1      11.162 -11.073  26.183  1.00  0.00     0.038 C
BRANCH  12  13
HETATM   13  C2  UNL     1      11.345  -9.730  26.725  1.00  0.00    -0.036 C
HETATM   14  C1  UNL     1      10.337  -9.192  27.435  1.00  0.00     0.007 C
ENDBRANCH  12  13
ENDBRANCH   1  12
BRANCH   1  15
HETATM   15  C5  UNL     1      12.690 -10.049  24.690  1.00  0.00     0.174 C
BRANCH  15  16
HETATM   16  O1  UNL     1      13.197  -9.777  23.457  1.00  0.00    -0.400 OA
ATOM     17  H1  UNL     1      13.338  -8.856  23.270  1.00  0.00     0.209 HD
ENDBRANCH  15  16
ENDBRANCH   1  15
BRANCH  10  18
HETATM   18  O3  UNL     1      14.769 -12.054  24.799  1.00  0.00    -0.395 OA
ATOM     19  H3  UNL     1      14.576 -11.712  23.934  1.00  0.00     0.210 HD
ENDBRANCH  10  18
BRANCH   7  20
HETATM   20  O2  UNL     1      12.594 -15.511  22.471  1.00  0.00    -0.395 OA
ATOM     21  H2  UNL     1      13.055 -16.332  22.601  1.00  0.00     0.210 HD
ENDBRANCH   7  20
TORSDOF 6
ENDMDL