MODEL 5
REMARK VINA RESULT: -5.580683636      2.953      5.519
REMARK  16 active torsions:
REMARK  status: ('A' for Active; 'I' for Inactive)
REMARK    1  A    between atoms: C2_2  and  C3_3
REMARK    2  A    between atoms: C3_3  and  N1_4
REMARK    3  A    between atoms: C3_3  and  C4_8
REMARK    4  A    between atoms: C5_13  and  N4_14
REMARK    5  A    between atoms: N4_14  and  C6_16
REMARK    6  A    between atoms: C7_19  and  O2_20
REMARK    7  A    between atoms: O2_20  and  C8_21
REMARK    8  A    between atoms: C9_22  and  O3_23
REMARK    9  A    between atoms: C10_25  and  O4_26
REMARK   10  A    between atoms: C12_29  and  O6_30
REMARK   11  A    between atoms: C12_29  and  C13_32
REMARK   12  A    between atoms: C13_32  and  S1_33
REMARK   13  A    between atoms: S1_33  and  C14_34
REMARK   14  A    between atoms: C18_38  and  O7_39
REMARK   15  A    between atoms: C19_41  and  N6_42
REMARK   16  A    between atoms: C21_47  and  N7_48
ROOT
HETATM    1  C6  UNL     1       0.280 -27.333  96.815  1.00  0.00     0.211 C
HETATM    2  N5  UNL     1      -0.436 -26.099  96.726  1.00  0.00    -0.373 N
ATOM      3  H5  UNL     1      -0.721 -25.710  95.827  1.00  0.00     0.158 HD
HETATM    4  C7  UNL     1      -0.732 -25.439  97.953  1.00  0.00     0.249 C
HETATM    5  C19 UNL     1       0.459 -25.248  98.826  1.00  0.00     0.233 C
HETATM    6  C20 UNL     1       1.660 -25.868  98.148  1.00  0.00     0.074 C
HETATM    7  C21 UNL     1       1.300 -27.335  97.936  1.00  0.00     0.227 C
ENDROOT
BRANCH   4   8
HETATM    8  O2  UNL     1      -1.823 -25.985  98.629  1.00  0.00    -0.354 OA
BRANCH   8   9
HETATM    9  C8  UNL     1      -2.628 -25.021  99.222  1.00  0.00     0.192 C
HETATM   10  C9  UNL     1      -3.806 -25.757  99.854  1.00  0.00     0.205 C
HETATM   11  C10 UNL     1      -4.624 -24.607 100.468  1.00  0.00     0.294 C
HETATM   12  O5  UNL     1      -5.225 -23.985  99.406  1.00  0.00    -0.319 OA
HETATM   13  C12 UNL     1      -4.346 -23.260  98.597  1.00  0.00     0.202 C
HETATM   14  C18 UNL     1      -3.073 -23.929  98.302  1.00  0.00     0.213 C
BRANCH  10  15
HETATM   15  O3  UNL     1      -4.565 -26.289  98.837  1.00  0.00    -0.388 OA
ATOM     16  H3  UNL     1      -5.438 -25.921  98.902  1.00  0.00     0.210 HD
ENDBRANCH  10  15
BRANCH  11  17
HETATM   17  O4  UNL     1      -5.541 -25.087 101.380  1.00  0.00    -0.363 OA
HETATM   18  C11 UNL     1      -4.873 -25.936 102.260  1.00  0.00     0.204 C
ENDBRANCH  11  17
BRANCH  13  19
HETATM   19  O6  UNL     1      -5.067 -23.116  97.392  1.00  0.00    -0.363 OA
ATOM     20  H6  UNL     1      -4.730 -22.302  97.036  1.00  0.00     0.213 HD
ENDBRANCH  13  19
BRANCH  13  21
HETATM   21  C13 UNL     1      -4.253 -21.887  99.212  1.00  0.00     0.146 C
BRANCH  21  22
HETATM   22  S1  UNL     1      -4.324 -20.495  98.127  1.00  0.00    -0.155 SA
BRANCH  22  23
HETATM   23  C14 UNL     1      -2.881 -19.516  97.869  1.00  0.00    -0.003 C
HETATM   24  C15 UNL     1      -2.200 -19.785  96.530  1.00  0.00     0.026 C
HETATM   25  C16 UNL     1      -1.851 -19.470  98.945  1.00  0.00     0.026 C
HETATM   26  C17 UNL     1      -3.360 -18.032  97.718  1.00  0.00     0.026 C
ENDBRANCH  22  23
ENDBRANCH  21  22
ENDBRANCH  13  21
BRANCH  14  27
HETATM   27  O7  UNL     1      -2.038 -22.977  98.295  1.00  0.00    -0.387 OA
ATOM     28  H7  UNL     1      -1.952 -22.686  97.395  1.00  0.00     0.210 HD
ENDBRANCH  14  27
ENDBRANCH   8   9
ENDBRANCH   4   8
BRANCH   5  29
HETATM   29  N6  UNL     1       0.794 -23.849  99.050  1.00  0.00    -0.071 N
ATOM     30  H63 UNL     1       1.628 -23.589  98.522  1.00  0.00     0.274 HD
ATOM     31  H62 UNL     1       0.112 -23.237  98.601  1.00  0.00     0.274 HD
ATOM     32  H61 UNL     1       0.901 -23.610 100.035  1.00  0.00     0.274 HD
ENDBRANCH   5  29
BRANCH   1  33
HETATM   33  N4  UNL     1       1.085 -27.423  95.583  1.00  0.00    -0.345 N
ATOM     34  H4  UNL     1       2.064 -27.135  95.604  1.00  0.00     0.163 HD
BRANCH  33  35
HETATM   35  C5  UNL     1       0.585 -27.851  94.499  1.00  0.00     0.191 A
HETATM   36  C4  UNL     1       1.111 -27.641  93.246  1.00  0.00     0.107 A
HETATM   37  N2  UNL     1       0.315 -28.239  92.351  1.00  0.00    -0.276 N
HETATM   38  N3  UNL     1      -0.667 -28.796  93.053  1.00  0.00     0.029 NA
ATOM     39  H2  UNL     1       0.437 -28.263  91.338  1.00  0.00     0.184 HD
HETATM   40  O1  UNL     1      -0.500 -28.561  94.328  1.00  0.00    -0.204 OA
BRANCH  36  41
HETATM   41  C3  UNL     1       2.345 -26.884  92.966  1.00  0.00     0.238 C
BRANCH  41  42
HETATM   42  C2  UNL     1       2.425 -26.626  91.469  1.00  0.00     0.035 C
HETATM   43  C1  UNL     1       3.764 -27.057  90.906  1.00  0.00     0.007 C
ENDBRANCH  41  42
BRANCH  41  44
HETATM   44  N1  UNL     1       3.470 -27.784  93.264  1.00  0.00    -0.070 N
ATOM     45  H13 UNL     1       3.229 -28.774  93.219  1.00  0.00     0.275 HD
ATOM     46  H12 UNL     1       4.186 -27.802  92.538  1.00  0.00     0.275 HD
ATOM     47  H11 UNL     1       3.817 -27.487  94.176  1.00  0.00     0.275 HD
ENDBRANCH  41  44
ENDBRANCH  36  41
ENDBRANCH  33  35
ENDBRANCH   1  33
BRANCH   7  48
HETATM   48  N7  UNL     1       0.728 -27.812  99.181  1.00  0.00    -0.071 N
ATOM     49  H73 UNL     1       0.153 -27.095  99.625  1.00  0.00     0.274 HD
ATOM     50  H72 UNL     1       0.006 -28.513  99.014  1.00  0.00     0.274 HD
ATOM     51  H71 UNL     1       1.445 -28.160  99.817  1.00  0.00     0.274 HD
ENDBRANCH   7  48
TORSDOF 16
ENDMDL