MODEL 5
REMARK VINA RESULT: -7.079435380      1.910      2.382
REMARK  15 active torsions:
REMARK  status: ('A' for Active; 'I' for Inactive)
REMARK    1  A    between atoms: O1_2  and  C2_3
REMARK    2  A    between atoms: C4_5  and  O2_6
REMARK    3  A    between atoms: C7_11  and  C8_12
REMARK    4  A    between atoms: C13_21  and  C14_22
REMARK       I    between atoms: C14_22  and  N3_24
REMARK    5  A    between atoms: N3_24  and  C15_26
REMARK    6  A    between atoms: C15_26  and  C16_27
REMARK    7  A    between atoms: C15_26  and  C18_33
REMARK    8  A    between atoms: C16_27  and  O6_28
REMARK    9  A    between atoms: C16_27  and  C17_30
REMARK   10  A    between atoms: C17_30  and  O7_31
REMARK   11  A    between atoms: C18_33  and  O8_34
REMARK   12  A    between atoms: C18_33  and  C19_36
REMARK   13  A    between atoms: C19_36  and  O9_38
REMARK   14  A    between atoms: C21_40  and  O10_41
REMARK   15  A    between atoms: C21_40  and  O11_43
ROOT
HETATM    1  C8  UNL     1       1.417 -26.066  93.714  1.00  0.00     0.084 A
HETATM    2  C9  UNL     1       0.175 -25.525  93.931  1.00  0.00     0.066 A
HETATM    3  C10 UNL     1      -0.305 -25.968  95.142  1.00  0.00     0.095 A
HETATM    4  N1  UNL     1       0.655 -26.765  95.634  1.00  0.00    -0.288 N
HETATM    5  N2  UNL     1       1.679 -26.827  94.791  1.00  0.00    -0.295 N
ATOM      6  H2  UNL     1       2.530 -27.369  94.938  1.00  0.00     0.187 HD
HETATM    7  C11 UNL     1       0.701 -27.504  96.898  1.00  0.00     0.175 C
HETATM    8  C12 UNL     1      -0.258 -26.921  97.900  1.00  0.00     0.191 C
HETATM    9  O4  UNL     1      -0.305 -25.563  97.775  1.00  0.00    -0.369 OA
HETATM   10  C13 UNL     1      -1.399 -25.057  97.120  1.00  0.00     0.281 C
HETATM   11  C21 UNL     1      -1.613 -25.618  95.730  1.00  0.00     0.242 C
ENDROOT
BRANCH  10  12
HETATM   12  C14 UNL     1      -2.599 -25.030  97.930  1.00  0.00     0.253 C
HETATM   13  O5  UNL     1      -3.254 -26.116  98.124  1.00  0.00    -0.270 OA
HETATM   14  N3  UNL     1      -3.112 -23.873  98.529  1.00  0.00    -0.349 N
ATOM     15  H3  UNL     1      -2.626 -22.985  98.400  1.00  0.00     0.163 HD
BRANCH  14  16
HETATM   16  C15 UNL     1      -4.361 -23.914  99.356  1.00  0.00     0.146 C
BRANCH  16  17
HETATM   17  C16 UNL     1      -5.399 -23.146  98.620  1.00  0.00     0.167 C
BRANCH  17  18
HETATM   18  O6  UNL     1      -4.594 -22.092  97.989  1.00  0.00    -0.391 OA
ATOM     19  H6  UNL     1      -4.745 -22.264  97.067  1.00  0.00     0.210 HD
ENDBRANCH  17  18
BRANCH  17  20
HETATM   20  C17 UNL     1      -6.016 -23.785  97.407  1.00  0.00     0.197 C
BRANCH  20  21
HETATM   21  O7  UNL     1      -7.325 -24.101  97.439  1.00  0.00    -0.398 OA
ATOM     22  H7  UNL     1      -7.816 -23.927  98.234  1.00  0.00     0.209 HD
ENDBRANCH  20  21
ENDBRANCH  17  20
ENDBRANCH  16  17
BRANCH  16  23
HETATM   23  C18 UNL     1      -4.074 -23.687 100.766  1.00  0.00     0.171 C
BRANCH  23  24
HETATM   24  O8  UNL     1      -4.041 -22.335 101.130  1.00  0.00    -0.391 OA
ATOM     25  H8  UNL     1      -3.347 -22.115 101.739  1.00  0.00     0.210 HD
ENDBRANCH  23  24
BRANCH  23  26
HETATM   26  C19 UNL     1      -2.925 -24.312 101.453  1.00  0.00     0.145 C
HETATM   27  C20 UNL     1      -1.731 -23.347 101.530  1.00  0.00     0.042 C
BRANCH  26  28
HETATM   28  O9  UNL     1      -2.542 -25.570 101.123  1.00  0.00    -0.393 OA
ATOM     29  H9  UNL     1      -1.689 -25.719 100.732  1.00  0.00     0.210 HD
ENDBRANCH  26  28
ENDBRANCH  23  26
ENDBRANCH  16  23
ENDBRANCH  14  16
ENDBRANCH  10  12
BRANCH  11  30
HETATM   30  O10 UNL     1      -2.440 -26.705  95.682  1.00  0.00    -0.358 OA
ATOM     31  H10 UNL     1      -3.180 -26.515  95.117  1.00  0.00     0.213 HD
ENDBRANCH  11  30
BRANCH  11  32
HETATM   32  O11 UNL     1      -2.184 -24.619  94.912  1.00  0.00    -0.358 OA
ATOM     33  H11 UNL     1      -1.850 -23.783  95.217  1.00  0.00     0.213 HD
ENDBRANCH  11  32
BRANCH   1  34
HETATM   34  C7  UNL     1       2.317 -25.871  92.578  1.00  0.00     0.105 A
HETATM   35  O3  UNL     1       3.269 -26.653  92.185  1.00  0.00    -0.307 OA
HETATM   36  C6  UNL     1       3.903 -26.200  91.126  1.00  0.00     0.091 A
HETATM   37  C5  UNL     1       4.957 -26.676  90.367  1.00  0.00     0.074 A
HETATM   38  C23 UNL     1       3.299 -25.005  90.805  1.00  0.00     0.034 A
HETATM   39  C4  UNL     1       5.430 -25.979  89.282  1.00  0.00     0.071 A
HETATM   40  C3  UNL     1       4.829 -24.781  88.956  1.00  0.00     0.074 A
HETATM   41  C2  UNL     1       3.778 -24.307  89.714  1.00  0.00     0.084 A
HETATM   42  C22 UNL     1       2.292 -24.779  91.713  1.00  0.00     0.057 A
BRANCH  39  43
HETATM   43  O2  UNL     1       6.490 -26.418  88.489  1.00  0.00    -0.361 OA
ATOM     44  H2  UNL     1       7.199 -26.889  88.911  1.00  0.00     0.217 HD
ENDBRANCH  39  43
BRANCH  41  45
HETATM   45  O1  UNL     1       3.141 -23.103  89.425  1.00  0.00    -0.355 OA
HETATM   46  C1  UNL     1       3.378 -22.497  88.170  1.00  0.00     0.210 C
ENDBRANCH  41  45
ENDBRANCH   1  34
TORSDOF 15
ENDMDL