MODEL 4
REMARK VINA RESULT: -5.561546851      2.631      8.799
REMARK  16 active torsions:
REMARK  status: ('A' for Active; 'I' for Inactive)
REMARK    1  A    between atoms: C2_2  and  C3_3
REMARK    2  A    between atoms: C3_3  and  C4_4
REMARK    3  A    between atoms: C5_5  and  C6_6
REMARK    4  A    between atoms: C6_6  and  N1_7
REMARK    5  A    between atoms: C9_13  and  C10_14
REMARK    6  A    between atoms: C10_14  and  N2_15
REMARK    7  A    between atoms: C10_14  and  C12_22
REMARK    8  A    between atoms: N2_15  and  N3_17
REMARK    9  A    between atoms: N3_17  and  C11_19
REMARK   10  A    between atoms: C13_27  and  N7_28
REMARK   11  A    between atoms: N7_28  and  C14_30
REMARK   12  A    between atoms: C14_30  and  O1_31
REMARK   13  A    between atoms: C14_30  and  C15_33
REMARK   14  A    between atoms: C17_43  and  N12_44
REMARK   15  A    between atoms: N12_44  and  N13_46
REMARK   16  A    between atoms: N14_49  and  O2_50
ROOT
HETATM    1  C12 UNL     1       0.211 -25.983  95.804  1.00  0.00     0.125 A
HETATM    2  N5  UNL     1       1.011 -25.181  95.117  1.00  0.00    -0.281 N
ATOM      3  H5  UNL     1       0.602 -24.370  94.653  1.00  0.00     0.188 HD
HETATM    4  N6  UNL     1       2.306 -25.376  95.002  1.00  0.00    -0.132 N
ATOM      5  H6  UNL     1       2.852 -24.711  94.456  1.00  0.00     0.205 HD
HETATM    6  C13 UNL     1       2.944 -26.413  95.573  1.00  0.00     0.696 A
HETATM    7  N11 UNL     1       2.183 -27.263  96.283  1.00  0.00    -0.172 N
ATOM      8  H11 UNL     1       2.618 -28.067  96.736  1.00  0.00     0.186 HD
HETATM    9  C17 UNL     1       0.859 -27.073  96.407  1.00  0.00     0.166 A
ENDROOT
BRANCH   1  10
HETATM   10  C10 UNL     1      -1.264 -25.859  95.919  1.00  0.00     0.109 C
BRANCH  10  11
HETATM   11  C9  UNL     1      -1.949 -25.031  96.887  1.00  0.00     0.093 A
HETATM   12  C8  UNL     1      -1.917 -23.644  96.704  1.00  0.00     0.035 A
HETATM   13  C7  UNL     1      -2.596 -22.745  97.497  1.00  0.00     0.013 A
HETATM   14  C5  UNL     1      -3.362 -23.225  98.550  1.00  0.00    -0.008 A
HETATM   15  C4  UNL     1      -3.396 -24.581  98.730  1.00  0.00     0.049 A
HETATM   16  N14 UNL     1      -2.702 -25.445  97.911  1.00  0.00    -0.226 N
BRANCH  14  17
HETATM   17  C6  UNL     1      -4.074 -22.325  99.452  1.00  0.00     0.270 C
BRANCH  17  18
HETATM   18  N1  UNL     1      -3.105 -21.639 100.324  1.00  0.00    -0.075 N
ATOM     19  H13 UNL     1      -3.548 -20.935 100.914  1.00  0.00     0.274 HD
ATOM     20  H12 UNL     1      -2.753 -22.247 101.064  1.00  0.00     0.274 HD
ATOM     21  H11 UNL     1      -2.354 -21.248  99.755  1.00  0.00     0.274 HD
ENDBRANCH  17  18
ENDBRANCH  14  17
BRANCH  15  22
HETATM   22  C3  UNL     1      -4.227 -25.168  99.806  1.00  0.00     0.060 C
BRANCH  22  23
HETATM   23  C2  UNL     1      -3.601 -25.162 101.159  1.00  0.00     0.002 C
HETATM   24  C1  UNL     1      -4.620 -25.716 102.139  1.00  0.00     0.005 C
ENDBRANCH  22  23
ENDBRANCH  15  22
BRANCH  16  25
HETATM   25  O2  UNL     1      -2.881 -26.786  98.164  1.00  0.00    -0.282 OA
ATOM     26  H2  UNL     1      -3.395 -27.264  97.523  1.00  0.00     0.245 HD
ENDBRANCH  16  25
ENDBRANCH  10  11
BRANCH  10  27
HETATM   27  N2  UNL     1      -1.890 -26.509  95.016  1.00  0.00    -0.294 N
ATOM     28  H2  UNL     1      -1.765 -27.511  95.169  1.00  0.00     0.187 HD
BRANCH  27  29
HETATM   29  N3  UNL     1      -2.643 -26.315  93.951  1.00  0.00    -0.278 N
ATOM     30  H3  UNL     1      -3.612 -26.028  94.085  1.00  0.00     0.189 HD
BRANCH  29  31
HETATM   31  C11 UNL     1      -2.156 -26.491  92.616  1.00  0.00     0.199 C
HETATM   32  N4  UNL     1      -2.837 -25.972  91.476  1.00  0.00    -0.068 NA
HETATM   33  S1  UNL     1      -0.772 -27.315  92.398  1.00  0.00    -0.043 SA
ENDBRANCH  29  31
ENDBRANCH  27  29
ENDBRANCH  10  27
ENDBRANCH   1  10
BRANCH   9  34
HETATM   34  N12 UNL     1       0.191 -27.923  97.102  1.00  0.00    -0.290 N
ATOM     35  H12 UNL     1      -0.215 -28.731  96.630  1.00  0.00     0.188 HD
BRANCH  34  36
HETATM   36  N13 UNL     1      -0.000 -27.782  98.474  1.00  0.00    -0.344 N
ATOM     37 2H13 UNL     1      -0.777 -27.201  98.788  1.00  0.00     0.176 HD
ATOM     38 1H13 UNL     1       0.603 -28.235  99.161  1.00  0.00     0.176 HD
ENDBRANCH  34  36
ENDBRANCH   9  34
BRANCH   6  39
HETATM   39  N7  UNL     1       4.216 -26.589  95.447  1.00  0.00    -0.192 N
ATOM     40  H7  UNL     1       4.871 -26.026  95.989  1.00  0.00     0.180 HD
BRANCH  39  41
HETATM   41  C14 UNL     1       4.692 -27.584  94.541  1.00  0.00     0.294 C
BRANCH  41  42
HETATM   42  O1  UNL     1       6.069 -27.780  94.629  1.00  0.00    -0.370 OA
ATOM     43  H1  UNL     1       6.511 -27.677  93.795  1.00  0.00     0.212 HD
ENDBRANCH  41  42
BRANCH  41  44
HETATM   44  C15 UNL     1       4.449 -27.123  93.121  1.00  0.00     0.119 A
HETATM   45  N8  UNL     1       3.403 -27.386  92.347  1.00  0.00    -0.323 N
HETATM   46  C16 UNL     1       3.374 -26.896  91.146  1.00  0.00     0.199 A
ATOM     47  H8  UNL     1       2.635 -27.962  92.690  1.00  0.00     0.169 HD
HETATM   48  N9  UNL     1       2.273 -27.133  90.237  1.00  0.00    -0.063 NA
HETATM   49  N10 UNL     1       4.410 -26.147  90.751  1.00  0.00    -0.299 N
HETATM   50  S2  UNL     1       5.413 -26.154  92.104  1.00  0.00     0.006 SA
ATOM     51  H10 UNL     1       4.556 -25.686  89.853  1.00  0.00     0.177 HD
ENDBRANCH  41  44
ENDBRANCH  39  41
ENDBRANCH   6  39
TORSDOF 16
ENDMDL