MODEL 4
REMARK VINA RESULT: -6.584962992      1.770      6.746
REMARK  13 active torsions:
REMARK  status: ('A' for Active; 'I' for Inactive)
REMARK    1  A    between atoms: C2_2  and  O1_3
REMARK    2  A    between atoms: C2_2  and  C3_5
REMARK    3  A    between atoms: C3_5  and  O2_6
REMARK    4  A    between atoms: C3_5  and  C4_8
REMARK    5  A    between atoms: C4_8  and  C5_10
REMARK    6  A    between atoms: C5_10  and  C8_13
REMARK    7  A    between atoms: C8_13  and  C9_14
REMARK    8  A    between atoms: C8_13  and  N9_37
REMARK    9  A    between atoms: C9_14  and  C10_15
REMARK   10  A    between atoms: C12_21  and  N3_22
REMARK   11  A    between atoms: C14_26  and  N4_27
REMARK   12  A    between atoms: C19_44  and  N12_45
REMARK   13  A    between atoms: C20_50  and  N14_51
ROOT
HETATM    1  C8  UNL     1      -2.164 -24.465  99.383  1.00  0.00     0.113 C
ENDROOT
BRANCH   1   2
HETATM    2  C5  UNL     1      -2.369 -24.404 100.844  1.00  0.00     0.037 C
HETATM    3  C6  UNL     1      -2.469 -22.970 101.390  1.00  0.00     0.025 C
HETATM    4  C7  UNL     1      -3.687 -25.027 101.326  1.00  0.00     0.025 C
BRANCH   2   5
HETATM    5  C4  UNL     1      -1.286 -25.031 101.641  1.00  0.00     0.167 C
HETATM    6  O3  UNL     1      -1.631 -25.791 102.533  1.00  0.00    -0.294 OA
BRANCH   5   7
HETATM    7  C3  UNL     1       0.167 -24.847 101.469  1.00  0.00     0.216 C
BRANCH   7   8
HETATM    8  C2  UNL     1       0.912 -26.186 101.591  1.00  0.00     0.150 C
HETATM    9  C1  UNL     1       2.192 -26.022 100.784  1.00  0.00     0.042 C
BRANCH   8  10
HETATM   10  O1  UNL     1       0.129 -27.154 100.920  1.00  0.00    -0.393 OA
ATOM     11  H1  UNL     1       0.171 -27.947 101.440  1.00  0.00     0.210 HD
ENDBRANCH   8  10
ENDBRANCH   7   8
BRANCH   7  12
HETATM   12  O2  UNL     1       0.448 -24.495 100.104  1.00  0.00    -0.385 OA
ATOM     13  H2  UNL     1      -0.280 -24.908  99.654  1.00  0.00     0.210 HD
ENDBRANCH   7  12
ENDBRANCH   5   7
ENDBRANCH   2   5
ENDBRANCH   1   2
BRANCH   1  14
HETATM   14  C9  UNL     1      -2.533 -25.837  98.785  1.00  0.00     0.105 C
BRANCH  14  15
HETATM   15  C10 UNL     1      -1.570 -26.242  97.725  1.00  0.00     0.115 A
HETATM   16  N1  UNL     1      -0.399 -26.843  97.993  1.00  0.00    -0.177 N
HETATM   17  C11 UNL     1       0.211 -27.074  96.826  1.00  0.00     0.708 A
ATOM     18  H1  UNL     1      -0.041 -27.079  98.918  1.00  0.00     0.185 HD
HETATM   19  N2  UNL     1       1.405 -27.650  96.490  1.00  0.00    -0.175 N
HETATM   20  N7  UNL     1      -0.572 -26.623  95.838  1.00  0.00    -0.066 N
HETATM   21  C12 UNL     1       1.815 -27.776  95.219  1.00  0.00     0.118 A
ATOM     22  H2  UNL     1       2.008 -27.998  97.235  1.00  0.00     0.186 HD
HETATM   23  C13 UNL     1       0.965 -27.290  94.226  1.00  0.00     0.101 A
HETATM   24  C14 UNL     1      -0.243 -26.707  94.535  1.00  0.00     0.171 A
HETATM   25  N8  UNL     1      -1.639 -26.125  96.393  1.00  0.00    -0.266 N
ATOM     26  H8  UNL     1      -2.417 -25.704  95.885  1.00  0.00     0.189 HD
BRANCH  21  27
HETATM   27  N3  UNL     1       2.939 -28.321  94.950  1.00  0.00    -0.385 N
ATOM     28  H32 UNL     1       3.769 -27.774  94.724  1.00  0.00     0.157 HD
ATOM     29  H31 UNL     1       3.037 -29.335  94.953  1.00  0.00     0.157 HD
ENDBRANCH  21  27
BRANCH  24  30
HETATM   30  N4  UNL     1      -1.097 -26.216  93.512  1.00  0.00    -0.233 N
HETATM   31  C15 UNL     1      -0.889 -25.119  92.766  1.00  0.00     0.138 A
HETATM   32  C16 UNL     1      -1.918 -24.939  91.870  1.00  0.00     0.128 A
HETATM   33  N5  UNL     1      -2.756 -25.982  92.114  1.00  0.00    -0.296 N
HETATM   34  N6  UNL     1      -2.242 -26.718  93.091  1.00  0.00    -0.235 N
ATOM     35  H5  UNL     1      -3.634 -26.167  91.627  1.00  0.00     0.187 HD
ATOM     36  H6  UNL     1      -2.675 -27.562  93.467  1.00  0.00     0.209 HD
ENDBRANCH  24  30
ENDBRANCH  14  15
ENDBRANCH   1  14
BRANCH   1  37
HETATM   37  N9  UNL     1      -2.917 -23.504  98.668  1.00  0.00    -0.331 N
HETATM   38  C17 UNL     1      -4.227 -23.641  98.381  1.00  0.00     0.185 A
HETATM   39  N10 UNL     1      -4.694 -22.611  97.705  1.00  0.00    -0.336 N
HETATM   40  C18 UNL     1      -3.688 -21.760  97.527  1.00  0.00     0.152 A
ATOM     41  H10 UNL     1      -5.653 -22.490  97.378  1.00  0.00     0.168 HD
HETATM   42  N11 UNL     1      -3.617 -20.564  96.902  1.00  0.00    -0.174 N
HETATM   43  C21 UNL     1      -2.579 -22.316  98.125  1.00  0.00     0.125 A
HETATM   44  C19 UNL     1      -2.444 -19.917  96.869  1.00  0.00     0.679 A
ATOM     45  H11 UNL     1      -4.444 -20.161  96.461  1.00  0.00     0.186 HD
HETATM   46  N13 UNL     1      -1.343 -20.431  97.442  1.00  0.00    -0.175 N
HETATM   47  C20 UNL     1      -1.410 -21.643  98.077  1.00  0.00     0.145 A
ATOM     48  H13 UNL     1      -0.461 -19.922  97.404  1.00  0.00     0.186 HD
BRANCH  44  49
HETATM   49  N12 UNL     1      -2.432 -18.772  96.257  1.00  0.00    -0.234 N
ATOM     50 2H12 UNL     1      -1.575 -18.234  96.132  1.00  0.00     0.174 HD
ATOM     51 1H12 UNL     1      -3.327 -18.435  95.903  1.00  0.00     0.174 HD
ENDBRANCH  44  49
BRANCH  47  52
HETATM   52  N14 UNL     1      -0.342 -22.084  98.585  1.00  0.00    -0.383 N
ATOM     53 2H14 UNL     1       0.483 -21.504  98.733  1.00  0.00     0.157 HD
ATOM     54 1H14 UNL     1      -0.332 -23.065  98.864  1.00  0.00     0.157 HD
ENDBRANCH  47  52
ENDBRANCH   1  37
TORSDOF 13
ENDMDL