MODEL 4
REMARK VINA RESULT: -6.488438918      1.780      2.166
REMARK  15 active torsions:
REMARK  status: ('A' for Active; 'I' for Inactive)
REMARK    1  A    between atoms: C2_2  and  N1_3
REMARK    2  A    between atoms: C2_2  and  N6_25
REMARK    3  A    between atoms: N1_3  and  N2_5
REMARK       I    between atoms: N2_5  and  C3_7
REMARK    4  A    between atoms: C3_7  and  O2_9
REMARK    5  A    between atoms: O2_9  and  C4_10
REMARK    6  A    between atoms: C4_10  and  O3_11
REMARK    7  A    between atoms: O3_11  and  C5_12
REMARK    8  A    between atoms: C5_12  and  O4_13
REMARK    9  A    between atoms: C5_12  and  C6_15
REMARK   10  A    between atoms: C7_19  and  N4_20
REMARK   11  A    between atoms: N6_25  and  C8_27
REMARK   12  A    between atoms: C9_32  and  C10_33
REMARK   13  A    between atoms: C10_33  and  C11_34
REMARK   14  A    between atoms: N10_41  and  N11_42
REMARK   15  A    between atoms: N11_42  and  C16_44
ROOT
HETATM    1  C1  UNL     1       0.895 -27.425  98.559  1.00  0.00     0.090 C
HETATM    2  C2  UNL     1       1.672 -26.662  97.521  1.00  0.00     0.093 C
ENDROOT
BRANCH   2   3
HETATM    3  N1  UNL     1       1.899 -27.187  96.366  1.00  0.00    -0.285 N
ATOM      4  H1  UNL     1       2.856 -27.190  96.012  1.00  0.00     0.188 HD
BRANCH   3   5
HETATM    5  N2  UNL     1       0.897 -27.752  95.578  1.00  0.00    -0.244 N
HETATM    6  C3  UNL     1       1.132 -27.860  94.163  1.00  0.00     0.381 C
HETATM    7  O1  UNL     1       2.206 -27.459  93.648  1.00  0.00    -0.237 OA
ATOM      8  H2  UNL     1       0.024 -28.078  95.992  1.00  0.00     0.192 HD
BRANCH   6   9
HETATM    9  O2  UNL     1       0.187 -28.410  93.312  1.00  0.00    -0.277 OA
BRANCH   9  10
HETATM   10  C4  UNL     1      -0.221 -27.674  92.149  1.00  0.00     0.353 C
BRANCH  10  11
HETATM   11  O3  UNL     1      -1.581 -27.491  92.129  1.00  0.00    -0.330 OA
BRANCH  11  12
HETATM   12  C5  UNL     1      -1.952 -26.158  92.284  1.00  0.00     0.330 C
BRANCH  12  13
HETATM   13  O4  UNL     1      -3.220 -26.013  91.729  1.00  0.00    -0.365 OA
ATOM     14  H4  UNL     1      -3.796 -26.622  92.176  1.00  0.00     0.213 HD
ENDBRANCH  12  13
BRANCH  12  15
HETATM   15  C6  UNL     1      -1.999 -25.771  93.719  1.00  0.00     0.161 A
HETATM   16  N3  UNL     1      -1.867 -24.531  94.251  1.00  0.00    -0.240 N
HETATM   17  O5  UNL     1      -1.963 -24.587  95.544  1.00  0.00    -0.200 OA
ATOM     18  H3  UNL     1      -1.715 -23.678  93.713  1.00  0.00     0.196 HD
HETATM   19  C7  UNL     1      -2.156 -25.833  95.915  1.00  0.00     0.242 A
HETATM   20  N5  UNL     1      -2.180 -26.574  94.794  1.00  0.00    -0.305 N
ATOM     21  H5  UNL     1      -2.315 -27.584  94.758  1.00  0.00     0.171 HD
BRANCH  19  22
HETATM   22  N4  UNL     1      -2.288 -26.185  97.148  1.00  0.00    -0.364 N
ATOM     23  H42 UNL     1      -2.378 -25.616  97.990  1.00  0.00     0.159 HD
ATOM     24  H41 UNL     1      -2.319 -27.160  97.446  1.00  0.00     0.159 HD
ENDBRANCH  19  22
ENDBRANCH  12  15
ENDBRANCH  11  12
ENDBRANCH  10  11
ENDBRANCH   9  10
ENDBRANCH   6   9
ENDBRANCH   3   5
ENDBRANCH   2   3
BRANCH   2  25
HETATM   25  N6  UNL     1       2.172 -25.358  97.779  1.00  0.00    -0.324 N
ATOM     26  H6  UNL     1       3.173 -25.201  97.890  1.00  0.00     0.169 HD
BRANCH  25  27
HETATM   27  C8  UNL     1       1.337 -24.370  97.872  1.00  0.00     0.166 A
HETATM   28  N7  UNL     1       0.636 -23.814  96.877  1.00  0.00    -0.279 N
HETATM   29  N8  UNL     1      -0.140 -22.846  97.150  1.00  0.00    -0.296 N
ATOM     30  H7  UNL     1       0.724 -24.159  95.921  1.00  0.00     0.189 HD
HETATM   31  C9  UNL     1      -0.265 -22.390  98.376  1.00  0.00     0.075 A
ATOM     32  H8  UNL     1      -0.679 -22.413  96.400  1.00  0.00     0.187 HD
HETATM   33  S2  UNL     1       0.830 -23.443  99.213  1.00  0.00    -0.037 SA
BRANCH  31  34
HETATM   34  C10 UNL     1      -1.099 -21.276  98.956  1.00  0.00     0.126 C
BRANCH  34  35
HETATM   35  C11 UNL     1      -2.395 -21.870  99.361  1.00  0.00     0.044 A
HETATM   36  C12 UNL     1      -2.359 -22.467 100.619  1.00  0.00     0.029 A
HETATM   37  C13 UNL     1      -3.489 -23.057 101.108  1.00  0.00     0.034 A
HETATM   38  C14 UNL     1      -4.615 -23.040 100.348  1.00  0.00     0.116 A
HETATM   39  N9  UNL     1      -5.798 -23.644 100.830  1.00  0.00    -0.097 NA
HETATM   40  C15 UNL     1      -4.589 -22.427  99.097  1.00  0.00     0.290 A
HETATM   41  O6  UNL     1      -5.669 -22.459  98.469  1.00  0.00    -0.264 OA
HETATM   42  N10 UNL     1      -3.515 -21.843  98.587  1.00  0.00    -0.221 N
BRANCH  42  43
HETATM   43  N11 UNL     1      -3.426 -21.209  97.366  1.00  0.00    -0.269 N
ATOM     44  H11 UNL     1      -3.190 -21.858  96.615  1.00  0.00     0.189 HD
BRANCH  43  45
HETATM   45  C16 UNL     1      -3.576 -19.920  96.903  1.00  0.00     0.200 C
HETATM   46  N12 UNL     1      -3.420 -19.696  95.448  1.00  0.00    -0.068 NA
HETATM   47  S1  UNL     1      -3.913 -18.576  97.705  1.00  0.00    -0.043 SA
ENDBRANCH  43  45
ENDBRANCH  42  43
ENDBRANCH  34  35
ENDBRANCH  31  34
ENDBRANCH  25  27
ENDBRANCH   2  25
TORSDOF 15
ENDMDL