MODEL 1
REMARK VINA RESULT: -6.960320839      0.000      0.000
REMARK  11 active torsions:
REMARK  status: ('A' for Active; 'I' for Inactive)
REMARK       I    between atoms: C2_2  and  N1_4
REMARK    1  A    between atoms: N1_4  and  N2_6
REMARK    2  A    between atoms: C3_7  and  S1_8
REMARK    3  A    between atoms: S1_8  and  C4_9
REMARK    4  A    between atoms: C4_9  and  C5_10
REMARK    5  A    between atoms: C11_19  and  C12_20
REMARK    6  A    between atoms: C13_23  and  C14_24
REMARK       I    between atoms: C14_24  and  N6_26
REMARK    7  A    between atoms: N6_26  and  N7_28
REMARK       I    between atoms: N7_28  and  C15_30
REMARK    8  A    between atoms: C15_30  and  C16_32
REMARK    9  A    between atoms: C16_32  and  N8_33
REMARK   10  A    between atoms: C16_32  and  C17_37
REMARK   11  A    between atoms: C17_37  and  N9_38
ROOT
HETATM    1  C12 UNL     1      -3.003 -22.302  98.065  1.00  0.00     0.201 A
HETATM    2  N5  UNL     1      -2.431 -23.100  97.162  1.00  0.00    -0.313 N
ATOM      3  H5  UNL     1      -1.623 -22.857  96.588  1.00  0.00     0.170 HD
HETATM    4  C13 UNL     1      -3.091 -24.287  97.125  1.00  0.00     0.198 A
HETATM    5  N10 UNL     1      -4.066 -24.168  98.030  1.00  0.00    -0.238 N
ATOM      6  H10 UNL     1      -4.755 -24.885  98.258  1.00  0.00     0.197 HD
HETATM    7  O4  UNL     1      -3.993 -22.986  98.572  1.00  0.00    -0.215 OA
ENDROOT
BRANCH   1   8
HETATM    8  C11 UNL     1      -2.656 -20.937  98.462  1.00  0.00     0.118 A
HETATM    9  N4  UNL     1      -3.213 -19.867  97.885  1.00  0.00    -0.330 N
HETATM   10  C3  UNL     1      -2.901 -18.619  98.244  1.00  0.00     0.170 A
ATOM     11  H4  UNL     1      -3.899 -20.009  97.143  1.00  0.00     0.168 HD
HETATM   12  N2  UNL     1      -1.977 -18.354  99.241  1.00  0.00    -0.193 N
HETATM   13  C19 UNL     1      -1.393 -19.391  99.850  1.00  0.00     0.295 A
HETATM   14  C18 UNL     1      -1.742 -20.687  99.450  1.00  0.00     0.147 A
HETATM   15  O5  UNL     1      -0.548 -19.268 100.760  1.00  0.00    -0.264 OA
HETATM   16  N11 UNL     1      -1.127 -21.803 100.089  1.00  0.00    -0.094 NA
BRANCH  10  17
HETATM   17  S1  UNL     1      -3.695 -17.212  97.436  1.00  0.00    -0.087 SA
BRANCH  17  18
HETATM   18  C4  UNL     1      -4.609 -17.807  95.985  1.00  0.00     0.121 C
BRANCH  18  19
HETATM   19  C5  UNL     1      -3.756 -17.897  94.792  1.00  0.00    -0.047 A
HETATM   20  C6  UNL     1      -3.407 -16.742  94.123  1.00  0.00     0.008 A
HETATM   21  C7  UNL     1      -2.614 -16.746  93.010  1.00  0.00     0.002 A
HETATM   22  C8  UNL     1      -2.132 -17.958  92.522  1.00  0.00     0.026 A
HETATM   23  C9  UNL     1      -2.460 -19.131  93.166  1.00  0.00     0.046 A
HETATM   24  N3  UNL     1      -1.983 -20.387  92.695  1.00  0.00    -0.102 NA
HETATM   25  C10 UNL     1      -3.264 -19.081  94.288  1.00  0.00     0.034 A
ENDBRANCH  18  19
ENDBRANCH  17  18
ENDBRANCH  10  17
BRANCH  12  26
HETATM   26  N1  UNL     1      -1.740 -17.029  99.520  1.00  0.00    -0.259 N
HETATM   27  C2  UNL     1      -2.160 -16.197 100.535  1.00  0.00     0.232 C
HETATM   28  C1  UNL     1      -1.688 -14.732 100.538  1.00  0.00     0.119 C
HETATM   29  O1  UNL     1      -2.888 -16.457 101.486  1.00  0.00    -0.272 OA
ATOM     30  H1  UNL     1      -1.132 -16.571  98.841  1.00  0.00     0.190 HD
ENDBRANCH  12  26
ENDBRANCH   1   8
BRANCH   4  31
HETATM   31  C14 UNL     1      -2.788 -25.435  96.286  1.00  0.00     0.305 C
HETATM   32  O2  UNL     1      -2.554 -26.534  96.846  1.00  0.00    -0.263 OA
HETATM   33  N6  UNL     1      -2.753 -25.349  94.867  1.00  0.00    -0.261 N
ATOM     34  H6  UNL     1      -2.950 -24.441  94.446  1.00  0.00     0.190 HD
BRANCH  33  35
HETATM   35  N7  UNL     1      -2.474 -26.397  94.016  1.00  0.00    -0.265 N
HETATM   36  C15 UNL     1      -2.056 -26.251  92.674  1.00  0.00     0.268 C
HETATM   37  O3  UNL     1      -1.934 -25.077  92.224  1.00  0.00    -0.269 OA
ATOM     38  H7  UNL     1      -2.576 -27.344  94.381  1.00  0.00     0.190 HD
BRANCH  36  39
HETATM   39  C16 UNL     1      -1.758 -27.368  91.775  1.00  0.00     0.301 C
BRANCH  39  40
HETATM   40  N8  UNL     1      -2.944 -27.846  91.108  1.00  0.00    -0.065 N
ATOM     41  H83 UNL     1      -3.534 -27.074  90.799  1.00  0.00     0.275 HD
ATOM     42  H82 UNL     1      -2.721 -28.251  90.198  1.00  0.00     0.275 HD
ATOM     43  H81 UNL     1      -3.465 -28.503  91.689  1.00  0.00     0.275 HD
ENDBRANCH  39  40
BRANCH  39  44
HETATM   44  C17 UNL     1      -1.131 -28.545  92.502  1.00  0.00     0.272 C
BRANCH  44  45
HETATM   45  N9  UNL     1       0.253 -28.199  92.763  1.00  0.00    -0.077 N
ATOM     46  H93 UNL     1       0.822 -29.003  93.026  1.00  0.00     0.274 HD
ATOM     47  H92 UNL     1       0.767 -27.944  91.920  1.00  0.00     0.274 HD
ATOM     48  H91 UNL     1       0.251 -27.462  93.468  1.00  0.00     0.274 HD
ENDBRANCH  44  45
ENDBRANCH  39  44
ENDBRANCH  36  39
ENDBRANCH  33  35
ENDBRANCH   4  31
TORSDOF 11
ENDMDL