MODEL 4
REMARK VINA RESULT: -6.048105050      1.775      3.949
REMARK  17 active torsions:
REMARK  status: ('A' for Active; 'I' for Inactive)
REMARK    1  A    between atoms: C3_7  and  N3_8
REMARK    2  A    between atoms: N3_8  and  C4_10
REMARK    3  A    between atoms: C4_10  and  N4_11
REMARK    4  A    between atoms: C4_10  and  C11_35
REMARK    5  A    between atoms: N4_11  and  O1_13
REMARK    6  A    between atoms: O1_13  and  C5_14
REMARK    7  A    between atoms: C5_14  and  C6_15
REMARK    8  A    between atoms: C6_15  and  N5_16
REMARK    9  A    between atoms: C6_15  and  N7_21
REMARK   10  A    between atoms: N5_16  and  N6_18
REMARK   11  A    between atoms: N7_21  and  C7_23
REMARK   12  A    between atoms: C8_28  and  S1_29
REMARK   13  A    between atoms: S1_29  and  C9_30
REMARK   14  A    between atoms: C9_30  and  C10_31
REMARK   15  A    between atoms: C14_38  and  O3_39
REMARK   16  A    between atoms: C15_41  and  O4_42
REMARK   17  A    between atoms: C17_45  and  O5_46
ROOT
HETATM    1  C4  UNL     1      -2.467 -24.731  97.036  1.00  0.00     0.137 C
ENDROOT
BRANCH   1   2
HETATM    2  N3  UNL     1      -2.608 -24.816  95.652  1.00  0.00    -0.325 N
ATOM      3  H3  UNL     1      -3.369 -25.393  95.292  1.00  0.00     0.169 HD
BRANCH   2   4
HETATM    4  C3  UNL     1      -1.857 -24.227  94.792  1.00  0.00     0.147 C
HETATM    5  N2  UNL     1      -1.604 -22.834  94.918  1.00  0.00    -0.284 N
HETATM    6  N1  UNL     1      -1.210 -22.049  93.827  1.00  0.00    -0.288 N
ATOM      7  H2  UNL     1      -1.712 -22.393  95.831  1.00  0.00     0.188 HD
HETATM    8  C2  UNL     1      -1.080 -22.638  92.672  1.00  0.00     0.089 C
ATOM      9  H1  UNL     1      -1.030 -21.051  93.933  1.00  0.00     0.188 HD
HETATM   10  C1  UNL     1      -0.665 -21.879  91.453  1.00  0.00     0.090 C
HETATM   11  N11 UNL     1      -1.324 -24.027  92.511  1.00  0.00    -0.347 N
HETATM   12  C17 UNL     1      -1.218 -24.929  93.640  1.00  0.00     0.289 C
ATOM     13  H11 UNL     1      -1.576 -24.394  91.593  1.00  0.00     0.163 HD
BRANCH  12  14
HETATM   14  O5  UNL     1       0.161 -25.008  93.938  1.00  0.00    -0.369 OA
ATOM     15  H5  UNL     1       0.247 -25.646  94.638  1.00  0.00     0.212 HD
ENDBRANCH  12  14
ENDBRANCH   2   4
ENDBRANCH   1   2
BRANCH   1  16
HETATM   16  N4  UNL     1      -1.432 -25.181  97.646  1.00  0.00    -0.249 N
ATOM     17  H4  UNL     1      -0.671 -24.530  97.839  1.00  0.00     0.196 HD
BRANCH  16  18
HETATM   18  O1  UNL     1      -1.285 -26.471  98.052  1.00  0.00    -0.271 OA
BRANCH  18  19
HETATM   19  C5  UNL     1      -0.106 -27.043  98.563  1.00  0.00     0.279 C
BRANCH  19  20
HETATM   20  C6  UNL     1       0.752 -27.395  97.376  1.00  0.00     0.124 C
BRANCH  20  21
HETATM   21  N5  UNL     1       0.292 -28.127  96.433  1.00  0.00    -0.294 N
ATOM     22  H5  UNL     1       0.570 -29.107  96.425  1.00  0.00     0.187 HD
BRANCH  21  23
HETATM   23  N6  UNL     1      -0.548 -27.699  95.426  1.00  0.00    -0.344 N
ATOM     24  H62 UNL     1      -0.628 -26.690  95.304  1.00  0.00     0.176 HD
ATOM     25  H61 UNL     1      -1.084 -28.306  94.806  1.00  0.00     0.176 HD
ENDBRANCH  21  23
ENDBRANCH  20  21
BRANCH  20  26
HETATM   26  N7  UNL     1       2.084 -26.922  97.276  1.00  0.00    -0.322 N
ATOM     27  H7  UNL     1       2.656 -26.810  98.112  1.00  0.00     0.169 HD
BRANCH  26  28
HETATM   28  C7  UNL     1       2.571 -26.631  96.094  1.00  0.00     0.167 A
HETATM   29  N8  UNL     1       2.594 -25.439  95.488  1.00  0.00    -0.278 N
HETATM   30  N9  UNL     1       3.115 -25.356  94.331  1.00  0.00    -0.286 N
ATOM     31  H8  UNL     1       2.201 -24.616  95.944  1.00  0.00     0.189 HD
HETATM   32  C8  UNL     1       3.622 -26.432  93.750  1.00  0.00     0.130 A
ATOM     33  H9  UNL     1       3.143 -24.458  93.849  1.00  0.00     0.188 HD
HETATM   34  S2  UNL     1       3.330 -27.628  94.934  1.00  0.00    -0.026 SA
BRANCH  32  35
HETATM   35  S1  UNL     1       4.409 -26.552  92.125  1.00  0.00    -0.095 SA
BRANCH  35  36
HETATM   36  C9  UNL     1       3.121 -26.945  90.927  1.00  0.00     0.180 C
BRANCH  36  37
HETATM   37  C10 UNL     1       1.834 -26.329  91.339  1.00  0.00     0.240 C
HETATM   38  N10 UNL     1       1.646 -24.915  91.365  1.00  0.00    -0.061 NA
HETATM   39  O2  UNL     1       0.879 -27.070  91.676  1.00  0.00    -0.276 OA
ENDBRANCH  36  37
ENDBRANCH  35  36
ENDBRANCH  32  35
ENDBRANCH  26  28
ENDBRANCH  20  26
ENDBRANCH  19  20
ENDBRANCH  18  19
ENDBRANCH  16  18
ENDBRANCH   1  16
BRANCH   1  40
HETATM   40  C11 UNL     1      -3.516 -24.114  97.828  1.00  0.00     0.013 A
HETATM   41  C12 UNL     1      -3.188 -23.410  98.979  1.00  0.00     0.018 A
HETATM   42  C13 UNL     1      -4.196 -22.838  99.709  1.00  0.00     0.040 A
HETATM   43  C14 UNL     1      -5.524 -22.920  99.368  1.00  0.00     0.098 A
HETATM   44  C15 UNL     1      -5.828 -23.631  98.209  1.00  0.00     0.099 A
HETATM   45  C16 UNL     1      -4.830 -24.210  97.466  1.00  0.00     0.054 A
BRANCH  43  46
HETATM   46  O3  UNL     1      -6.550 -22.345 100.099  1.00  0.00    -0.358 OA
ATOM     47  H3  UNL     1      -6.609 -21.418 100.298  1.00  0.00     0.217 HD
ENDBRANCH  43  46
BRANCH  44  48
HETATM   48  O4  UNL     1      -7.172 -23.736  97.828  1.00  0.00    -0.358 OA
ATOM     49  H4  UNL     1      -7.585 -24.592  97.865  1.00  0.00     0.217 HD
ENDBRANCH  44  48
ENDBRANCH   1  40
TORSDOF 17
ENDMDL