MODEL 2
REMARK VINA RESULT: -6.799760387      1.413      2.013
REMARK  11 active torsions:
REMARK  status: ('A' for Active; 'I' for Inactive)
REMARK    1  A    between atoms: C2_2  and  N1_3
REMARK    2  A    between atoms: C2_2  and  C4_8
REMARK       I    between atoms: C4_8  and  N4_10
REMARK    3  A    between atoms: N4_10  and  C5_12
REMARK    4  A    between atoms: C10_18  and  N5_19
REMARK    5  A    between atoms: N5_19  and  C11_21
REMARK    6  A    between atoms: C11_21  and  C12_22
REMARK    7  A    between atoms: C12_22  and  N6_23
REMARK    8  A    between atoms: N6_23  and  N7_24
REMARK    9  A    between atoms: N12_36  and  N13_38
REMARK   10  A    between atoms: C18_41  and  C19_42
REMARK   11  A    between atoms: C19_42  and  O3_43
ROOT
HETATM    1  C5  UNL     1       4.028 -26.296  92.651  1.00  0.00     0.037 A
HETATM    2  C6  UNL     1       4.543 -27.067  93.707  1.00  0.00     0.030 A
HETATM    3  C7  UNL     1       3.726 -27.374  94.767  1.00  0.00     0.021 A
HETATM    4  C8  UNL     1       2.416 -26.955  94.841  1.00  0.00     0.050 A
HETATM    5  C9  UNL     1       1.564 -27.244  95.891  1.00  0.00     0.214 A
HETATM    6  O2  UNL     1       1.986 -27.921  96.839  1.00  0.00    -0.285 OA
HETATM    7  C10 UNL     1       0.249 -26.786  95.898  1.00  0.00     0.117 A
HETATM    8  C18 UNL     1      -0.184 -26.037  94.831  1.00  0.00     0.107 A
HETATM    9  O4  UNL     1       0.657 -25.780  93.842  1.00  0.00    -0.309 OA
HETATM   10  C20 UNL     1       1.898 -26.200  93.813  1.00  0.00     0.092 A
HETATM   11  C21 UNL     1       2.742 -25.889  92.729  1.00  0.00     0.067 A
ENDROOT
BRANCH   7  12
HETATM   12  N5  UNL     1      -0.626 -27.066  96.974  1.00  0.00    -0.339 N
ATOM     13  H5  UNL     1      -1.346 -27.769  96.808  1.00  0.00     0.167 HD
BRANCH  12  14
HETATM   14  C11 UNL     1      -0.604 -26.475  98.247  1.00  0.00     0.112 C
HETATM   15  N12 UNL     1       0.184 -26.911  99.170  1.00  0.00    -0.294 N
ATOM     16  H12 UNL     1       0.796 -27.699  98.958  1.00  0.00     0.187 HD
BRANCH  14  17
HETATM   17  C12 UNL     1      -1.480 -25.329  98.579  1.00  0.00     0.213 C
BRANCH  17  18
HETATM   18  N6  UNL     1      -2.664 -25.870  99.263  1.00  0.00    -0.127 NA
BRANCH  18  19
HETATM   19  N7  UNL     1      -3.639 -24.918  99.493  1.00  0.00    -0.239 N
HETATM   20  C13 UNL     1      -4.373 -24.381  98.409  1.00  0.00     0.211 A
HETATM   21  N8  UNL     1      -4.126 -24.809  97.056  1.00  0.00    -0.062 NA
HETATM   22  N9  UNL     1      -5.291 -23.484  98.587  1.00  0.00    -0.304 N
HETATM   23  C14 UNL     1      -5.599 -23.004  99.876  1.00  0.00     0.192 A
ATOM     24  H9  UNL     1      -5.799 -23.119  97.781  1.00  0.00     0.171 HD
HETATM   25  N10 UNL     1      -6.603 -22.018 100.075  1.00  0.00    -0.063 NA
HETATM   26  N11 UNL     1      -4.960 -23.464 100.879  1.00  0.00    -0.337 N
HETATM   27  C15 UNL     1      -3.921 -24.457 100.831  1.00  0.00     0.119 A
ATOM     28  H11 UNL     1      -5.208 -23.095 101.798  1.00  0.00     0.164 HD
HETATM   29  C16 UNL     1      -4.346 -25.611 101.720  1.00  0.00     0.064 C
HETATM   30  C17 UNL     1      -2.668 -23.822 101.437  1.00  0.00     0.064 C
ENDBRANCH  18  19
ENDBRANCH  17  18
ENDBRANCH  14  17
BRANCH  15  31
HETATM   31  N13 UNL     1       0.235 -26.352 100.445  1.00  0.00    -0.344 N
ATOM     32 2H13 UNL     1       0.410 -25.350 100.513  1.00  0.00     0.176 HD
ATOM     33 1H13 UNL     1       0.106 -26.901 101.294  1.00  0.00     0.176 HD
ENDBRANCH  15  31
ENDBRANCH  12  14
ENDBRANCH   7  12
BRANCH   8  34
HETATM   34  C19 UNL     1      -1.594 -25.513  94.777  1.00  0.00     0.231 C
BRANCH  34  35
HETATM   35  O3  UNL     1      -2.487 -26.575  94.945  1.00  0.00    -0.394 OA
ATOM     36  H3  UNL     1      -2.332 -27.224  94.270  1.00  0.00     0.209 HD
ENDBRANCH  34  35
ENDBRANCH   8  34
BRANCH   1  37
HETATM   37  N4  UNL     1       4.879 -26.001  91.554  1.00  0.00    -0.325 N
HETATM   38  C4  UNL     1       4.969 -26.663  90.336  1.00  0.00     0.244 C
HETATM   39  O1  UNL     1       4.264 -27.648  90.059  1.00  0.00    -0.271 OA
ATOM     40  H4  UNL     1       5.503 -25.203  91.676  1.00  0.00     0.169 HD
BRANCH  38  41
HETATM   41  C2  UNL     1       5.930 -26.217  89.291  1.00  0.00     0.172 C
HETATM   42  C1  UNL     1       6.476 -27.359  88.473  1.00  0.00     0.042 C
BRANCH  41  43
HETATM   43  N1  UNL     1       5.384 -25.222  88.413  1.00  0.00    -0.354 N
HETATM   44  C3  UNL     1       5.294 -23.962  88.616  1.00  0.00     0.197 C
HETATM   45  N2  UNL     1       4.717 -23.125  87.623  1.00  0.00    -0.067 NA
HETATM   46  N3  UNL     1       5.755 -23.318  89.806  1.00  0.00    -0.067 NA
ATOM     47  H1  UNL     1       5.025 -25.560  87.519  1.00  0.00     0.162 HD
ENDBRANCH  41  43
ENDBRANCH  38  41
ENDBRANCH   1  37
TORSDOF 11
ENDMDL