MODEL 1
REMARK VINA RESULT: -6.781490008      0.000      0.000
REMARK  10 active torsions:
REMARK  status: ('A' for Active; 'I' for Inactive)
REMARK       I    between atoms: C2_2  and  N1_4
REMARK    1  A    between atoms: N1_4  and  C3_6
REMARK    2  A    between atoms: C4_7  and  O2_8
REMARK    3  A    between atoms: O2_8  and  N2_9
REMARK       I    between atoms: N3_12  and  C7_13
REMARK       I    between atoms: C7_13  and  N4_15
REMARK    4  A    between atoms: N4_15  and  C8_17
REMARK    5  A    between atoms: C8_17  and  C9_18
REMARK    6  A    between atoms: C9_18  and  N5_19
REMARK    7  A    between atoms: N5_19  and  C10_22
REMARK    8  A    between atoms: C10_22  and  C11_23
REMARK    9  A    between atoms: C14_32  and  N9_33
REMARK   10  A    between atoms: C18_44  and  N13_45
ROOT
HETATM    1  N2  UNL     1       0.253 -26.484  98.869  1.00  0.00    -0.241 N
HETATM    2  C5  UNL     1       0.549 -27.750  98.330  1.00  0.00     0.115 C
HETATM    3  C6  UNL     1       0.974 -27.766  96.905  1.00  0.00     0.175 C
HETATM    4  N3  UNL     1       1.842 -26.666  96.526  1.00  0.00    -0.320 N
HETATM    5  C7  UNL     1       2.890 -26.948  95.610  1.00  0.00     0.319 C
HETATM    6  O3  UNL     1       3.000 -28.123  95.185  1.00  0.00    -0.247 OA
HETATM    7  N4  UNL     1       3.827 -25.992  95.138  1.00  0.00    -0.341 N
ATOM      8  H4  UNL     1       3.731 -25.040  95.491  1.00  0.00     0.164 HD
HETATM    9  C15 UNL     1       1.587 -25.377  97.087  1.00  0.00     0.126 C
HETATM   10  C16 UNL     1       0.670 -24.620  96.118  1.00  0.00     0.038 C
HETATM   11  C17 UNL     1       0.968 -25.364  98.432  1.00  0.00     0.120 C
ENDROOT
BRANCH   7  12
HETATM   12  C8  UNL     1       4.886 -26.232  94.219  1.00  0.00     0.152 C
BRANCH  12  13
HETATM   13  C9  UNL     1       4.482 -26.086  92.788  1.00  0.00     0.252 C
BRANCH  13  14
HETATM   14  N5  UNL     1       3.921 -27.297  92.258  1.00  0.00    -0.067 N
ATOM     15  H52 UNL     1       4.649 -27.860  91.817  1.00  0.00     0.277 HD
ATOM     16  H51 UNL     1       3.649 -27.922  93.016  1.00  0.00     0.277 HD
BRANCH  14  17
HETATM   17  C10 UNL     1       2.826 -27.105  91.356  1.00  0.00     0.310 C
BRANCH  17  18
HETATM   18  C11 UNL     1       1.544 -26.848  92.089  1.00  0.00     0.139 A
HETATM   19  N6  UNL     1       0.924 -27.680  92.965  1.00  0.00    -0.175 N
HETATM   20  C12 UNL     1      -0.201 -27.105  93.423  1.00  0.00     0.721 A
ATOM     21  H6  UNL     1       1.263 -28.603  93.236  1.00  0.00     0.185 HD
HETATM   22  N7  UNL     1      -1.191 -27.419  94.271  1.00  0.00    -0.185 N
HETATM   23  N10 UNL     1      -0.291 -25.891  92.824  1.00  0.00     0.091 N
HETATM   24  C13 UNL     1      -2.221 -26.624  94.544  1.00  0.00     0.215 A
ATOM     25  H7  UNL     1      -1.152 -28.325  94.736  1.00  0.00     0.185 HD
HETATM   26  N8  UNL     1      -2.306 -25.413  93.944  1.00  0.00    -0.185 N
HETATM   27  C14 UNL     1      -1.322 -25.064  93.081  1.00  0.00     0.713 A
ATOM     28  H8  UNL     1      -3.084 -24.783  94.136  1.00  0.00     0.185 HD
HETATM   29  N11 UNL     1       0.755 -25.760  92.037  1.00  0.00    -0.251 N
ATOM     30  H11 UNL     1       0.944 -24.939  91.462  1.00  0.00     0.190 HD
BRANCH  27  31
HETATM   31  N9  UNL     1      -1.364 -23.924  92.489  1.00  0.00    -0.232 N
ATOM     32  H92 UNL     1      -0.978 -23.110  92.966  1.00  0.00     0.174 HD
ATOM     33  H91 UNL     1      -1.777 -23.849  91.560  1.00  0.00     0.174 HD
ENDBRANCH  27  31
ENDBRANCH  17  18
ENDBRANCH  14  17
ENDBRANCH  13  14
ENDBRANCH  12  13
ENDBRANCH   7  12
BRANCH   1  34
HETATM   34  O2  UNL     1      -0.957 -26.325  99.418  1.00  0.00    -0.211 OA
BRANCH  34  35
HETATM   35  C4  UNL     1      -1.840 -25.294  99.295  1.00  0.00     0.215 A
HETATM   36  C3  UNL     1      -1.965 -24.353 100.318  1.00  0.00     0.131 A
HETATM   37  C19 UNL     1      -2.863 -23.323 100.172  1.00  0.00     0.163 A
HETATM   38  N14 UNL     1      -3.583 -23.272  99.046  1.00  0.00    -0.177 N
HETATM   39  N15 UNL     1      -3.049 -22.329 101.166  1.00  0.00    -0.080 NA
HETATM   40  C18 UNL     1      -3.487 -24.164  98.041  1.00  0.00     0.679 A
ATOM     41  H14 UNL     1      -4.249 -22.507  98.941  1.00  0.00     0.185 HD
HETATM   42  N12 UNL     1      -2.609 -25.163  98.192  1.00  0.00    -0.166 N
ATOM     43  H12 UNL     1      -2.517 -25.852  97.446  1.00  0.00     0.186 HD
BRANCH  36  44
HETATM   44  N1  UNL     1      -1.170 -24.460 101.494  1.00  0.00    -0.321 N
HETATM   45  C2  UNL     1      -1.660 -25.189 102.611  1.00  0.00     0.218 C
HETATM   46  C1  UNL     1      -0.842 -25.311 103.855  1.00  0.00     0.117 C
HETATM   47  O1  UNL     1      -2.802 -25.737 102.550  1.00  0.00    -0.274 OA
ATOM     48  H1  UNL     1      -0.254 -24.015 101.535  1.00  0.00     0.169 HD
ENDBRANCH  36  44
BRANCH  40  49
HETATM   49  N13 UNL     1      -4.202 -24.075  96.973  1.00  0.00    -0.234 N
ATOM     50 2H13 UNL     1      -5.188 -24.335  96.956  1.00  0.00     0.174 HD
ATOM     51 1H13 UNL     1      -3.795 -23.737  96.101  1.00  0.00     0.174 HD
ENDBRANCH  40  49
ENDBRANCH  34  35
ENDBRANCH   1  34
TORSDOF 10
ENDMDL