MODEL 4
REMARK VINA RESULT: -6.984797211      2.676      4.276
REMARK  10 active torsions:
REMARK  status: ('A' for Active; 'I' for Inactive)
REMARK    1  A    between atoms: C5_9  and  C6_10
REMARK    2  A    between atoms: C6_10  and  C7_11
REMARK    3  A    between atoms: C6_10  and  N11_33
REMARK    4  A    between atoms: C7_11  and  N4_12
REMARK    5  A    between atoms: C9_14  and  C10_15
REMARK    6  A    between atoms: C12_19  and  N6_20
REMARK    7  A    between atoms: N11_33  and  S1_35
REMARK    8  A    between atoms: S1_35  and  N12_38
REMARK    9  A    between atoms: N12_38  and  C14_40
REMARK   10  A    between atoms: C18_47  and  N15_48
ROOT
HETATM    1  C1  UNL     1      -0.363 -23.981  97.873  1.00  0.00     0.157 C
HETATM    2  N1  UNL     1      -1.680 -24.210  97.362  1.00  0.00    -0.346 N
HETATM    3  C2  UNL     1      -2.812 -23.787  97.986  1.00  0.00     0.133 A
HETATM    4  C3  UNL     1      -3.898 -24.170  97.226  1.00  0.00     0.131 A
HETATM    5  C4  UNL     1      -5.303 -23.923  97.520  1.00  0.00     0.119 C
HETATM    6  N2  UNL     1      -6.422 -23.737  97.752  1.00  0.00    -0.190 NA
HETATM    7  N3  UNL     1      -3.396 -24.812  96.166  1.00  0.00    -0.334 N
ATOM      8  H3  UNL     1      -3.945 -25.221  95.411  1.00  0.00     0.168 HD
HETATM    9  C5  UNL     1      -2.025 -24.836  96.253  1.00  0.00     0.109 A
ENDROOT
BRANCH   9  10
HETATM   10  C6  UNL     1      -1.255 -25.510  95.183  1.00  0.00     0.182 C
BRANCH  10  11
HETATM   11  C7  UNL     1      -0.405 -26.649  95.631  1.00  0.00     0.183 C
BRANCH  11  12
HETATM   12  N4  UNL     1       0.594 -27.064  94.667  1.00  0.00    -0.284 N
HETATM   13  C8  UNL     1       1.657 -26.334  94.221  1.00  0.00     0.143 A
HETATM   14  C9  UNL     1       2.349 -27.088  93.336  1.00  0.00     0.082 A
HETATM   15  N9  UNL     1       1.665 -28.282  93.269  1.00  0.00    -0.284 N
HETATM   16  N10 UNL     1       0.662 -28.215  94.058  1.00  0.00    -0.240 N
ATOM     17  H9  UNL     1       1.917 -29.083  92.689  1.00  0.00     0.188 HD
ATOM     18  H10 UNL     1      -0.007 -28.973  94.194  1.00  0.00     0.208 HD
BRANCH  14  19
HETATM   19  C10 UNL     1       3.513 -26.840  92.495  1.00  0.00     0.053 A
HETATM   20  C11 UNL     1       4.731 -26.516  93.117  1.00  0.00     0.123 A
HETATM   21  N5  UNL     1       5.846 -26.260  92.418  1.00  0.00    -0.201 N
HETATM   22  C12 UNL     1       5.829 -26.305  91.071  1.00  0.00     0.677 A
ATOM     23  H5  UNL     1       6.711 -26.030  92.908  1.00  0.00     0.183 HD
HETATM   24  N7  UNL     1       4.701 -26.604  90.444  1.00  0.00    -0.176 N
HETATM   25  C13 UNL     1       3.523 -26.875  91.140  1.00  0.00     0.128 A
ATOM     26  H7  UNL     1       4.693 -26.636  89.424  1.00  0.00     0.186 HD
HETATM   27  N8  UNL     1       2.505 -27.076  90.419  1.00  0.00    -0.384 N
ATOM     28  H82 UNL     1       1.644 -27.275  90.928  1.00  0.00     0.157 HD
ATOM     29  H81 UNL     1       2.512 -27.102  89.399  1.00  0.00     0.157 HD
BRANCH  22  30
HETATM   30  N6  UNL     1       6.931 -26.051  90.412  1.00  0.00    -0.234 N
ATOM     31  H62 UNL     1       7.598 -25.351  90.737  1.00  0.00     0.174 HD
ATOM     32  H61 UNL     1       7.126 -26.568  89.556  1.00  0.00     0.174 HD
ENDBRANCH  22  30
ENDBRANCH  14  19
ENDBRANCH  11  12
ENDBRANCH  10  11
BRANCH  10  33
HETATM   33  N11 UNL     1      -2.141 -25.979  94.140  1.00  0.00    -0.289 N
ATOM     34  H11 UNL     1      -2.997 -26.490  94.352  1.00  0.00     0.174 HD
BRANCH  33  35
HETATM   35  S1  UNL     1      -1.683 -25.635  92.557  1.00  0.00     0.321 S
HETATM   36  O1  UNL     1      -0.982 -26.890  92.018  1.00  0.00    -0.182 OA
HETATM   37  O2  UNL     1      -2.895 -25.489  91.686  1.00  0.00    -0.182 OA
BRANCH  35  38
HETATM   38  N12 UNL     1      -0.548 -24.377  92.404  1.00  0.00    -0.252 N
ATOM     39  H12 UNL     1       0.442 -24.617  92.356  1.00  0.00     0.182 HD
BRANCH  38  40
HETATM   40  C14 UNL     1      -0.916 -23.020  92.342  1.00  0.00     0.134 A
HETATM   41  C15 UNL     1      -0.852 -22.268  91.190  1.00  0.00     0.091 A
HETATM   42  C16 UNL     1      -1.229 -20.921  91.145  1.00  0.00     0.133 A
HETATM   43  C17 UNL     1      -1.134 -20.205  89.903  1.00  0.00     0.118 C
HETATM   44  N14 UNL     1      -1.669 -20.342  92.264  1.00  0.00    -0.182 N
HETATM   45  N13 UNL     1      -1.065 -19.609  88.897  1.00  0.00    -0.190 NA
HETATM   46  C18 UNL     1      -1.742 -21.049  93.400  1.00  0.00     0.678 A
ATOM     47  H14 UNL     1      -1.949 -19.362  92.254  1.00  0.00     0.185 HD
HETATM   48  N16 UNL     1      -1.376 -22.351  93.442  1.00  0.00    -0.176 N
ATOM     49  H16 UNL     1      -1.446 -22.852  94.328  1.00  0.00     0.186 HD
BRANCH  46  50
HETATM   50  N15 UNL     1      -2.174 -20.437  94.458  1.00  0.00    -0.234 N
ATOM     51 2H15 UNL     1      -2.910 -19.733  94.399  1.00  0.00     0.174 HD
ATOM     52 1H15 UNL     1      -1.752 -20.686  95.351  1.00  0.00     0.174 HD
ENDBRANCH  46  50
ENDBRANCH  38  40
ENDBRANCH  35  38
ENDBRANCH  33  35
ENDBRANCH  10  33
ENDBRANCH   9  10
TORSDOF 10
ENDMDL