MODEL 1
REMARK VINA RESULT: -7.936377654      0.000      0.000
REMARK  4 active torsions:
REMARK  status: ('A' for Active; 'I' for Inactive)
REMARK    1  A    between atoms: C4_5  and  C5_6
REMARK    2  A    between atoms: C5_6  and  C6_7
REMARK    3  A    between atoms: C6_7  and  O1_8
REMARK    4  A    between atoms: O1_8  and  C7_9
ROOT
HETATM    1  C7  UNL     1      31.112 -19.344  17.771  1.00  0.00     0.111 A
HETATM    2  C8  UNL     1      31.041 -20.476  18.604  1.00  0.00     0.081 A
HETATM    3  N2  UNL     1      29.787 -20.761  19.262  1.00  0.00    -0.099 NA
HETATM    4  C9  UNL     1      32.122 -21.289  18.799  1.00  0.00     0.032 A
HETATM    5  C10 UNL     1      33.307 -20.997  18.169  1.00  0.00     0.032 A
HETATM    6  C11 UNL     1      33.397 -19.882  17.345  1.00  0.00     0.045 A
HETATM    7  N3  UNL     1      34.399 -19.336  16.642  1.00  0.00    -0.365 N
ATOM      8  H3  UNL     1      35.342 -19.720  16.587  1.00  0.00     0.165 HD
HETATM    9  C12 UNL     1      33.996 -18.220  16.023  1.00  0.00     0.089 A
HETATM   10  C13 UNL     1      32.683 -18.012  16.317  1.00  0.00     0.034 A
HETATM   11  C14 UNL     1      32.295 -19.053  17.146  1.00  0.00     0.028 A
ENDROOT
BRANCH   1  12
HETATM   12  O1  UNL     1      29.956 -18.623  17.672  1.00  0.00    -0.320 OA
BRANCH  12  13
HETATM   13  C6  UNL     1      29.546 -17.430  18.181  1.00  0.00     0.143 C
BRANCH  13  14
HETATM   14  C5  UNL     1      29.378 -17.031  19.563  1.00  0.00     0.036 C
BRANCH  14  15
HETATM   15  C4  UNL     1      30.463 -17.118  20.530  1.00  0.00    -0.034 A
HETATM   16  C3  UNL     1      31.803 -17.241  20.277  1.00  0.00     0.013 A
HETATM   17  C2  UNL     1      32.777 -17.320  21.253  1.00  0.00     0.027 A
HETATM   18  C1  UNL     1      32.436 -17.278  22.588  1.00  0.00     0.046 A
HETATM   19  N1  UNL     1      33.432 -17.359  23.594  1.00  0.00    -0.102 NA
HETATM   20  C16 UNL     1      31.094 -17.154  22.865  1.00  0.00     0.027 A
HETATM   21  C15 UNL     1      30.129 -17.075  21.895  1.00  0.00     0.013 A
ENDBRANCH  14  15
ENDBRANCH  13  14
ENDBRANCH  12  13
ENDBRANCH   1  12
TORSDOF 4
ENDMDL