MODEL 1
REMARK VINA RESULT: -7.059517243      0.000      0.000
REMARK  5 active torsions:
REMARK  status: ('A' for Active; 'I' for Inactive)
REMARK    1  A    between atoms: N1_1  and  C1_4
REMARK    2  A    between atoms: C3_8  and  C4_9
REMARK    3  A    between atoms: C8_15  and  S1_16
REMARK    4  A    between atoms: S1_16  and  C9_17
REMARK    5  A    between atoms: C9_17  and  C10_18
ROOT
HETATM    1  C1  UNL     1      29.281 -15.974  21.070  1.00  0.00     0.128 A
HETATM    2  N2  UNL     1      29.891 -15.365  22.091  1.00  0.00    -0.350 N
ATOM      3  H2  UNL     1      29.534 -14.464  22.411  1.00  0.00     0.166 HD
HETATM    4  C2  UNL     1      30.963 -15.899  22.714  1.00  0.00     0.099 A
HETATM    5  C3  UNL     1      31.512 -17.102  22.357  1.00  0.00    -0.009 A
HETATM    6  C7  UNL     1      30.878 -17.744  21.289  1.00  0.00     0.073 A
HETATM    7  N3  UNL     1      31.154 -18.917  20.699  1.00  0.00    -0.334 N
ATOM      8  H3  UNL     1      31.908 -19.558  20.946  1.00  0.00     0.168 HD
HETATM    9  C8  UNL     1      30.248 -19.088  19.724  1.00  0.00     0.145 A
HETATM   10  N4  UNL     1      29.400 -18.055  19.671  1.00  0.00    -0.332 N
ATOM     11  H4  UNL     1      28.621 -17.933  19.024  1.00  0.00     0.168 HD
HETATM   12  C13 UNL     1      29.786 -17.200  20.654  1.00  0.00     0.105 A
ENDROOT
BRANCH   9  13
HETATM   13  S1  UNL     1      30.126 -20.482  18.608  1.00  0.00    -0.093 SA
BRANCH  13  14
HETATM   14  C9  UNL     1      30.925 -20.115  17.036  1.00  0.00     0.087 C
BRANCH  14  15
HETATM   15  C10 UNL     1      32.123 -19.203  17.310  1.00  0.00    -0.005 A
HETATM   16  C11 UNL     1      32.990 -18.898  16.139  1.00  0.00     0.006 A
HETATM   17  C12 UNL     1      32.085 -17.852  16.710  1.00  0.00     0.006 A
ENDBRANCH  14  15
ENDBRANCH  13  14
ENDBRANCH   9  13
BRANCH   5  18
HETATM   18  C4  UNL     1      32.683 -17.732  22.996  1.00  0.00     0.022 A
HETATM   19  C5  UNL     1      33.843 -16.885  23.489  1.00  0.00     0.010 A
HETATM   20  C6  UNL     1      33.997 -17.757  22.304  1.00  0.00     0.010 A
ENDBRANCH   5  18
BRANCH   1  21
HETATM   21  N1  UNL     1      28.253 -15.474  20.469  1.00  0.00    -0.384 N
ATOM     22  H12 UNL     1      28.158 -15.588  19.460  1.00  0.00     0.157 HD
ATOM     23  H11 UNL     1      27.517 -14.965  20.960  1.00  0.00     0.157 HD
ENDBRANCH   1  21
TORSDOF 5
ENDMDL