MODEL 5
REMARK VINA RESULT: -8.015517526      1.593      2.210
REMARK  5 active torsions:
REMARK  status: ('A' for Active; 'I' for Inactive)
REMARK    1  A    between atoms: N1_1  and  C1_4
REMARK    2  A    between atoms: C3_10  and  C4_11
REMARK    3  A    between atoms: C4_11  and  C5_12
REMARK    4  A    between atoms: C9_16  and  O1_17
REMARK    5  A    between atoms: O1_17  and  C10_18
ROOT
HETATM    1  C5  UNL     1      30.813 -15.712  19.577  1.00  0.00    -0.051 A
HETATM    2  C6  UNL     1      31.137 -14.387  19.368  1.00  0.00     0.007 A
HETATM    3  C7  UNL     1      31.809 -13.952  18.252  1.00  0.00     0.003 A
HETATM    4  C8  UNL     1      32.188 -14.869  17.279  1.00  0.00     0.037 A
HETATM    5  C9  UNL     1      31.877 -16.207  17.461  1.00  0.00     0.076 A
HETATM    6  C16 UNL     1      31.198 -16.592  18.604  1.00  0.00     0.044 A
ENDROOT
BRANCH   1   7
HETATM    7  C4  UNL     1      30.088 -16.118  20.775  1.00  0.00     0.082 C
BRANCH   7   8
HETATM    8  C3  UNL     1      30.844 -15.926  22.055  1.00  0.00     0.008 A
HETATM    9  C1  UNL     1      31.953 -16.622  22.452  1.00  0.00     0.121 A
HETATM   10  N2  UNL     1      32.317 -16.087  23.658  1.00  0.00    -0.286 N
HETATM   11  N3  UNL     1      31.487 -15.122  23.990  1.00  0.00    -0.310 N
ATOM     12  H2  UNL     1      33.115 -16.392  24.216  1.00  0.00     0.188 HD
HETATM   13  C2  UNL     1      30.571 -14.994  23.033  1.00  0.00     0.118 A
ATOM     14  H3  UNL     1      31.537 -14.563  24.842  1.00  0.00     0.186 HD
BRANCH   9  15
HETATM   15  N1  UNL     1      32.596 -17.605  21.896  1.00  0.00    -0.384 N
ATOM     16  H12 UNL     1      32.324 -18.572  21.714  1.00  0.00     0.157 HD
ATOM     17  H11 UNL     1      33.553 -17.516  21.553  1.00  0.00     0.157 HD
ENDBRANCH   9  15
ENDBRANCH   7   8
ENDBRANCH   1   7
BRANCH   5  18
HETATM   18  O1  UNL     1      32.284 -17.061  16.458  1.00  0.00    -0.311 OA
BRANCH  18  19
HETATM   19  C10 UNL     1      33.546 -17.582  16.291  1.00  0.00     0.076 A
HETATM   20  C11 UNL     1      34.682 -16.930  16.755  1.00  0.00     0.037 A
HETATM   21  C12 UNL     1      35.923 -17.516  16.552  1.00  0.00     0.003 A
HETATM   22  C13 UNL     1      36.071 -18.739  15.899  1.00  0.00     0.000 A
HETATM   23  C14 UNL     1      34.935 -19.380  15.441  1.00  0.00     0.003 A
HETATM   24  C15 UNL     1      33.713 -18.788  15.649  1.00  0.00     0.037 A
ENDBRANCH  18  19
ENDBRANCH   5  18
TORSDOF 5
ENDMDL