MODEL 4
REMARK VINA RESULT: -7.604271729      1.104      2.108
REMARK  5 active torsions:
REMARK  status: ('A' for Active; 'I' for Inactive)
REMARK    1  A    between atoms: N1_1  and  C1_4
REMARK    2  A    between atoms: C3_6  and  C4_7
REMARK    3  A    between atoms: C11_16  and  N3_17
REMARK    4  A    between atoms: N3_17  and  C12_19
REMARK    5  A    between atoms: C12_19  and  C13_20
ROOT
HETATM    1  C1  UNL     1      30.658 -18.295  18.340  1.00  0.00     0.056 A
HETATM    2  C2  UNL     1      31.896 -18.550  17.793  1.00  0.00     0.061 A
HETATM    3  C3  UNL     1      32.759 -17.543  17.357  1.00  0.00     0.044 A
HETATM    4  N2  UNL     1      32.303 -16.290  17.504  1.00  0.00    -0.363 N
ATOM      5  H2  UNL     1      32.896 -15.519  17.199  1.00  0.00     0.165 HD
HETATM    6  C10 UNL     1      31.086 -15.997  18.039  1.00  0.00     0.119 A
HETATM    7  C11 UNL     1      30.257 -16.995  18.460  1.00  0.00     0.070 A
ENDROOT
BRANCH   7   8
HETATM    8  N3  UNL     1      28.991 -16.667  19.016  1.00  0.00    -0.381 N
ATOM      9  H3  UNL     1      28.182 -17.254  18.810  1.00  0.00     0.160 HD
BRANCH   8  10
HETATM   10  C12 UNL     1      28.836 -15.511  19.871  1.00  0.00     0.184 C
BRANCH  10  11
HETATM   11  C13 UNL     1      29.560 -15.728  21.156  1.00  0.00     0.070 A
HETATM   12  C14 UNL     1      29.775 -16.880  21.872  1.00  0.00     0.036 A
HETATM   13  C15 UNL     1      30.513 -16.563  23.018  1.00  0.00     0.027 A
HETATM   14  C16 UNL     1      30.706 -15.208  22.931  1.00  0.00     0.142 A
HETATM   15  O1  UNL     1      30.151 -14.752  21.854  1.00  0.00    -0.325 OA
ENDBRANCH  10  11
ENDBRANCH   8  10
ENDBRANCH   7   8
BRANCH   1  16
HETATM   16  N1  UNL     1      29.893 -19.238  18.729  1.00  0.00    -0.397 N
ATOM     17  H12 UNL     1      29.926 -20.146  18.267  1.00  0.00     0.156 HD
ATOM     18  H11 UNL     1      29.240 -19.111  19.503  1.00  0.00     0.156 HD
ENDBRANCH   1  16
BRANCH   3  19
HETATM   19  C4  UNL     1      34.054 -17.858  16.787  1.00  0.00    -0.009 A
HETATM   20  C5  UNL     1      35.092 -16.955  16.886  1.00  0.00     0.013 A
HETATM   21  C6  UNL     1      36.350 -17.247  16.340  1.00  0.00     0.001 A
HETATM   22  C7  UNL     1      36.589 -18.421  15.699  1.00  0.00     0.000 A
HETATM   23  C8  UNL     1      35.575 -19.334  15.588  1.00  0.00     0.001 A
HETATM   24  C9  UNL     1      34.322 -19.032  16.137  1.00  0.00     0.013 A
ENDBRANCH   3  19
TORSDOF 5
ENDMDL