MODEL 2
REMARK VINA RESULT: -8.263442798      0.034      1.055
REMARK  4 active torsions:
REMARK  status: ('A' for Active; 'I' for Inactive)
REMARK    1  A    between atoms: C4_4  and  C5_5
REMARK    2  A    between atoms: C5_5  and  N1_6
REMARK    3  A    between atoms: N1_6  and  C6_8
REMARK    4  A    between atoms: C10_12  and  C11_13
ROOT
HETATM    1  C6  UNL     1      30.316 -16.177  19.477  1.00  0.00     0.029 A
HETATM    2  C7  UNL     1      30.280 -14.799  19.501  1.00  0.00     0.029 A
HETATM    3  C8  UNL     1      31.183 -14.066  18.757  1.00  0.00     0.003 A
HETATM    4  C9  UNL     1      32.152 -14.655  17.964  1.00  0.00     0.015 A
HETATM    5  C10 UNL     1      32.184 -16.030  17.944  1.00  0.00     0.009 A
HETATM    6  C15 UNL     1      31.274 -16.785  18.694  1.00  0.00     0.044 A
ENDROOT
BRANCH   1   7
HETATM    7  N1  UNL     1      29.390 -16.938  20.241  1.00  0.00    -0.386 N
ATOM      8  H1  UNL     1      28.757 -17.577  19.760  1.00  0.00     0.160 HD
BRANCH   7   9
HETATM    9  C5  UNL     1      29.320 -16.834  21.678  1.00  0.00     0.158 C
BRANCH   9  10
HETATM   10  C4  UNL     1      30.687 -16.767  22.252  1.00  0.00    -0.041 A
HETATM   11  C3  UNL     1      31.200 -15.597  22.755  1.00  0.00     0.009 A
HETATM   12  C2  UNL     1      32.478 -15.596  23.274  1.00  0.00     0.001 A
HETATM   13  C1  UNL     1      33.279 -16.713  23.319  1.00  0.00     0.000 A
HETATM   14  C17 UNL     1      32.729 -17.879  22.802  1.00  0.00     0.001 A
HETATM   15  C16 UNL     1      31.450 -17.906  22.276  1.00  0.00     0.009 A
ENDBRANCH   9  10
ENDBRANCH   7   9
ENDBRANCH   1   7
BRANCH   5  16
HETATM   16  C11 UNL     1      33.172 -16.731  17.136  1.00  0.00     0.107 C
HETATM   17  N2  UNL     1      34.450 -16.521  17.316  1.00  0.00    -0.376 N
HETATM   18  C12 UNL     1      35.399 -17.236  16.493  1.00  0.00     0.123 C
ATOM     19  H2  UNL     1      34.772 -15.862  18.025  1.00  0.00     0.161 HD
HETATM   20  C13 UNL     1      34.966 -18.672  16.396  1.00  0.00     0.039 C
HETATM   21  C14 UNL     1      33.582 -18.836  15.858  1.00  0.00     0.123 C
HETATM   22  N3  UNL     1      32.753 -17.655  16.140  1.00  0.00    -0.376 N
ATOM     23  H3  UNL     1      31.885 -17.500  15.627  1.00  0.00     0.161 HD
ENDBRANCH   5  16
TORSDOF 4
ENDMDL