MODEL 3
REMARK VINA RESULT: -7.589676625      1.516      2.617
REMARK  4 active torsions:
REMARK  status: ('A' for Active; 'I' for Inactive)
REMARK    1  A    between atoms: C5_8  and  C6_9
REMARK    2  A    between atoms: C6_9  and  N3_10
REMARK    3  A    between atoms: N3_10  and  C7_12
REMARK    4  A    between atoms: C9_18  and  C10_19
ROOT
HETATM    1  N1  UNL     1      31.991 -16.661  16.140  1.00  0.00    -0.191 NA
HETATM    2  C1  UNL     1      32.181 -17.648  16.687  1.00  0.00     0.101 C
HETATM    3  C2  UNL     1      32.398 -18.919  17.353  1.00  0.00     0.069 A
HETATM    4  C3  UNL     1      33.593 -19.578  17.456  1.00  0.00     0.111 A
HETATM    5  N2  UNL     1      33.364 -20.724  18.071  1.00  0.00    -0.373 N
ATOM      6  H2  UNL     1      34.069 -21.428  18.293  1.00  0.00     0.164 HD
HETATM    7  C4  UNL     1      32.031 -20.815  18.362  1.00  0.00     0.098 A
HETATM    8  C5  UNL     1      31.403 -19.686  17.917  1.00  0.00    -0.003 A
ENDROOT
BRANCH   8   9
HETATM    9  C6  UNL     1      30.033 -19.247  18.208  1.00  0.00     0.161 C
BRANCH   9  10
HETATM   10  N3  UNL     1      29.913 -18.670  19.543  1.00  0.00    -0.383 N
ATOM     11  H3  UNL     1      29.706 -19.288  20.327  1.00  0.00     0.160 HD
BRANCH  10  12
HETATM   12  C7  UNL     1      30.073 -17.282  19.790  1.00  0.00     0.074 A
HETATM   13  C8  UNL     1      29.173 -16.326  19.272  1.00  0.00     0.138 A
HETATM   14  N4  UNL     1      29.595 -15.125  19.615  1.00  0.00    -0.309 N
HETATM   15  N5  UNL     1      30.694 -15.255  20.317  1.00  0.00    -0.298 N
ATOM     16  H4  UNL     1      29.143 -14.243  19.374  1.00  0.00     0.186 HD
HETATM   17  C9  UNL     1      31.010 -16.603  20.435  1.00  0.00     0.086 A
ATOM     18  H5  UNL     1      31.233 -14.487  20.715  1.00  0.00     0.187 HD
BRANCH  17  19
HETATM   19  C10 UNL     1      32.171 -17.044  21.218  1.00  0.00    -0.006 A
HETATM   20  C11 UNL     1      33.194 -17.823  20.660  1.00  0.00     0.014 A
HETATM   21  C12 UNL     1      34.289 -18.228  21.330  1.00  0.00     0.001 A
HETATM   22  C13 UNL     1      34.474 -17.887  22.666  1.00  0.00     0.000 A
HETATM   23  C14 UNL     1      33.502 -17.128  23.283  1.00  0.00     0.001 A
HETATM   24  C15 UNL     1      32.343 -16.702  22.541  1.00  0.00     0.014 A
ENDBRANCH  17  19
ENDBRANCH  10  12
ENDBRANCH   9  10
ENDBRANCH   8   9
TORSDOF 4
ENDMDL