MODEL 4
REMARK VINA RESULT: -7.663981315      1.541      1.733
REMARK  5 active torsions:
REMARK  status: ('A' for Active; 'I' for Inactive)
REMARK    1  A    between atoms: N1_1  and  C1_4
REMARK    2  A    between atoms: C3_6  and  C4_7
REMARK    3  A    between atoms: C4_7  and  C5_8
REMARK    4  A    between atoms: C5_8  and  C6_9
REMARK    5  A    between atoms: C6_9  and  C7_10
ROOT
HETATM    1  C1  UNL     1      29.567 -17.318  19.140  1.00  0.00     0.042 A
HETATM    2  C2  UNL     1      30.087 -18.262  18.256  1.00  0.00     0.055 A
HETATM    3  C3  UNL     1      31.216 -18.989  18.567  1.00  0.00     0.011 A
HETATM    4  N2  UNL     1      31.783 -18.741  19.756  1.00  0.00    -0.359 N
ATOM      5  H2  UNL     1      32.620 -19.271  20.001  1.00  0.00     0.166 HD
HETATM    6  C11 UNL     1      31.325 -17.839  20.654  1.00  0.00     0.046 A
HETATM    7  C12 UNL     1      31.978 -17.648  21.867  1.00  0.00     0.030 A
HETATM    8  C13 UNL     1      31.523 -16.737  22.784  1.00  0.00     0.004 A
HETATM    9  C14 UNL     1      30.396 -16.007  22.481  1.00  0.00     0.027 A
HETATM   10  C15 UNL     1      29.743 -16.198  21.268  1.00  0.00     0.061 A
HETATM   11  N3  UNL     1      28.585 -15.459  20.940  1.00  0.00    -0.101 NA
HETATM   12  C16 UNL     1      30.198 -17.114  20.344  1.00  0.00     0.041 A
ENDROOT
BRANCH   3  13
HETATM   13  C4  UNL     1      31.781 -20.005  17.623  1.00  0.00     0.057 C
BRANCH  13  14
HETATM   14  C5  UNL     1      33.211 -19.662  17.355  1.00  0.00     0.012 C
BRANCH  14  15
HETATM   15  C6  UNL     1      33.355 -18.707  16.199  1.00  0.00     0.065 C
BRANCH  15  16
HETATM   16  C7  UNL     1      34.784 -18.257  16.131  1.00  0.00     0.052 A
HETATM   17  C8  UNL     1      35.230 -17.003  16.501  1.00  0.00     0.034 A
HETATM   18  C9  UNL     1      36.592 -16.983  16.292  1.00  0.00     0.027 A
HETATM   19  C10 UNL     1      36.899 -18.235  15.803  1.00  0.00     0.142 A
HETATM   20  O1  UNL     1      35.811 -18.945  15.726  1.00  0.00    -0.327 OA
ENDBRANCH  15  16
ENDBRANCH  14  15
ENDBRANCH  13  14
ENDBRANCH   3  13
BRANCH   1  21
HETATM   21  N1  UNL     1      28.509 -16.634  18.854  1.00  0.00    -0.398 N
ATOM     22  H12 UNL     1      28.154 -15.956  19.527  1.00  0.00     0.156 HD
ATOM     23  H11 UNL     1      28.016 -16.757  17.969  1.00  0.00     0.156 HD
ENDBRANCH   1  21
TORSDOF 5
ENDMDL