MODEL 4
REMARK VINA RESULT: -8.019148668      2.141      2.888
REMARK  4 active torsions:
REMARK  status: ('A' for Active; 'I' for Inactive)
REMARK    1  A    between atoms: C4_4  and  C5_5
REMARK    2  A    between atoms: C5_5  and  N1_6
REMARK    3  A    between atoms: N1_6  and  C6_8
REMARK    4  A    between atoms: C9_11  and  C10_12
ROOT
HETATM    1  C6  UNL     1      32.935 -18.568  16.345  1.00  0.00     0.028 A
HETATM    2  C7  UNL     1      32.453 -17.292  16.510  1.00  0.00     0.029 A
HETATM    3  C8  UNL     1      31.413 -17.037  17.411  1.00  0.00     0.011 A
HETATM    4  C9  UNL     1      30.843 -18.030  18.152  1.00  0.00    -0.034 A
HETATM    5  C14 UNL     1      31.320 -19.310  17.992  1.00  0.00     0.011 A
HETATM    6  C15 UNL     1      32.349 -19.563  17.100  1.00  0.00     0.029 A
ENDROOT
BRANCH   1   7
HETATM    7  N1  UNL     1      33.986 -18.896  15.444  1.00  0.00    -0.386 N
ATOM      8  H1  UNL     1      33.848 -18.711  14.450  1.00  0.00     0.160 HD
BRANCH   7   9
HETATM    9  C5  UNL     1      35.226 -19.472  15.857  1.00  0.00     0.158 C
BRANCH   9  10
HETATM   10  C4  UNL     1      36.341 -18.486  15.798  1.00  0.00    -0.041 A
HETATM   11  C3  UNL     1      37.531 -18.730  15.148  1.00  0.00     0.009 A
HETATM   12  C2  UNL     1      38.552 -17.789  15.099  1.00  0.00     0.001 A
HETATM   13  C1  UNL     1      38.391 -16.575  15.711  1.00  0.00     0.000 A
HETATM   14  C17 UNL     1      37.229 -16.309  16.358  1.00  0.00     0.001 A
HETATM   15  C16 UNL     1      36.209 -17.255  16.403  1.00  0.00     0.009 A
ENDBRANCH   9  10
ENDBRANCH   7   9
ENDBRANCH   1   7
BRANCH   4  16
HETATM   16  C10 UNL     1      29.743 -17.814  19.120  1.00  0.00     0.135 C
HETATM   17  C11 UNL     1      30.275 -17.565  20.499  1.00  0.00     0.261 C
HETATM   18  N2  UNL     1      29.116 -17.210  21.337  1.00  0.00    -0.071 N
HETATM   19  C12 UNL     1      28.826 -15.830  21.005  1.00  0.00     0.251 C
ATOM     20  H22 UNL     1      28.320 -17.838  21.228  1.00  0.00     0.277 HD
ATOM     21  H21 UNL     1      29.259 -17.376  22.333  1.00  0.00     0.277 HD
HETATM   22  C13 UNL     1      28.872 -15.582  19.521  1.00  0.00     0.142 C
HETATM   23  N3  UNL     1      28.840 -16.793  18.743  1.00  0.00    -0.410 N
ATOM     24  H3  UNL     1      28.199 -16.909  17.959  1.00  0.00     0.154 HD
ENDBRANCH   4  16
TORSDOF 4
ENDMDL