MODEL 3
REMARK VINA RESULT: -7.418155355      2.481      6.280
REMARK  4 active torsions:
REMARK  status: ('A' for Active; 'I' for Inactive)
REMARK    1  A    between atoms: C3_3  and  N1_4
REMARK    2  A    between atoms: N1_4  and  C4_6
REMARK    3  A    between atoms: C11_13  and  O1_14
REMARK    4  A    between atoms: O1_14  and  C12_15
ROOT
HETATM    1  C1  UNL     1      26.846 -14.049  19.065  1.00  0.00     0.014 C
HETATM    2  C2  UNL     1      27.701 -14.850  19.391  1.00  0.00    -0.098 C
HETATM    3  C3  UNL     1      28.739 -15.797  19.800  1.00  0.00     0.213 C
ENDROOT
BRANCH   3   4
HETATM    4  N1  UNL     1      30.017 -15.096  19.994  1.00  0.00    -0.379 N
ATOM      5  H1  UNL     1      30.317 -14.387  19.324  1.00  0.00     0.160 HD
BRANCH   4   6
HETATM    6  C4  UNL     1      30.815 -15.398  21.091  1.00  0.00     0.040 A
HETATM    7  C5  UNL     1      30.628 -14.714  22.294  1.00  0.00     0.030 A
HETATM    8  C6  UNL     1      31.403 -14.990  23.399  1.00  0.00     0.003 A
HETATM    9  C7  UNL     1      32.375 -15.962  23.295  1.00  0.00     0.012 A
HETATM   10  C8  UNL     1      32.600 -16.664  22.134  1.00  0.00    -0.024 A
HETATM   11  C9  UNL     1      33.599 -17.631  22.103  1.00  0.00     0.015 A
HETATM   12  C17 UNL     1      31.803 -16.367  21.027  1.00  0.00     0.003 A
HETATM   13  C10 UNL     1      33.826 -18.335  20.940  1.00  0.00     0.037 A
HETATM   14  C11 UNL     1      33.051 -18.059  19.836  1.00  0.00     0.070 A
HETATM   15  C16 UNL     1      32.051 -17.085  19.879  1.00  0.00     0.051 A
BRANCH  14  16
HETATM   16  O1  UNL     1      33.227 -18.725  18.648  1.00  0.00    -0.344 OA
BRANCH  16  17
HETATM   17  C12 UNL     1      32.429 -19.688  18.066  1.00  0.00     0.156 C
HETATM   18  C13 UNL     1      31.538 -20.392  19.100  1.00  0.00     0.061 C
HETATM   19  C14 UNL     1      30.211 -20.590  18.445  1.00  0.00     0.235 C
HETATM   20  N2  UNL     1      30.432 -20.223  17.057  1.00  0.00    -0.073 N
HETATM   21  C15 UNL     1      31.355 -19.104  17.153  1.00  0.00     0.264 C
ATOM     22  H22 UNL     1      30.750 -20.987  16.461  1.00  0.00     0.277 HD
ATOM     23  H21 UNL     1      29.581 -20.028  16.529  1.00  0.00     0.277 HD
ENDBRANCH  16  17
ENDBRANCH  14  16
ENDBRANCH   4   6
ENDBRANCH   3   4
TORSDOF 4
ENDMDL