MODEL 4
REMARK VINA RESULT: -7.530904273      2.332      7.294
REMARK  6 active torsions:
REMARK  status: ('A' for Active; 'I' for Inactive)
REMARK    1  A    between atoms: N1_1  and  C1_5
REMARK    2  A    between atoms: C1_5  and  C2_6
REMARK    3  A    between atoms: C5_9  and  N2_10
REMARK    4  A    between atoms: N2_10  and  C6_12
REMARK    5  A    between atoms: C13_19  and  C14_20
REMARK    6  A    between atoms: C14_20  and  N3_21
ROOT
HETATM    1  C6  UNL     1      33.375 -19.601  16.809  1.00  0.00     0.033 A
HETATM    2  C7  UNL     1      33.592 -20.615  17.707  1.00  0.00     0.030 A
HETATM    3  C8  UNL     1      32.650 -20.915  18.674  1.00  0.00     0.010 A
HETATM    4  C9  UNL     1      31.484 -20.173  18.722  1.00  0.00    -0.051 A
HETATM    5  C10 UNL     1      31.250 -19.155  17.833  1.00  0.00    -0.049 A
HETATM    6  C11 UNL     1      32.178 -18.869  16.887  1.00  0.00     0.037 A
HETATM    7  C12 UNL     1      29.933 -18.518  18.095  1.00  0.00     0.045 C
HETATM    8  C13 UNL     1      29.603 -18.951  19.526  1.00  0.00     0.019 C
HETATM    9  C15 UNL     1      30.321 -20.252  19.615  1.00  0.00     0.045 C
ENDROOT
BRANCH   1  10
HETATM   10  N2  UNL     1      34.273 -19.253  15.783  1.00  0.00    -0.356 N
ATOM     11  H2  UNL     1      34.061 -19.600  14.848  1.00  0.00     0.166 HD
BRANCH  10  12
HETATM   12  C5  UNL     1      35.430 -18.474  15.919  1.00  0.00     0.032 A
HETATM   13  C4  UNL     1      35.433 -17.219  16.473  1.00  0.00     0.030 A
HETATM   14  C3  UNL     1      36.578 -16.460  16.576  1.00  0.00     0.011 A
HETATM   15  C2  UNL     1      37.798 -16.918  16.128  1.00  0.00    -0.033 A
HETATM   16  C17 UNL     1      37.807 -18.179  15.571  1.00  0.00     0.011 A
HETATM   17  C16 UNL     1      36.670 -18.936  15.465  1.00  0.00     0.030 A
BRANCH  15  18
HETATM   18  C1  UNL     1      39.034 -16.104  16.237  1.00  0.00     0.268 C
BRANCH  18  19
HETATM   19  N1  UNL     1      39.674 -16.394  17.508  1.00  0.00    -0.075 N
ATOM     20  H13 UNL     1      39.011 -16.412  18.283  1.00  0.00     0.274 HD
ATOM     21  H12 UNL     1      39.994 -17.361  17.572  1.00  0.00     0.274 HD
ATOM     22  H11 UNL     1      40.430 -15.725  17.657  1.00  0.00     0.274 HD
ENDBRANCH  18  19
ENDBRANCH  15  18
ENDBRANCH  10  12
ENDBRANCH   1  10
BRANCH   8  23
HETATM   23  C14 UNL     1      30.163 -17.880  20.433  1.00  0.00     0.234 C
BRANCH  23  24
HETATM   24  N3  UNL     1      29.165 -17.102  21.094  1.00  0.00    -0.079 N
ATOM     25  H33 UNL     1      29.319 -17.103  22.102  1.00  0.00     0.274 HD
ATOM     26  H32 UNL     1      29.298 -16.109  20.901  1.00  0.00     0.274 HD
ATOM     27  H31 UNL     1      28.210 -17.385  20.878  1.00  0.00     0.274 HD
ENDBRANCH  23  24
ENDBRANCH   8  23
TORSDOF 6
ENDMDL