MODEL 3
REMARK VINA RESULT: -9.245904779      6.847      9.136
REMARK  4 active torsions:
REMARK  status: ('A' for Active; 'I' for Inactive)
REMARK    1  A    between atoms: N2_6  and  C3_8
REMARK    2  A    between atoms: C6_11  and  S1_12
REMARK    3  A    between atoms: S1_12  and  C7_15
REMARK    4  A    between atoms: C18_32  and  C19_33
ROOT
HETATM    1  C3  UNL     1     -48.067  25.667 -19.753  1.00  0.00     0.034 A
HETATM    2  C4  UNL     1     -47.303  25.129 -20.776  1.00  0.00     0.031 A
HETATM    3  C5  UNL     1     -47.900  24.977 -22.007  1.00  0.00     0.026 A
HETATM    4  C6  UNL     1     -49.208  25.336 -22.246  1.00  0.00     0.064 A
HETATM    5  C15 UNL     1     -49.936  25.868 -21.208  1.00  0.00     0.026 A
HETATM    6  C16 UNL     1     -49.382  26.044 -19.940  1.00  0.00     0.031 A
ENDROOT
BRANCH   1   7
HETATM    7  N2  UNL     1     -47.491  25.832 -18.493  1.00  0.00    -0.337 N
HETATM    8  C2  UNL     1     -47.557  25.077 -17.477  1.00  0.00     0.152 C
HETATM    9  N1  UNL     1     -48.222  23.854 -17.300  1.00  0.00    -0.302 N
HETATM   10  S2  UNL     1     -46.758  25.402 -15.916  1.00  0.00    -0.048 SA
HETATM   11  C1  UNL     1     -47.918  23.129 -16.163  1.00  0.00     0.264 C
ATOM     12  H1  UNL     1     -48.902  23.515 -17.981  1.00  0.00     0.171 HD
HETATM   13  O1  UNL     1     -48.443  21.995 -15.865  1.00  0.00    -0.267 OA
HETATM   14  C17 UNL     1     -46.935  23.718 -15.270  1.00  0.00     0.077 C
HETATM   15  C18 UNL     1     -46.325  23.193 -14.228  1.00  0.00     0.036 C
ATOM     16  H2  UNL     1     -46.939  26.681 -18.373  1.00  0.00     0.168 HD
BRANCH  15  17
HETATM   17  C19 UNL     1     -45.358  23.913 -13.429  1.00  0.00    -0.032 A
HETATM   18  C20 UNL     1     -44.021  23.791 -13.728  1.00  0.00     0.014 A
HETATM   19  C21 UNL     1     -43.036  24.461 -13.025  1.00  0.00     0.040 A
HETATM   20  C22 UNL     1     -43.410  25.285 -11.981  1.00  0.00     0.105 A
HETATM   21  C23 UNL     1     -44.748  25.432 -11.652  1.00  0.00     0.105 A
HETATM   22  O6  UNL     1     -42.657  26.067 -11.116  1.00  0.00    -0.323 OA
HETATM   23  C24 UNL     1     -45.717  24.740 -12.385  1.00  0.00     0.051 A
HETATM   24  O5  UNL     1     -44.783  26.312 -10.580  1.00  0.00    -0.323 OA
HETATM   25  C25 UNL     1     -43.507  26.843 -10.293  1.00  0.00     0.352 C
ENDBRANCH  15  17
ENDBRANCH   1   7
BRANCH   4  26
HETATM   26  S1  UNL     1     -49.921  25.123 -23.800  1.00  0.00     0.208 S
HETATM   27  O2  UNL     1     -51.345  25.662 -23.819  1.00  0.00    -0.217 OA
HETATM   28  O3  UNL     1     -49.162  25.850 -24.886  1.00  0.00    -0.217 OA
BRANCH  26  29
HETATM   29  C7  UNL     1     -50.011  23.450 -24.295  1.00  0.00     0.080 A
HETATM   30  C8  UNL     1     -48.948  22.835 -24.957  1.00  0.00     0.113 A
HETATM   31  N3  UNL     1     -49.031  21.549 -25.335  1.00  0.00    -0.350 N
HETATM   32  C9  UNL     1     -50.105  20.780 -25.112  1.00  0.00     0.118 A
ATOM     33  H3  UNL     1     -48.233  21.135 -25.818  1.00  0.00     0.166 HD
HETATM   34  N4  UNL     1     -50.204  19.485 -25.487  1.00  0.00    -0.309 N
HETATM   35  C13 UNL     1     -51.192  21.346 -24.455  1.00  0.00     0.010 A
HETATM   36  C10 UNL     1     -51.281  18.716 -25.266  1.00  0.00     0.246 A
ATOM     37  H4  UNL     1     -49.409  19.066 -25.970  1.00  0.00     0.170 HD
HETATM   38  O4  UNL     1     -51.261  17.534 -25.656  1.00  0.00    -0.268 OA
HETATM   39  C11 UNL     1     -52.395  19.241 -24.609  1.00  0.00     0.075 A
HETATM   40  C12 UNL     1     -52.294  20.564 -24.226  1.00  0.00     0.021 A
HETATM   41  C14 UNL     1     -51.125  22.676 -24.056  1.00  0.00     0.040 A
ENDBRANCH  26  29
ENDBRANCH   4  26
TORSDOF 4
ENDMDL