MODEL 5
REMARK VINA RESULT: -9.564182099      0.673      1.031
REMARK  7 active torsions:
REMARK  status: ('A' for Active; 'I' for Inactive)
REMARK    1  A    between atoms: C1_1  and  C23_35
REMARK    2  A    between atoms: C2_2  and  C3_3
REMARK    3  A    between atoms: C6_10  and  N3_11
REMARK    4  A    between atoms: C11_17  and  N4_18
REMARK    5  A    between atoms: N4_18  and  C12_20
REMARK    6  A    between atoms: C23_35  and  C24_36
REMARK    7  A    between atoms: C24_36  and  N7_37
ROOT
HETATM    1  C3  UNL     1     -44.024  24.178 -21.072  1.00  0.00     0.035 A
HETATM    2  C4  UNL     1     -44.604  23.046 -21.606  1.00  0.00     0.110 A
HETATM    3  N1  UNL     1     -45.236  22.142 -20.846  1.00  0.00    -0.349 N
ATOM      4  H1  UNL     1     -45.645  21.326 -21.302  1.00  0.00     0.167 HD
HETATM    5  C5  UNL     1     -45.361  22.258 -19.505  1.00  0.00     0.134 A
HETATM    6  N2  UNL     1     -46.002  21.333 -18.775  1.00  0.00    -0.324 N
ATOM      7  H2  UNL     1     -46.402  20.522 -19.246  1.00  0.00     0.169 HD
HETATM    8  C6  UNL     1     -46.134  21.446 -17.414  1.00  0.00     0.150 A
HETATM    9  C11 UNL     1     -45.578  22.550 -16.819  1.00  0.00     0.151 A
HETATM   10  N6  UNL     1     -44.917  23.496 -17.602  1.00  0.00    -0.336 N
ATOM     11  H6  UNL     1     -44.508  24.313 -17.147  1.00  0.00     0.168 HD
HETATM   12  C21 UNL     1     -44.800  23.374 -18.915  1.00  0.00     0.080 A
HETATM   13  C22 UNL     1     -44.145  24.307 -19.704  1.00  0.00     0.055 A
ENDROOT
BRANCH   1  14
HETATM   14  C2  UNL     1     -43.341  25.161 -21.873  1.00  0.00    -0.066 C
HETATM   15  C1  UNL     1     -42.755  25.990 -22.528  1.00  0.00    -0.099 C
BRANCH  15  16
HETATM   16  C23 UNL     1     -42.026  26.991 -23.308  1.00  0.00     0.114 C
BRANCH  16  17
HETATM   17  C24 UNL     1     -40.876  27.582 -22.506  1.00  0.00     0.142 C
BRANCH  17  18
HETATM   18  N7  UNL     1     -41.370  28.170 -21.268  1.00  0.00    -0.339 N
HETATM   19  C25 UNL     1     -42.008  29.337 -21.101  1.00  0.00     0.185 A
HETATM   20  N8  UNL     1     -42.299  29.516 -19.789  1.00  0.00    -0.337 N
HETATM   21  C26 UNL     1     -41.835  28.437 -19.096  1.00  0.00     0.133 A
ATOM     22  H8  UNL     1     -42.781  30.321 -19.388  1.00  0.00     0.168 HD
HETATM   23  N9  UNL     1     -41.727  27.885 -17.872  1.00  0.00    -0.350 N
HETATM   24  C29 UNL     1     -41.264  27.622 -20.051  1.00  0.00     0.081 A
HETATM   25  C27 UNL     1     -41.089  26.721 -18.055  1.00  0.00     0.092 A
ATOM     26  H9  UNL     1     -42.062  28.272 -16.990  1.00  0.00     0.166 HD
HETATM   27  C28 UNL     1     -40.788  26.521 -19.374  1.00  0.00     0.050 A
ENDBRANCH  17  18
ENDBRANCH  16  17
ENDBRANCH  15  16
ENDBRANCH   1  14
BRANCH   9  28
HETATM   28  N4  UNL     1     -45.590  22.772 -15.617  1.00  0.00    -0.339 N
ATOM     29  H4  UNL     1     -45.917  21.898 -15.205  1.00  0.00     0.167 HD
BRANCH  28  30
HETATM   30  C12 UNL     1     -45.396  23.569 -14.574  1.00  0.00     0.034 A
HETATM   31  C13 UNL     1     -46.426  24.406 -14.118  1.00  0.00     0.030 A
HETATM   32  C14 UNL     1     -46.263  25.250 -13.055  1.00  0.00     0.016 A
HETATM   33  C15 UNL     1     -45.059  25.290 -12.405  1.00  0.00    -0.010 A
HETATM   34  C16 UNL     1     -44.903  26.144 -11.331  1.00  0.00     0.099 A
HETATM   35  C19 UNL     1     -44.001  24.488 -12.806  1.00  0.00    -0.021 A
HETATM   36  N5  UNL     1     -43.717  26.177 -10.700  1.00  0.00    -0.374 N
HETATM   37  C17 UNL     1     -42.674  25.413 -11.064  1.00  0.00     0.088 A
ATOM     38  H5  UNL     1     -43.603  26.810  -9.908  1.00  0.00     0.164 HD
HETATM   39  C18 UNL     1     -42.802  24.559 -12.122  1.00  0.00     0.029 A
HETATM   40  C20 UNL     1     -44.196  23.653 -13.876  1.00  0.00     0.042 A
ENDBRANCH  28  30
ENDBRANCH   9  28
BRANCH   8  41
HETATM   41  N3  UNL     1     -46.851  20.433 -16.743  1.00  0.00    -0.360 N
HETATM   42  C7  UNL     1     -48.200  20.028 -16.986  1.00  0.00     0.151 C
HETATM   43  C8  UNL     1     -48.276  18.495 -17.050  1.00  0.00     0.187 C
HETATM   44  O1  UNL     1     -46.976  18.023 -17.175  1.00  0.00    -0.388 OA
HETATM   45  C9  UNL     1     -46.367  18.202 -15.904  1.00  0.00     0.187 C
HETATM   46  C10 UNL     1     -46.105  19.690 -15.694  1.00  0.00     0.151 C
ENDBRANCH   8  41
TORSDOF 7
ENDMDL