MODEL 3
REMARK VINA RESULT: -7.872599639     10.199     12.891
REMARK  7 active torsions:
REMARK  status: ('A' for Active; 'I' for Inactive)
REMARK    1  A    between atoms: C1_2  and  C2_4
REMARK    2  A    between atoms: C5_7  and  C6_8
REMARK    3  A    between atoms: C7_9  and  C8_10
REMARK    4  A    between atoms: N2_16  and  C12_17
REMARK    5  A    between atoms: C15_20  and  C16_21
REMARK       I    between atoms: C16_21  and  N3_23
REMARK    6  A    between atoms: N3_23  and  N4_25
REMARK    7  A    between atoms: C17_27  and  C18_28
ROOT
HETATM    1  C8  UNL     1     -47.900  26.557 -14.867  1.00  0.00     0.089 A
HETATM    2  C9  UNL     1     -47.039  25.723 -14.182  1.00  0.00     0.071 A
HETATM    3  C10 UNL     1     -45.786  25.397 -14.678  1.00  0.00     0.064 A
HETATM    4  N1  UNL     1     -44.792  24.626 -14.211  1.00  0.00    -0.350 N
ATOM      5  H1  UNL     1     -44.789  24.103 -13.336  1.00  0.00     0.166 HD
HETATM    6  C11 UNL     1     -43.795  24.672 -15.121  1.00  0.00     0.189 A
HETATM    7  N2  UNL     1     -44.149  25.459 -16.146  1.00  0.00    -0.304 N
HETATM    8  C27 UNL     1     -45.386  25.924 -15.899  1.00  0.00     0.082 A
HETATM    9  C28 UNL     1     -46.265  26.752 -16.557  1.00  0.00     0.121 A
HETATM   10  N5  UNL     1     -47.486  27.051 -16.044  1.00  0.00    -0.357 N
ATOM     11  H5  UNL     1     -48.106  27.670 -16.567  1.00  0.00     0.166 HD
ENDROOT
BRANCH   7  12
HETATM   12  C12 UNL     1     -43.336  25.726 -17.275  1.00  0.00     0.040 A
HETATM   13  C13 UNL     1     -42.135  26.411 -17.176  1.00  0.00     0.031 A
HETATM   14  C14 UNL     1     -41.362  26.658 -18.290  1.00  0.00     0.019 A
HETATM   15  C15 UNL     1     -41.722  26.250 -19.553  1.00  0.00     0.033 A
HETATM   16  C25 UNL     1     -42.936  25.560 -19.647  1.00  0.00     0.019 A
HETATM   17  C26 UNL     1     -43.711  25.311 -18.538  1.00  0.00     0.031 A
BRANCH  15  18
HETATM   18  C16 UNL     1     -40.943  26.488 -20.757  1.00  0.00     0.270 C
HETATM   19  O3  UNL     1     -41.167  25.807 -21.788  1.00  0.00    -0.266 OA
HETATM   20  N3  UNL     1     -39.906  27.467 -20.865  1.00  0.00    -0.266 N
ATOM     21  H3  UNL     1     -39.708  28.033 -20.041  1.00  0.00     0.190 HD
BRANCH  20  22
HETATM   22  N4  UNL     1     -39.172  27.703 -21.970  1.00  0.00    -0.308 N
HETATM   23  C17 UNL     1     -39.345  28.481 -22.930  1.00  0.00     0.118 C
ATOM     24  H4  UNL     1     -38.320  27.144 -22.033  1.00  0.00     0.186 HD
BRANCH  23  25
HETATM   25  C18 UNL     1     -40.391  29.424 -23.224  1.00  0.00    -0.017 A
HETATM   26  C19 UNL     1     -40.061  30.704 -23.687  1.00  0.00     0.016 A
HETATM   27  C20 UNL     1     -41.019  31.639 -23.983  1.00  0.00     0.040 A
HETATM   28  C21 UNL     1     -42.360  31.383 -23.843  1.00  0.00     0.105 A
HETATM   29  C22 UNL     1     -42.723  30.134 -23.390  1.00  0.00     0.105 A
HETATM   30  O5  UNL     1     -43.521  32.112 -24.059  1.00  0.00    -0.323 OA
HETATM   31  C23 UNL     1     -41.742  29.190 -23.093  1.00  0.00     0.052 A
HETATM   32  O4  UNL     1     -44.114  30.115 -23.334  1.00  0.00    -0.323 OA
HETATM   33  C24 UNL     1     -44.616  31.191 -24.097  1.00  0.00     0.352 C
ENDBRANCH  23  25
ENDBRANCH  20  22
ENDBRANCH  15  18
ENDBRANCH   7  12
BRANCH   1  34
HETATM   34  C7  UNL     1     -49.195  26.887 -14.343  1.00  0.00    -0.043 C
HETATM   35  C6  UNL     1     -50.287  27.180 -13.916  1.00  0.00    -0.060 C
BRANCH  35  36
HETATM   36  C5  UNL     1     -51.582  27.555 -13.405  1.00  0.00     0.018 A
HETATM   37  C4  UNL     1     -52.086  26.959 -12.265  1.00  0.00     0.022 A
HETATM   38  C3  UNL     1     -53.326  27.328 -11.787  1.00  0.00     0.020 A
HETATM   39  C2  UNL     1     -54.115  28.291 -12.407  1.00  0.00     0.040 A
HETATM   40  C30 UNL     1     -53.606  28.881 -13.542  1.00  0.00     0.020 A
HETATM   41  C29 UNL     1     -52.370  28.514 -14.019  1.00  0.00     0.022 A
BRANCH  39  42
HETATM   42  C1  UNL     1     -55.418  28.645 -11.862  1.00  0.00     0.209 C
HETATM   43  O1  UNL     1     -55.778  29.844 -11.802  1.00  0.00    -0.644 OA
HETATM   44  O2  UNL     1     -56.250  27.632 -11.414  1.00  0.00    -0.644 OA
ENDBRANCH  39  42
ENDBRANCH  35  36
ENDBRANCH   1  34
TORSDOF 7
ENDMDL