MODEL 4
REMARK VINA RESULT: -9.158125981      2.211      3.400
REMARK  7 active torsions:
REMARK  status: ('A' for Active; 'I' for Inactive)
REMARK    1  A    between atoms: C5_5  and  C6_6
REMARK    2  A    between atoms: C9_11  and  N2_12
REMARK    3  A    between atoms: N2_12  and  S1_14
REMARK    4  A    between atoms: S1_14  and  C10_17
REMARK    5  A    between atoms: C12_19  and  C13_20
REMARK    6  A    between atoms: C13_20  and  C14_21
REMARK    7  A    between atoms: C14_21  and  C15_22
REMARK       I    between atoms: C15_22  and  N3_24
ROOT
HETATM    1  S1  UNL     1     -49.063  21.856 -17.109  1.00  0.00     0.263 S
HETATM    2  O1  UNL     1     -48.118  20.781 -16.606  1.00  0.00    -0.200 OA
HETATM    3  O2  UNL     1     -50.449  21.350 -16.789  1.00  0.00    -0.200 OA
ENDROOT
BRANCH   1   4
HETATM    4  N2  UNL     1     -48.803  22.052 -18.775  1.00  0.00    -0.281 N
ATOM      5  H2  UNL     1     -49.598  22.037 -19.415  1.00  0.00     0.179 HD
BRANCH   4   6
HETATM    6  C9  UNL     1     -47.499  22.238 -19.284  1.00  0.00     0.044 A
HETATM    7  C8  UNL     1     -46.952  23.483 -19.480  1.00  0.00     0.062 A
HETATM    8  C7  UNL     1     -45.656  23.656 -19.992  1.00  0.00     0.062 A
HETATM    9  N1  UNL     1     -44.924  24.739 -20.265  1.00  0.00    -0.340 N
HETATM   10  C23 UNL     1     -44.891  22.558 -20.316  1.00  0.00     0.060 A
HETATM   11  C6  UNL     1     -43.728  24.379 -20.747  1.00  0.00     0.116 A
ATOM     12  H1  UNL     1     -45.232  25.701 -20.126  1.00  0.00     0.167 HD
HETATM   13  N6  UNL     1     -43.721  23.036 -20.774  1.00  0.00    -0.340 N
ATOM     14  H6  UNL     1     -42.941  22.463 -21.094  1.00  0.00     0.167 HD
HETATM   15  C22 UNL     1     -45.421  21.300 -20.128  1.00  0.00     0.034 A
HETATM   16  C21 UNL     1     -46.693  21.145 -19.625  1.00  0.00     0.032 A
BRANCH  11  17
HETATM   17  C5  UNL     1     -42.646  25.258 -21.162  1.00  0.00     0.008 A
HETATM   18  C4  UNL     1     -41.499  25.356 -20.406  1.00  0.00     0.016 A
HETATM   19  C3  UNL     1     -40.454  26.198 -20.799  1.00  0.00     0.007 A
HETATM   20  C2  UNL     1     -40.553  26.949 -21.952  1.00  0.00    -0.062 A
HETATM   21  C1  UNL     1     -39.451  27.862 -22.399  1.00  0.00     0.048 C
HETATM   22  C25 UNL     1     -41.710  26.835 -22.691  1.00  0.00     0.007 A
HETATM   23  C24 UNL     1     -42.748  26.001 -22.305  1.00  0.00     0.016 A
ENDBRANCH  11  17
ENDBRANCH   4   6
ENDBRANCH   1   4
BRANCH   1  24
HETATM   24  C10 UNL     1     -48.791  23.324 -16.211  1.00  0.00     0.083 A
HETATM   25  C11 UNL     1     -47.685  23.488 -15.400  1.00  0.00     0.048 A
HETATM   26  C12 UNL     1     -47.514  24.661 -14.711  1.00  0.00     0.049 A
HETATM   27  C18 UNL     1     -48.468  25.697 -14.830  1.00  0.00     0.086 A
HETATM   28  N4  UNL     1     -48.362  26.868 -14.184  1.00  0.00    -0.309 N
HETATM   29  C19 UNL     1     -49.561  25.557 -15.620  1.00  0.00     0.070 A
HETATM   30  S2  UNL     1     -49.719  27.728 -14.656  1.00  0.00     0.068 SA
ATOM     31  H4  UNL     1     -47.622  27.167 -13.548  1.00  0.00     0.176 HD
HETATM   32  N5  UNL     1     -50.400  26.583 -15.669  1.00  0.00    -0.310 N
ATOM     33  H5  UNL     1     -51.265  26.657 -16.204  1.00  0.00     0.176 HD
HETATM   34  C20 UNL     1     -49.708  24.338 -16.316  1.00  0.00     0.057 A
BRANCH  26  35
HETATM   35  C13 UNL     1     -46.351  24.782 -13.883  1.00  0.00    -0.054 C
BRANCH  35  36
HETATM   36  C14 UNL     1     -45.373  24.902 -13.185  1.00  0.00     0.000 C
BRANCH  36  37
HETATM   37  C15 UNL     1     -44.222  25.053 -12.338  1.00  0.00     0.298 C
HETATM   38  O3  UNL     1     -43.216  24.351 -12.600  1.00  0.00    -0.258 OA
HETATM   39  N3  UNL     1     -44.178  25.942 -11.248  1.00  0.00    -0.350 N
HETATM   40  C16 UNL     1     -42.985  26.033 -10.449  1.00  0.00     0.153 C
HETATM   41  C17 UNL     1     -45.324  26.751 -10.940  1.00  0.00     0.153 C
ENDBRANCH  36  37
ENDBRANCH  35  36
ENDBRANCH  26  35
ENDBRANCH   1  24
TORSDOF 7
ENDMDL