MODEL 4
REMARK VINA RESULT: -9.598225270      6.384     11.209
REMARK  4 active torsions:
REMARK  status: ('A' for Active; 'I' for Inactive)
REMARK    1  A    between atoms: C2_2  and  C17_28
REMARK    2  A    between atoms: N1_3  and  N2_5
REMARK       I    between atoms: N2_5  and  C3_7
REMARK    3  A    between atoms: C3_7  and  C4_9
REMARK    4  A    between atoms: N4_16  and  C9_17
ROOT
HETATM    1  N2  UNL     1     -48.720  23.515 -20.310  1.00  0.00    -0.266 N
ATOM      2  H2  UNL     1     -49.664  23.879 -20.175  1.00  0.00     0.190 HD
HETATM    3  C3  UNL     1     -48.244  23.293 -21.619  1.00  0.00     0.275 C
HETATM    4  O1  UNL     1     -47.056  22.826 -21.743  1.00  0.00    -0.266 OA
ENDROOT
BRANCH   1   5
HETATM    5  N1  UNL     1     -47.908  23.241 -19.175  1.00  0.00    -0.302 N
HETATM    6  C2  UNL     1     -48.343  22.594 -18.162  1.00  0.00     0.032 C
HETATM    7  C1  UNL     1     -49.733  22.093 -18.117  1.00  0.00     0.070 C
ATOM      8  H1  UNL     1     -46.944  23.573 -19.169  1.00  0.00     0.186 HD
BRANCH   6   9
HETATM    9  C17 UNL     1     -47.459  22.339 -17.049  1.00  0.00    -0.010 A
HETATM   10  C18 UNL     1     -46.810  21.125 -16.933  1.00  0.00     0.014 A
HETATM   11  C19 UNL     1     -45.994  20.891 -15.853  1.00  0.00     0.014 A
HETATM   12  C20 UNL     1     -45.823  21.861 -14.893  1.00  0.00    -0.009 A
HETATM   13  C21 UNL     1     -45.011  21.637 -13.796  1.00  0.00     0.017 A
HETATM   14  C28 UNL     1     -46.481  23.103 -15.003  1.00  0.00     0.055 A
HETATM   15  C22 UNL     1     -44.838  22.585 -12.831  1.00  0.00     0.050 A
HETATM   16  C23 UNL     1     -45.502  23.775 -12.989  1.00  0.00     0.115 A
HETATM   17  N6  UNL     1     -45.298  24.683 -11.997  1.00  0.00    -0.346 N
HETATM   18  N7  UNL     1     -46.319  24.065 -14.046  1.00  0.00    -0.263 N
HETATM   19  C24 UNL     1     -45.898  25.873 -12.051  1.00  0.00     0.012 A
ATOM     20  H6  UNL     1     -44.688  24.455 -11.214  1.00  0.00     0.167 HD
HETATM   21  C25 UNL     1     -45.693  26.891 -10.970  1.00  0.00     0.068 C
HETATM   22  C26 UNL     1     -46.721  26.177 -13.106  1.00  0.00     0.099 A
HETATM   23  C27 UNL     1     -46.932  25.238 -14.132  1.00  0.00     0.255 A
HETATM   24  O3  UNL     1     -47.679  25.564 -15.055  1.00  0.00    -0.268 OA
HETATM   25  C29 UNL     1     -47.294  23.327 -16.085  1.00  0.00     0.044 A
ENDBRANCH   6   9
ENDBRANCH   1   5
BRANCH   3  26
HETATM   26  C4  UNL     1     -49.038  23.568 -22.807  1.00  0.00     0.103 A
HETATM   27  C5  UNL     1     -50.035  22.634 -23.105  1.00  0.00     0.057 A
HETATM   28  C6  UNL     1     -50.844  22.843 -24.186  1.00  0.00     0.086 A
HETATM   29  C7  UNL     1     -50.649  23.986 -24.962  1.00  0.00     0.081 A
HETATM   30  N4  UNL     1     -51.860  22.136 -24.698  1.00  0.00    -0.255 N
HETATM   31  C8  UNL     1     -51.594  23.932 -25.962  1.00  0.00     0.139 A
HETATM   32  N5  UNL     1     -49.706  24.895 -24.701  1.00  0.00    -0.320 N
HETATM   33  N3  UNL     1     -52.287  22.825 -25.767  1.00  0.00    -0.302 N
ATOM     34  H3  UNL     1     -53.060  22.527 -26.363  1.00  0.00     0.186 HD
HETATM   35  C16 UNL     1     -48.911  24.665 -23.619  1.00  0.00     0.261 A
ATOM     36  H5  UNL     1     -49.587  25.722 -25.285  1.00  0.00     0.169 HD
HETATM   37  O2  UNL     1     -48.014  25.511 -23.361  1.00  0.00    -0.267 OA
BRANCH  30  38
HETATM   38  C9  UNL     1     -52.449  20.913 -24.267  1.00  0.00     0.057 A
HETATM   39  C10 UNL     1     -53.417  20.948 -23.263  1.00  0.00     0.032 A
HETATM   40  C11 UNL     1     -54.039  19.783 -22.839  1.00  0.00     0.009 A
HETATM   41  C12 UNL     1     -53.728  18.554 -23.384  1.00  0.00    -0.062 A
HETATM   42  C13 UNL     1     -54.402  17.296 -22.950  1.00  0.00     0.048 C
HETATM   43  C14 UNL     1     -52.763  18.505 -24.386  1.00  0.00     0.009 A
HETATM   44  C15 UNL     1     -52.150  19.681 -24.800  1.00  0.00     0.032 A
ENDBRANCH  30  38
ENDBRANCH   3  26
TORSDOF 4
ENDMDL