MODEL 4
REMARK VINA RESULT: -7.576053069      2.112      5.817
REMARK  5 active torsions:
REMARK  status: ('A' for Active; 'I' for Inactive)
REMARK    1  A    between atoms: C9_11  and  N2_12
REMARK    2  A    between atoms: C11_17  and  C12_18
REMARK    3  A    between atoms: C13_21  and  C14_22
REMARK    4  A    between atoms: C14_22  and  N4_23
REMARK    5  A    between atoms: C21_32  and  N5_33
ROOT
HETATM    1  C1  UNL     1     -44.652  21.752 -12.978  1.00  0.00     0.046 C
HETATM    2  C2  UNL     1     -44.668  23.242 -13.330  1.00  0.00     0.061 C
HETATM    3  C3  UNL     1     -45.777  23.854 -12.490  1.00  0.00     0.046 C
HETATM    4  C4  UNL     1     -43.342  23.807 -12.934  1.00  0.00     0.044 C
HETATM    5  C5  UNL     1     -42.969  25.066 -13.639  1.00  0.00     0.063 C
HETATM    6  C6  UNL     1     -43.275  25.032 -15.092  1.00  0.00     0.045 A
HETATM    7  N1  UNL     1     -42.616  25.773 -15.993  1.00  0.00    -0.359 N
ATOM      8  H1  UNL     1     -41.868  26.389 -15.677  1.00  0.00     0.165 HD
HETATM    9  C7  UNL     1     -42.917  25.727 -17.316  1.00  0.00     0.037 A
HETATM   10  C8  UNL     1     -43.898  24.938 -17.840  1.00  0.00     0.032 A
HETATM   11  C9  UNL     1     -44.583  24.171 -16.923  1.00  0.00     0.075 A
HETATM   12  C10 UNL     1     -44.272  24.220 -15.566  1.00  0.00     0.119 A
HETATM   13  O1  UNL     1     -44.984  23.434 -14.679  1.00  0.00    -0.337 OA
HETATM   14  C11 UNL     1     -43.947  25.134 -19.309  1.00  0.00     0.036 A
HETATM   15  C21 UNL     1     -43.023  26.016 -19.645  1.00  0.00     0.035 A
HETATM   16  C26 UNL     1     -42.307  26.506 -18.431  1.00  0.00     0.039 A
HETATM   17  C27 UNL     1     -42.619  27.947 -18.102  1.00  0.00     0.028 C
HETATM   18  C28 UNL     1     -40.851  26.181 -18.407  1.00  0.00     0.028 C
ENDROOT
BRANCH  14  19
HETATM   19  C12 UNL     1     -44.959  24.436 -20.113  1.00  0.00     0.087 A
HETATM   20  N3  UNL     1     -46.257  24.499 -20.144  1.00  0.00    -0.348 N
HETATM   21  C13 UNL     1     -46.943  23.796 -20.983  1.00  0.00     0.055 A
ATOM     22  H3  UNL     1     -46.743  25.115 -19.492  1.00  0.00     0.166 HD
HETATM   23  C20 UNL     1     -46.256  22.981 -21.844  1.00  0.00     0.082 A
HETATM   24  S1  UNL     1     -44.629  23.290 -21.371  1.00  0.00    -0.081 SA
BRANCH  21  25
HETATM   25  C14 UNL     1     -48.453  23.882 -20.987  1.00  0.00     0.120 C
BRANCH  25  26
HETATM   26  N4  UNL     1     -49.020  23.552 -19.763  1.00  0.00    -0.366 N
HETATM   27  C15 UNL     1     -49.974  24.381 -19.157  1.00  0.00     0.065 C
HETATM   28  C16 UNL     1     -49.309  25.161 -18.034  1.00  0.00     0.071 C
HETATM   29  C17 UNL     1     -49.142  24.205 -16.869  1.00  0.00     0.172 C
HETATM   30  O2  UNL     1     -48.338  23.138 -17.246  1.00  0.00    -0.389 OA
HETATM   31  C18 UNL     1     -49.107  22.137 -17.819  1.00  0.00     0.187 C
HETATM   32  C19 UNL     1     -48.983  22.191 -19.348  1.00  0.00     0.153 C
ENDBRANCH  25  26
ENDBRANCH  21  25
ENDBRANCH  14  19
BRANCH  15  33
HETATM   33  N5  UNL     1     -42.733  26.482 -20.968  1.00  0.00    -0.378 N
HETATM   34  C22 UNL     1     -43.430  27.536 -21.646  1.00  0.00     0.149 C
HETATM   35  C23 UNL     1     -42.457  28.710 -21.849  1.00  0.00     0.187 C
HETATM   36  O3  UNL     1     -41.130  28.270 -21.880  1.00  0.00    -0.388 OA
HETATM   37  C24 UNL     1     -41.070  27.084 -22.600  1.00  0.00     0.187 C
HETATM   38  C25 UNL     1     -41.642  25.913 -21.781  1.00  0.00     0.149 C
ENDBRANCH  15  33
BRANCH  11  39
HETATM   39  N2  UNL     1     -45.526  23.408 -17.271  1.00  0.00    -0.396 N
ATOM     40  H22 UNL     1     -46.469  23.671 -16.982  1.00  0.00     0.156 HD
ATOM     41  H21 UNL     1     -45.359  22.568 -17.825  1.00  0.00     0.156 HD
ENDBRANCH  11  39
TORSDOF 5
ENDMDL