MODEL 1
REMARK VINA RESULT: -9.375429930      0.000      0.000
REMARK  9 active torsions:
REMARK  status: ('A' for Active; 'I' for Inactive)
REMARK    1  A    between atoms: N1_2  and  C3_4
REMARK    2  A    between atoms: C3_4  and  O1_5
REMARK    3  A    between atoms: C3_4  and  C4_7
REMARK    4  A    between atoms: C4_7  and  C5_8
REMARK    5  A    between atoms: C5_8  and  C6_9
REMARK    6  A    between atoms: C9_12  and  O2_13
REMARK    7  A    between atoms: C10_15  and  C11_16
REMARK    8  A    between atoms: C15_25  and  N3_26
REMARK    9  A    between atoms: N3_26  and  C16_28
ROOT
HETATM    1  C11 UNL     1     -47.161  23.447 -15.625  1.00  0.00     0.097 C
HETATM    2  N2  UNL     1     -47.999  22.499 -15.889  1.00  0.00    -0.273 N
ATOM      3  H2  UNL     1     -48.960  22.576 -15.556  1.00  0.00     0.179 HD
HETATM    4  S1  UNL     1     -47.527  21.108 -16.790  1.00  0.00     0.265 S
HETATM    5  O3  UNL     1     -46.751  20.220 -15.853  1.00  0.00    -0.200 OA
HETATM    6  O4  UNL     1     -48.701  20.324 -17.270  1.00  0.00    -0.200 OA
HETATM    7  C12 UNL     1     -46.479  21.600 -18.072  1.00  0.00     0.097 A
HETATM    8  C13 UNL     1     -46.536  21.033 -19.349  1.00  0.00     0.029 A
HETATM    9  C14 UNL     1     -45.667  21.469 -20.326  1.00  0.00     0.031 A
HETATM   10  C15 UNL     1     -44.731  22.455 -20.098  1.00  0.00     0.035 A
HETATM   11  C22 UNL     1     -44.673  23.016 -18.839  1.00  0.00     0.050 A
HETATM   12  C23 UNL     1     -45.543  22.585 -17.846  1.00  0.00     0.032 A
HETATM   13  S2  UNL     1     -45.451  23.340 -16.205  1.00  0.00    -0.070 SA
ENDROOT
BRANCH   1  14
HETATM   14  C10 UNL     1     -47.595  24.606 -14.862  1.00  0.00     0.032 A
HETATM   15  C9  UNL     1     -48.795  25.223 -15.130  1.00  0.00     0.078 A
HETATM   16  C8  UNL     1     -49.238  26.319 -14.430  1.00  0.00     0.038 A
HETATM   17  C7  UNL     1     -48.425  26.793 -13.428  1.00  0.00     0.014 A
HETATM   18  C6  UNL     1     -47.205  26.202 -13.120  1.00  0.00    -0.035 A
HETATM   19  C24 UNL     1     -46.795  25.112 -13.838  1.00  0.00     0.028 A
BRANCH  15  20
HETATM   20  O2  UNL     1     -49.599  24.720 -16.153  1.00  0.00    -0.360 OA
ATOM     21  H2  UNL     1     -49.330  24.865 -17.052  1.00  0.00     0.217 HD
ENDBRANCH  15  20
BRANCH  18  22
HETATM   22  C5  UNL     1     -46.429  26.805 -12.026  1.00  0.00     0.015 C
BRANCH  22  23
HETATM   23  C4  UNL     1     -45.679  26.122 -11.217  1.00  0.00     0.056 C
BRANCH  23  24
HETATM   24  C3  UNL     1     -44.269  26.101 -11.005  1.00  0.00     0.137 C
BRANCH  24  25
HETATM   25  N1  UNL     1     -43.275  25.361 -11.631  1.00  0.00    -0.371 N
HETATM   26  C1  UNL     1     -41.980  25.098 -10.916  1.00  0.00     0.151 C
HETATM   27  C2  UNL     1     -43.397  24.808 -12.961  1.00  0.00     0.151 C
ENDBRANCH  24  25
BRANCH  24  28
HETATM   28  O1  UNL     1     -43.783  26.904 -10.068  1.00  0.00    -0.346 OA
ATOM     29  H1  UNL     1     -44.345  27.653  -9.910  1.00  0.00     0.219 HD
ENDBRANCH  24  28
ENDBRANCH  23  24
ENDBRANCH  22  23
ENDBRANCH  18  22
ENDBRANCH   1  14
BRANCH  10  30
HETATM   30  N3  UNL     1     -43.831  22.913 -21.092  1.00  0.00    -0.339 N
ATOM     31  H3  UNL     1     -43.389  22.232 -21.709  1.00  0.00     0.167 HD
BRANCH  30  32
HETATM   32  C16 UNL     1     -43.551  24.174 -21.243  1.00  0.00     0.151 A
HETATM   33  N4  UNL     1     -44.425  24.980 -21.870  1.00  0.00    -0.348 N
HETATM   34  C17 UNL     1     -44.123  26.284 -22.021  1.00  0.00     0.107 A
ATOM     35  H4  UNL     1     -45.305  24.609 -22.227  1.00  0.00     0.167 HD
HETATM   36  C18 UNL     1     -42.920  26.759 -21.525  1.00  0.00     0.115 A
HETATM   37  N5  UNL     1     -42.041  25.970 -20.898  1.00  0.00    -0.313 N
HETATM   38  C19 UNL     1     -40.845  26.232 -20.357  1.00  0.00     0.115 A
HETATM   39  C21 UNL     1     -42.354  24.664 -20.753  1.00  0.00     0.156 A
HETATM   40  C20 UNL     1     -40.375  25.050 -19.846  1.00  0.00     0.107 A
HETATM   41  N6  UNL     1     -41.311  24.118 -20.101  1.00  0.00    -0.347 N
ATOM     42  H6  UNL     1     -41.239  23.135 -19.838  1.00  0.00     0.167 HD
ENDBRANCH  30  32
ENDBRANCH  10  30
TORSDOF 9
ENDMDL