MODEL 4
REMARK VINA RESULT: -9.494666084      6.002     10.642
REMARK  7 active torsions:
REMARK  status: ('A' for Active; 'I' for Inactive)
REMARK    1  A    between atoms: C2_2  and  C3_3
REMARK    2  A    between atoms: C4_4  and  C5_5
REMARK    3  A    between atoms: N2_13  and  C10_14
REMARK    4  A    between atoms: C13_17  and  N3_18
REMARK    5  A    between atoms: C17_25  and  O2_26
REMARK    6  A    between atoms: O2_26  and  C18_27
REMARK    7  A    between atoms: C18_27  and  C19_29
ROOT
HETATM    1  C10 UNL     1     -45.286  22.792 -16.630  1.00  0.00     0.044 A
HETATM    2  C11 UNL     1     -44.029  23.339 -16.600  1.00  0.00     0.032 A
HETATM    3  C12 UNL     1     -43.535  23.914 -15.426  1.00  0.00     0.033 A
HETATM    4  C13 UNL     1     -44.289  23.946 -14.277  1.00  0.00     0.055 A
HETATM    5  C26 UNL     1     -45.543  23.391 -14.340  1.00  0.00     0.033 A
HETATM    6  C27 UNL     1     -46.052  22.817 -15.488  1.00  0.00     0.032 A
ENDROOT
BRANCH   4   7
HETATM    7  N3  UNL     1     -43.774  24.534 -13.090  1.00  0.00    -0.238 N
HETATM    8  N4  UNL     1     -42.562  24.372 -12.591  1.00  0.00    -0.014 NA
HETATM    9  N5  UNL     1     -42.428  25.067 -11.477  1.00  0.00    -0.281 N
HETATM   10  C14 UNL     1     -43.586  25.693 -11.253  1.00  0.00     0.074 A
ATOM     11  H5  UNL     1     -41.593  25.117 -10.893  1.00  0.00     0.184 HD
HETATM   12  C15 UNL     1     -44.060  26.553 -10.266  1.00  0.00     0.036 A
HETATM   13  C25 UNL     1     -44.435  25.353 -12.277  1.00  0.00     0.085 A
HETATM   14  C16 UNL     1     -45.347  27.036 -10.334  1.00  0.00     0.040 A
HETATM   15  C17 UNL     1     -46.213  26.703 -11.356  1.00  0.00     0.081 A
HETATM   16  C24 UNL     1     -45.745  25.852 -12.333  1.00  0.00     0.071 A
BRANCH  15  17
HETATM   17  O2  UNL     1     -47.508  27.226 -11.370  1.00  0.00    -0.275 OA
BRANCH  17  18
HETATM   18  C18 UNL     1     -47.956  28.068 -12.375  1.00  0.00     0.300 C
HETATM   19  O3  UNL     1     -49.075  27.815 -12.886  1.00  0.00    -0.259 OA
BRANCH  18  20
HETATM   20  C19 UNL     1     -47.156  29.220 -12.833  1.00  0.00     0.055 A
HETATM   21  C20 UNL     1     -46.469  30.024 -11.982  1.00  0.00     0.024 A
HETATM   22  C21 UNL     1     -45.740  31.085 -12.488  1.00  0.00     0.075 A
HETATM   23  C22 UNL     1     -45.711  31.329 -13.846  1.00  0.00     0.245 A
HETATM   24  O4  UNL     1     -45.028  32.316 -14.281  1.00  0.00    -0.268 OA
HETATM   25  N6  UNL     1     -46.397  30.524 -14.683  1.00  0.00    -0.333 N
HETATM   26  C23 UNL     1     -47.103  29.494 -14.184  1.00  0.00     0.108 A
ATOM     27  H6  UNL     1     -46.382  30.695 -15.688  1.00  0.00     0.168 HD
ENDBRANCH  18  20
ENDBRANCH  17  18
ENDBRANCH  15  17
ENDBRANCH   4   7
BRANCH   1  28
HETATM   28  N2  UNL     1     -45.786  22.210 -17.819  1.00  0.00    -0.262 N
HETATM   29  C9  UNL     1     -46.496  21.079 -17.908  1.00  0.00     0.332 A
HETATM   30  N1  UNL     1     -46.787  20.855 -19.203  1.00  0.00    -0.306 N
HETATM   31  O1  UNL     1     -46.876  20.294 -16.993  1.00  0.00    -0.246 OA
HETATM   32  C8  UNL     1     -46.245  21.867 -19.932  1.00  0.00     0.064 A
ATOM     33  H1  UNL     1     -47.319  20.067 -19.572  1.00  0.00     0.171 HD
HETATM   34  C7  UNL     1     -46.273  22.082 -21.300  1.00  0.00     0.033 A
HETATM   35  C28 UNL     1     -45.610  22.727 -19.054  1.00  0.00     0.072 A
HETATM   36  C6  UNL     1     -45.626  23.212 -21.759  1.00  0.00     0.023 A
HETATM   37  C5  UNL     1     -44.988  24.079 -20.896  1.00  0.00     0.020 A
HETATM   38  C29 UNL     1     -44.966  23.860 -19.544  1.00  0.00     0.053 A
BRANCH  37  39
HETATM   39  C4  UNL     1     -44.312  25.266 -21.391  1.00  0.00    -0.067 C
HETATM   40  C3  UNL     1     -43.733  26.241 -21.803  1.00  0.00    -0.101 C
BRANCH  40  41
HETATM   41  C2  UNL     1     -43.006  27.418 -22.308  1.00  0.00     0.090 C
HETATM   42  C1  UNL     1     -42.014  26.994 -23.396  1.00  0.00     0.018 C
ENDBRANCH  40  41
ENDBRANCH  37  39
ENDBRANCH   1  28
TORSDOF 7
ENDMDL