MODEL 2
REMARK VINA RESULT: -9.711685197      4.689     10.744
REMARK  4 active torsions:
REMARK  status: ('A' for Active; 'I' for Inactive)
REMARK    1  A    between atoms: C7_7  and  N1_8
REMARK    2  A    between atoms: N1_8  and  C8_10
REMARK    3  A    between atoms: C16_24  and  N5_25
REMARK    4  A    between atoms: C26_38  and  N7_39
ROOT
HETATM    1  C1  UNL     1     -56.291  29.528 -11.363  1.00  0.00     0.018 C
HETATM    2  C2  UNL     1     -55.318  29.325 -12.043  1.00  0.00    -0.078 C
HETATM    3  C3  UNL     1     -54.172  29.100 -12.869  1.00  0.00     0.019 A
HETATM    4  C4  UNL     1     -53.901  29.980 -13.888  1.00  0.00     0.021 A
HETATM    5  C5  UNL     1     -52.799  29.765 -14.685  1.00  0.00     0.004 A
HETATM    6  C6  UNL     1     -51.991  28.685 -14.459  1.00  0.00     0.029 A
HETATM    7  C7  UNL     1     -52.235  27.777 -13.441  1.00  0.00     0.035 A
HETATM    8  C29 UNL     1     -53.346  28.019 -12.659  1.00  0.00     0.050 A
ENDROOT
BRANCH   7   9
HETATM    9  N1  UNL     1     -51.371  26.681 -13.250  1.00  0.00    -0.342 N
ATOM     10  H1  UNL     1     -51.776  25.746 -13.202  1.00  0.00     0.167 HD
BRANCH   9  11
HETATM   11  C8  UNL     1     -50.091  26.803 -13.134  1.00  0.00     0.120 A
HETATM   12  N2  UNL     1     -49.507  27.563 -12.194  1.00  0.00    -0.338 N
HETATM   13  C9  UNL     1     -48.158  27.640 -12.128  1.00  0.00     0.183 A
ATOM     14  H2  UNL     1     -50.080  28.083 -11.530  1.00  0.00     0.168 HD
HETATM   15  N3  UNL     1     -47.355  26.985 -12.968  1.00  0.00    -0.338 N
HETATM   16  C10 UNL     1     -47.888  26.216 -13.921  1.00  0.00     0.120 A
ATOM     17  H3  UNL     1     -46.342  27.071 -12.883  1.00  0.00     0.168 HD
HETATM   18  N4  UNL     1     -47.093  25.541 -14.778  1.00  0.00    -0.339 N
HETATM   19  C28 UNL     1     -49.260  26.119 -14.011  1.00  0.00     0.055 A
HETATM   20  C11 UNL     1     -47.573  24.749 -15.756  1.00  0.00     0.077 A
ATOM     21  H4  UNL     1     -46.082  25.635 -14.681  1.00  0.00     0.167 HD
HETATM   22  C12 UNL     1     -46.630  24.064 -16.602  1.00  0.00    -0.005 A
HETATM   23  C26 UNL     1     -48.924  24.616 -15.897  1.00  0.00     0.131 A
HETATM   24  C13 UNL     1     -46.750  22.704 -16.790  1.00  0.00     0.014 A
HETATM   25  C25 UNL     1     -45.594  24.762 -17.231  1.00  0.00     0.044 A
HETATM   26  C14 UNL     1     -45.864  22.023 -17.588  1.00  0.00     0.003 A
HETATM   27  C15 UNL     1     -44.870  22.728 -18.185  1.00  0.00     0.030 A
HETATM   28  C16 UNL     1     -44.711  24.087 -18.025  1.00  0.00     0.046 A
HETATM   29  C27 UNL     1     -49.769  25.318 -15.001  1.00  0.00     0.057 A
BRANCH  28  30
HETATM   30  N5  UNL     1     -43.614  24.761 -18.693  1.00  0.00    -0.244 N
HETATM   31  C17 UNL     1     -42.371  25.155 -18.132  1.00  0.00     0.266 A
HETATM   32  O1  UNL     1     -41.997  25.000 -16.955  1.00  0.00    -0.267 OA
HETATM   33  C18 UNL     1     -41.580  25.791 -19.198  1.00  0.00     0.048 A
HETATM   34  C19 UNL     1     -40.306  26.351 -19.212  1.00  0.00     0.020 A
HETATM   35  C23 UNL     1     -42.303  25.792 -20.371  1.00  0.00     0.050 A
HETATM   36  C20 UNL     1     -39.779  26.891 -20.364  1.00  0.00     0.027 A
HETATM   37  C21 UNL     1     -40.496  26.897 -21.547  1.00  0.00     0.047 A
HETATM   38  N6  UNL     1     -39.887  27.467 -22.690  1.00  0.00    -0.102 NA
HETATM   39  C22 UNL     1     -41.749  26.342 -21.516  1.00  0.00     0.044 A
HETATM   40  C24 UNL     1     -43.574  25.150 -20.060  1.00  0.00     0.266 A
HETATM   41  O2  UNL     1     -44.512  24.961 -20.883  1.00  0.00    -0.267 OA
ENDBRANCH  28  30
BRANCH  23  42
HETATM   42  N7  UNL     1     -49.594  23.849 -16.877  1.00  0.00    -0.113 N
HETATM   43  O3  UNL     1     -50.119  22.754 -16.680  1.00  0.00    -0.532 OA
HETATM   44  O4  UNL     1     -49.632  24.343 -18.181  1.00  0.00    -0.532 OA
ENDBRANCH  23  42
ENDBRANCH   9  11
ENDBRANCH   7   9
TORSDOF 4
ENDMDL