MODEL 2
REMARK VINA RESULT: -8.805175858      3.251      4.194
REMARK  5 active torsions:
REMARK  status: ('A' for Active; 'I' for Inactive)
REMARK    1  A    between atoms: C6_9  and  N3_10
REMARK    2  A    between atoms: N3_10  and  C7_12
REMARK    3  A    between atoms: C12_17  and  S1_18
REMARK    4  A    between atoms: N5_28  and  C18_30
REMARK    5  A    between atoms: C21_33  and  C22_34
ROOT
HETATM    1  C1  UNL     1     -47.735  18.321 -18.484  1.00  0.00     0.089 C
HETATM    2  C2  UNL     1     -47.536  19.683 -17.874  1.00  0.00     0.079 A
HETATM    3  N1  UNL     1     -46.730  19.796 -16.801  1.00  0.00    -0.344 N
ATOM      4  H1  UNL     1     -46.273  18.964 -16.426  1.00  0.00     0.167 HD
HETATM    5  C3  UNL     1     -46.517  20.990 -16.215  1.00  0.00     0.073 A
HETATM    6  C4  UNL     1     -45.674  21.090 -15.101  1.00  0.00     0.116 A
HETATM    7  C5  UNL     1     -45.043  19.907 -14.592  1.00  0.00     0.105 C
HETATM    8  N2  UNL     1     -44.548  18.942 -14.202  1.00  0.00    -0.191 NA
HETATM    9  C6  UNL     1     -45.477  22.323 -14.527  1.00  0.00     0.129 A
HETATM   10  N4  UNL     1     -46.131  23.390 -15.096  1.00  0.00    -0.350 N
ATOM     11  H4  UNL     1     -45.996  24.312 -14.682  1.00  0.00     0.166 HD
HETATM   12  C15 UNL     1     -46.930  23.287 -16.155  1.00  0.00     0.107 A
HETATM   13  C16 UNL     1     -47.157  22.079 -16.762  1.00  0.00     0.052 A
HETATM   14  C17 UNL     1     -47.985  21.988 -17.858  1.00  0.00     0.121 A
HETATM   15  N5  UNL     1     -48.587  23.004 -18.372  1.00  0.00    -0.342 N
ATOM     16  H5  UNL     1     -48.457  23.930 -17.965  1.00  0.00     0.167 HD
HETATM   17  N8  UNL     1     -48.153  20.765 -18.391  1.00  0.00    -0.332 N
ATOM     18  H8  UNL     1     -48.760  20.654 -19.204  1.00  0.00     0.168 HD
ENDROOT
BRANCH   9  19
HETATM   19  N3  UNL     1     -44.774  22.578 -13.552  1.00  0.00    -0.341 N
ATOM     20  H3  UNL     1     -44.394  21.712 -13.167  1.00  0.00     0.167 HD
BRANCH  19  21
HETATM   21  C7  UNL     1     -44.331  23.645 -12.809  1.00  0.00     0.035 A
HETATM   22  C8  UNL     1     -42.988  23.790 -12.415  1.00  0.00     0.030 A
HETATM   23  C9  UNL     1     -42.599  24.866 -11.657  1.00  0.00     0.010 A
HETATM   24  C10 UNL     1     -43.494  25.833 -11.256  1.00  0.00    -0.040 A
HETATM   25  C11 UNL     1     -43.070  27.004 -10.429  1.00  0.00     0.049 C
HETATM   26  C12 UNL     1     -44.813  25.690 -11.642  1.00  0.00     0.067 A
HETATM   27  C14 UNL     1     -45.192  24.635 -12.386  1.00  0.00     0.053 A
BRANCH  26  28
HETATM   28  S1  UNL     1     -46.003  26.901 -11.156  1.00  0.00     0.172 S
HETATM   29  C13 UNL     1     -45.971  28.236 -12.327  1.00  0.00     0.167 C
HETATM   30  O1  UNL     1     -45.554  27.463  -9.840  1.00  0.00    -0.223 OA
HETATM   31  O2  UNL     1     -47.347  26.314 -10.973  1.00  0.00    -0.223 OA
ENDBRANCH  26  28
ENDBRANCH  19  21
ENDBRANCH   9  19
BRANCH  15  32
HETATM   32  C18 UNL     1     -49.429  22.840 -19.502  1.00  0.00     0.033 A
HETATM   33  C19 UNL     1     -48.921  23.022 -20.758  1.00  0.00     0.030 A
HETATM   34  C20 UNL     1     -49.706  22.872 -21.879  1.00  0.00     0.014 A
HETATM   35  C21 UNL     1     -51.037  22.532 -21.787  1.00  0.00    -0.023 A
HETATM   36  C26 UNL     1     -51.537  22.350 -20.503  1.00  0.00     0.014 A
HETATM   37  C27 UNL     1     -50.767  22.496 -19.378  1.00  0.00     0.030 A
BRANCH  35  38
HETATM   38  C22 UNL     1     -51.865  22.374 -22.962  1.00  0.00     0.005 A
HETATM   39  C23 UNL     1     -53.220  22.639 -22.957  1.00  0.00     0.102 A
HETATM   40  N6  UNL     1     -53.907  22.469 -24.077  1.00  0.00    -0.361 N
HETATM   41  C24 UNL     1     -53.339  22.050 -25.208  1.00  0.00     0.180 A
ATOM     42  H6  UNL     1     -54.908  22.666 -24.074  1.00  0.00     0.166 HD
HETATM   43  N7  UNL     1     -52.035  21.788 -25.230  1.00  0.00    -0.361 N
HETATM   44  C25 UNL     1     -51.301  21.943 -24.135  1.00  0.00     0.102 A
ATOM     45  H7  UNL     1     -51.597  21.467 -26.093  1.00  0.00     0.166 HD
ENDBRANCH  35  38
ENDBRANCH  15  32
TORSDOF 5
ENDMDL