MODEL 1
REMARK VINA RESULT: -8.630369001      0.000      0.000
REMARK  5 active torsions:
REMARK  status: ('A' for Active; 'I' for Inactive)
REMARK    1  A    between atoms: C2_2  and  C4_4
REMARK    2  A    between atoms: C9_9  and  C10_10
REMARK    3  A    between atoms: C19_19  and  O1_20
REMARK    4  A    between atoms: C19_19  and  C20_22
REMARK    5  A    between atoms: C20_22  and  O3_24
ROOT
HETATM    1  C4  UNL     1      14.071  -4.439  33.421  1.00  0.00     0.027 C
HETATM    2  C5  UNL     1      15.376  -4.829  32.785  1.00  0.00     0.019 C
HETATM    3  C6  UNL     1      15.565  -6.232  32.437  1.00  0.00     0.011 C
HETATM    4  C7  UNL     1      14.562  -7.282  32.738  1.00  0.00    -0.036 C
HETATM    5  C8  UNL     1      14.250  -7.880  31.338  1.00  0.00     0.016 C
HETATM    6  C9  UNL     1      15.070  -8.339  33.662  1.00  0.00    -0.003 C
HETATM    7  C13 UNL     1      14.094  -8.473  34.782  1.00  0.00     0.006 C
HETATM    8  C14 UNL     1      13.016  -7.442  34.607  1.00  0.00     0.006 C
HETATM    9  C15 UNL     1      13.219  -6.843  33.266  1.00  0.00    -0.001 C
HETATM   10  C16 UNL     1      13.059  -5.424  33.044  1.00  0.00     0.007 C
HETATM   11  C17 UNL     1      11.770  -4.769  33.465  1.00  0.00     0.010 C
HETATM   12  C18 UNL     1      11.982  -3.408  32.821  1.00  0.00     0.050 C
HETATM   13  C19 UNL     1      13.477  -3.202  32.693  1.00  0.00     0.157 C
ENDROOT
BRANCH  13  14
HETATM   14  O1  UNL     1      13.935  -2.044  33.332  1.00  0.00    -0.378 OA
ATOM     15  H1  UNL     1      13.337  -1.332  33.136  1.00  0.00     0.211 HD
ENDBRANCH  13  14
BRANCH  13  16
HETATM   16  C20 UNL     1      13.902  -3.082  31.286  1.00  0.00     0.294 C
HETATM   17  O2  UNL     1      14.768  -2.188  30.975  1.00  0.00    -0.262 OA
BRANCH  16  18
HETATM   18  O3  UNL     1      13.478  -3.827  30.209  1.00  0.00    -0.324 OA
HETATM   19  C21 UNL     1      12.695  -3.296  29.154  1.00  0.00     0.213 C
ENDBRANCH  16  18
ENDBRANCH  13  16
BRANCH   1  20
HETATM   20  C2  UNL     1      14.232  -4.081  34.814  1.00  0.00    -0.081 C
HETATM   21  C1  UNL     1      13.398  -4.159  35.818  1.00  0.00     0.015 C
HETATM   22  C3  UNL     1      15.606  -3.571  35.242  1.00  0.00     0.043 C
ENDBRANCH   1  20
BRANCH   6  23
HETATM   23  C10 UNL     1      15.319  -9.689  33.025  1.00  0.00    -0.018 C
HETATM   24  C11 UNL     1      14.486 -10.738  33.796  1.00  0.00     0.010 C
HETATM   25  C12 UNL     1      16.748 -10.156  33.159  1.00  0.00     0.010 C
ENDBRANCH   6  23
TORSDOF 5
ENDMDL