MODEL 1
REMARK VINA RESULT: -9.348751384      0.000      0.000
REMARK  4 active torsions:
REMARK  status: ('A' for Active; 'I' for Inactive)
REMARK    1  A    between atoms: C4_4  and  C5_5
REMARK    2  A    between atoms: C5_5  and  C6_6
REMARK    3  A    between atoms: C12_12  and  O1_13
REMARK    4  A    between atoms: C16_18  and  C17_19
ROOT
HETATM    1  C6  UNL     1      15.188  -9.463  33.399  1.00  0.00     0.033 C
HETATM    2  C7  UNL     1      14.913 -10.691  34.238  1.00  0.00    -0.007 C
HETATM    3  C8  UNL     1      15.794 -10.740  35.478  1.00  0.00     0.011 C
HETATM    4  C9  UNL     1      13.505 -10.885  34.653  1.00  0.00    -0.012 C
HETATM    5  C10 UNL     1      12.548 -11.098  33.526  1.00  0.00     0.010 C
HETATM    6  C11 UNL     1      13.148  -9.646  35.482  1.00  0.00     0.039 C
HETATM    7  C12 UNL     1      13.157  -8.521  34.512  1.00  0.00     0.156 C
HETATM    8  C13 UNL     1      14.505  -8.238  33.873  1.00  0.00     0.126 C
HETATM    9  C14 UNL     1      14.176  -7.272  32.742  1.00  0.00     0.047 C
HETATM   10  C15 UNL     1      14.258  -5.833  33.112  1.00  0.00     0.039 C
HETATM   11  C16 UNL     1      14.974  -5.519  34.383  1.00  0.00     0.168 C
HETATM   12  O2  UNL     1      14.753  -6.510  35.305  1.00  0.00    -0.234 OA
HETATM   13  O3  UNL     1      15.286  -7.620  34.846  1.00  0.00    -0.226 OA
ENDROOT
BRANCH   1  14
HETATM   14  C5  UNL     1      16.695  -9.392  33.309  1.00  0.00     0.035 C
BRANCH  14  15
HETATM   15  C4  UNL     1      17.238  -9.318  31.941  1.00  0.00    -0.024 C
HETATM   16  C2  UNL     1      17.692 -10.401  31.340  1.00  0.00    -0.091 C
HETATM   17  C1  UNL     1      18.237 -10.299  29.953  1.00  0.00     0.042 C
HETATM   18  C3  UNL     1      17.660 -11.702  32.029  1.00  0.00     0.042 C
ENDBRANCH  14  15
ENDBRANCH   1  14
BRANCH   7  19
HETATM   19  O1  UNL     1      12.613  -7.404  35.084  1.00  0.00    -0.392 OA
ATOM     20  H1  UNL     1      13.272  -6.724  35.162  1.00  0.00     0.210 HD
ENDBRANCH   7  19
BRANCH  11  21
HETATM   21  C17 UNL     1      14.773  -4.145  34.919  1.00  0.00    -0.022 C
HETATM   22  C18 UNL     1      14.017  -4.153  36.226  1.00  0.00     0.017 C
HETATM   23  C19 UNL     1      16.026  -3.353  35.046  1.00  0.00     0.017 C
HETATM   24  C20 UNL     1      13.834  -3.435  33.924  1.00  0.00     0.017 C
ENDBRANCH  11  21
TORSDOF 4
ENDMDL