MODEL 1
REMARK VINA RESULT: -10.986049691      0.000      0.000
REMARK  3 active torsions:
REMARK  status: ('A' for Active; 'I' for Inactive)
REMARK    1  A    between atoms: O1_2  and  C2_3
REMARK    2  A    between atoms: C12_13  and  C14_15
REMARK    3  A    between atoms: C14_15  and  O2_16
ROOT
HETATM    1  C2  UNL     1      13.080 -10.278  33.824  1.00  0.00     0.259 C
HETATM    2  C3  UNL     1      13.944 -11.234  34.601  1.00  0.00     0.061 C
HETATM    3  C4  UNL     1      14.666 -10.531  35.700  1.00  0.00     0.006 C
HETATM    4  C5  UNL     1      15.742  -9.616  35.253  1.00  0.00     0.012 C
HETATM    5  C6  UNL     1      15.423  -8.687  34.162  1.00  0.00    -0.013 C
HETATM    6  C7  UNL     1      16.078  -9.043  32.844  1.00  0.00     0.018 C
HETATM    7  C8  UNL     1      15.792  -7.245  34.565  1.00  0.00     0.003 C
HETATM    8  C9  UNL     1      16.180  -6.444  33.389  1.00  0.00     0.006 C
HETATM    9  C10 UNL     1      15.585  -5.042  33.397  1.00  0.00     0.007 C
HETATM   10  C11 UNL     1      14.094  -5.057  33.610  1.00  0.00     0.004 C
HETATM   11  C12 UNL     1      13.535  -3.702  33.484  1.00  0.00    -0.018 C
HETATM   12  C13 UNL     1      12.239  -3.721  32.657  1.00  0.00     0.018 C
HETATM   13  C15 UNL     1      13.390  -2.895  34.716  1.00  0.00     0.012 C
HETATM   14  C16 UNL     1      13.462  -3.594  36.011  1.00  0.00     0.002 C
HETATM   15  C17 UNL     1      14.162  -4.899  36.028  1.00  0.00     0.010 C
HETATM   16  C18 UNL     1      13.750  -5.787  34.866  1.00  0.00    -0.033 C
HETATM   17  C19 UNL     1      12.243  -6.082  34.917  1.00  0.00     0.016 C
HETATM   18  C20 UNL     1      14.403  -7.095  35.035  1.00  0.00     0.029 C
HETATM   19  C21 UNL     1      14.012  -8.204  34.084  1.00  0.00     0.138 C
HETATM   20  O3  UNL     1      13.057  -9.067  34.511  1.00  0.00    -0.355 OA
ENDROOT
BRANCH  11  21
HETATM   21  C14 UNL     1      14.482  -2.907  32.557  1.00  0.00     0.173 C
BRANCH  21  22
HETATM   22  O2  UNL     1      14.634  -1.660  33.210  1.00  0.00    -0.400 OA
ATOM     23  H2  UNL     1      14.046  -1.081  32.740  1.00  0.00     0.209 HD
ENDBRANCH  21  22
ENDBRANCH  11  21
BRANCH   1  24
HETATM   24  O1  UNL     1      11.741 -10.717  33.773  1.00  0.00    -0.366 OA
HETATM   25  C1  UNL     1      11.637 -12.040  34.194  1.00  0.00     0.204 C
ENDBRANCH   1  24
TORSDOF 3
ENDMDL