MODEL 5
REMARK VINA RESULT: -8.876602123      2.343      6.207
REMARK  3 active torsions:
REMARK  status: ('A' for Active; 'I' for Inactive)
REMARK    1  A    between atoms: C2_2  and  O1_4
REMARK    2  A    between atoms: O1_4  and  C4_5
REMARK    3  A    between atoms: C4_5  and  C5_7
ROOT
HETATM    1  C5  UNL     1      14.303  -6.817  32.673  1.00  0.00     0.103 C
HETATM    2  C6  UNL     1      15.440  -6.597  31.689  1.00  0.00     0.016 C
HETATM    3  C7  UNL     1      14.941  -6.885  30.307  1.00  0.00     0.001 C
HETATM    4  C8  UNL     1      15.952  -6.674  29.232  1.00  0.00     0.000 C
HETATM    5  C9  UNL     1      17.326  -7.159  29.535  1.00  0.00     0.000 C
HETATM    6  C10 UNL     1      17.582  -8.563  29.041  1.00  0.00     0.000 C
HETATM    7  C11 UNL     1      17.212  -9.635  29.993  1.00  0.00     0.000 C
HETATM    8  C12 UNL     1      18.402 -10.109  30.816  1.00  0.00     0.000 C
HETATM    9  C13 UNL     1      18.100 -11.363  31.567  1.00  0.00     0.000 C
HETATM   10  C14 UNL     1      16.727 -11.392  32.184  1.00  0.00     0.000 C
HETATM   11  C15 UNL     1      16.616 -10.495  33.400  1.00  0.00     0.000 C
HETATM   12  C16 UNL     1      15.497 -10.992  34.264  1.00  0.00     0.009 C
HETATM   13  C17 UNL     1      14.138 -10.839  33.643  1.00  0.00     0.103 C
HETATM   14  C18 UNL     1      13.403  -9.701  34.249  1.00  0.00     0.217 C
HETATM   15  O3  UNL     1      13.235  -9.723  35.497  1.00  0.00    -0.274 OA
HETATM   16  N1  UNL     1      12.888  -8.606  33.502  1.00  0.00    -0.360 N
ATOM     17  H1  UNL     1      12.019  -8.171  33.812  1.00  0.00     0.162 HD
HETATM   18  C19 UNL     1      13.545  -8.080  32.318  1.00  0.00     0.137 C
ENDROOT
BRANCH   1  19
HETATM   19  C4  UNL     1      13.435  -5.651  32.827  1.00  0.00     0.265 C
HETATM   20  O2  UNL     1      12.393  -5.553  32.130  1.00  0.00    -0.265 OA
BRANCH  19  21
HETATM   21  O1  UNL     1      13.664  -4.604  33.704  1.00  0.00    -0.316 OA
BRANCH  21  22
HETATM   22  C2  UNL     1      13.105  -4.471  34.970  1.00  0.00     0.123 C
HETATM   23  C1  UNL     1      12.267  -5.632  35.411  1.00  0.00     0.040 C
HETATM   24  C3  UNL     1      14.185  -4.276  36.033  1.00  0.00     0.040 C
ENDBRANCH  21  22
ENDBRANCH  19  21
ENDBRANCH   1  19
TORSDOF 3
ENDMDL