MODEL 4
REMARK VINA RESULT: -8.643652314      2.352      4.770
REMARK  3 active torsions:
REMARK  status: ('A' for Active; 'I' for Inactive)
REMARK    1  A    between atoms: C2_2  and  C4_4
REMARK    2  A    between atoms: C21_22  and  O2_23
REMARK    3  A    between atoms: O2_23  and  O3_24
ROOT
HETATM    1  C4  UNL     1      13.851  -4.075  30.226  1.00  0.00     0.072 C
HETATM    2  C5  UNL     1      13.623  -5.463  30.688  1.00  0.00     0.020 C
HETATM    3  C6  UNL     1      14.732  -6.129  31.431  1.00  0.00     0.005 C
HETATM    4  C7  UNL     1      16.024  -6.020  30.678  1.00  0.00     0.040 C
HETATM    5  C8  UNL     1      16.414  -4.968  31.657  1.00  0.00    -0.077 C
HETATM    6  C9  UNL     1      17.389  -4.076  31.572  1.00  0.00     0.015 C
HETATM    7  C10 UNL     1      15.320  -5.398  32.587  1.00  0.00     0.013 C
HETATM    8  C11 UNL     1      15.898  -6.343  33.585  1.00  0.00     0.017 C
HETATM    9  C12 UNL     1      15.024  -7.241  34.331  1.00  0.00     0.002 C
HETATM   10  C13 UNL     1      13.570  -6.996  34.409  1.00  0.00     0.005 C
HETATM   11  C14 UNL     1      13.136  -5.890  35.317  1.00  0.00    -0.014 C
HETATM   12  C15 UNL     1      11.808  -5.319  34.884  1.00  0.00     0.010 C
HETATM   13  C16 UNL     1      14.174  -4.844  35.560  1.00  0.00    -0.009 C
HETATM   14  C17 UNL     1      13.639  -4.025  36.757  1.00  0.00     0.011 C
HETATM   15  C18 UNL     1      14.426  -3.892  34.472  1.00  0.00     0.016 C
HETATM   16  C19 UNL     1      15.618  -3.023  34.908  1.00  0.00     0.013 C
HETATM   17  C20 UNL     1      14.459  -4.331  33.080  1.00  0.00     0.142 C
HETATM   18  O1  UNL     1      14.729  -3.194  32.292  1.00  0.00    -0.351 OA
HETATM   19  C21 UNL     1      13.805  -3.017  31.266  1.00  0.00     0.305 C
ENDROOT
BRANCH   1  20
HETATM   20  C2  UNL     1      12.854  -3.750  29.168  1.00  0.00    -0.084 C
HETATM   21  C1  UNL     1      12.917  -4.230  27.919  1.00  0.00     0.014 C
HETATM   22  C3  UNL     1      11.696  -2.816  29.428  1.00  0.00     0.043 C
ENDBRANCH   1  20
BRANCH  19  23
HETATM   23  O2  UNL     1      14.102  -1.772  30.735  1.00  0.00    -0.210 OA
BRANCH  23  24
HETATM   24  O3  UNL     1      15.028  -1.135  31.455  1.00  0.00    -0.248 OA
ATOM     25  H3  UNL     1      15.777  -0.887  30.926  1.00  0.00     0.253 HD
ENDBRANCH  23  24
ENDBRANCH  19  23
TORSDOF 3
ENDMDL