MODEL 3
REMARK VINA RESULT: -9.124014403      3.738      7.451
REMARK  2 active torsions:
REMARK  status: ('A' for Active; 'I' for Inactive)
REMARK    1  A    between atoms: C1_2  and  C2_4
REMARK    2  A    between atoms: C2_4  and  C3_5
ROOT
HETATM    1  C3  UNL     1      15.408  -3.471  32.439  1.00  0.00     0.095 C
HETATM    2  C4  UNL     1      14.955  -4.682  33.189  1.00  0.00     0.015 C
HETATM    3  C5  UNL     1      13.824  -4.294  34.148  1.00  0.00     0.001 C
HETATM    4  C6  UNL     1      12.748  -5.373  34.145  1.00  0.00     0.000 C
HETATM    5  C7  UNL     1      12.957  -6.235  35.342  1.00  0.00     0.000 C
HETATM    6  C8  UNL     1      12.931  -7.711  35.041  1.00  0.00     0.000 C
HETATM    7  C9  UNL     1      13.938  -8.121  34.009  1.00  0.00     0.000 C
HETATM    8  C10 UNL     1      13.826  -9.623  33.828  1.00  0.00     0.000 C
HETATM    9  C11 UNL     1      15.041 -10.315  34.446  1.00  0.00     0.000 C
HETATM   10  C12 UNL     1      15.836 -11.021  33.366  1.00  0.00     0.000 C
HETATM   11  C13 UNL     1      16.847 -10.089  32.716  1.00  0.00     0.000 C
HETATM   12  C14 UNL     1      16.378  -9.687  31.352  1.00  0.00     0.000 C
HETATM   13  C15 UNL     1      17.528  -9.240  30.459  1.00  0.00     0.000 C
HETATM   14  C16 UNL     1      18.161  -8.005  31.022  1.00  0.00     0.002 C
HETATM   15  C17 UNL     1      17.768  -6.749  30.275  1.00  0.00     0.027 C
HETATM   16  C18 UNL     1      16.752  -5.923  31.069  1.00  0.00     0.178 C
HETATM   17  O3  UNL     1      17.145  -4.585  31.091  1.00  0.00    -0.321 OA
HETATM   18  C19 UNL     1      16.824  -3.640  32.032  1.00  0.00     0.263 C
HETATM   19  O4  UNL     1      17.679  -2.897  32.575  1.00  0.00    -0.265 OA
ENDROOT
BRANCH   1  20
HETATM   20  C2  UNL     1      14.507  -3.218  31.248  1.00  0.00     0.128 C
BRANCH  20  21
HETATM   21  C1  UNL     1      14.191  -1.790  31.092  1.00  0.00     0.173 C
HETATM   22  O1  UNL     1      14.963  -0.957  31.629  1.00  0.00    -0.648 OA
HETATM   23  O2  UNL     1      13.092  -1.369  30.386  1.00  0.00    -0.648 OA
ENDBRANCH  20  21
ENDBRANCH   1  20
TORSDOF 2
ENDMDL