MODEL 1
REMARK VINA RESULT: -9.458064251      0.000      0.000
REMARK  3 active torsions:
REMARK  status: ('A' for Active; 'I' for Inactive)
REMARK    1  A    between atoms: C2_2  and  C4_4
REMARK    2  A    between atoms: C13_13  and  O1_14
REMARK    3  A    between atoms: O1_14  and  C14_15
ROOT
HETATM    1  C4  UNL     1      14.376  -8.609  34.311  1.00  0.00     0.059 C
HETATM    2  C5  UNL     1      13.189  -7.729  34.329  1.00  0.00     0.013 C
HETATM    3  C6  UNL     1      13.284  -6.441  35.050  1.00  0.00     0.007 C
HETATM    4  C7  UNL     1      14.566  -5.724  35.044  1.00  0.00     0.005 C
HETATM    5  C8  UNL     1      15.745  -6.490  34.525  1.00  0.00     0.060 C
HETATM    6  C9  UNL     1      16.024  -6.354  33.082  1.00  0.00     0.013 C
HETATM    7  C10 UNL     1      15.098  -5.526  32.282  1.00  0.00     0.006 C
HETATM    8  C11 UNL     1      14.549  -4.312  32.952  1.00  0.00    -0.004 C
HETATM    9  C12 UNL     1      13.155  -4.066  32.356  1.00  0.00     0.038 C
HETATM   10  C13 UNL     1      12.507  -2.843  32.913  1.00  0.00     0.135 C
HETATM   11  C15 UNL     1      13.318  -2.273  34.054  1.00  0.00     0.033 C
HETATM   12  C16 UNL     1      13.534  -3.428  35.038  1.00  0.00     0.012 C
HETATM   13  C17 UNL     1      14.554  -4.333  34.432  1.00  0.00    -0.036 C
HETATM   14  C18 UNL     1      15.891  -3.709  34.888  1.00  0.00     0.016 C
HETATM   15  C19 UNL     1      15.534  -7.918  34.974  1.00  0.00     0.136 C
HETATM   16  O4  UNL     1      16.222  -8.470  35.790  1.00  0.00    -0.297 OA
ENDROOT
BRANCH  10  17
HETATM   17  O1  UNL     1      12.361  -1.804  31.933  1.00  0.00    -0.290 OA
BRANCH  17  18
HETATM   18  C14 UNL     1      13.324  -1.585  30.960  1.00  0.00     0.333 C
HETATM   19  O2  UNL     1      12.936  -1.745  29.755  1.00  0.00    -0.624 OA
HETATM   20  O3  UNL     1      14.629  -1.214  31.270  1.00  0.00    -0.624 OA
ENDBRANCH  17  18
ENDBRANCH  10  17
BRANCH   1  21
HETATM   21  C2  UNL     1      14.174  -9.953  34.966  1.00  0.00    -0.011 C
HETATM   22  C1  UNL     1      12.763 -10.230  35.347  1.00  0.00     0.010 C
HETATM   23  C3  UNL     1      14.650 -11.066  34.065  1.00  0.00     0.010 C
ENDBRANCH   1  21
TORSDOF 3
ENDMDL