MODEL 4
REMARK VINA RESULT: -8.765379869      2.954      6.047
REMARK  3 active torsions:
REMARK  status: ('A' for Active; 'I' for Inactive)
REMARK    1  A    between atoms: C2_2  and  C3_3
REMARK    2  A    between atoms: C14_15  and  O1_16
REMARK    3  A    between atoms: C14_15  and  C15_18
ROOT
HETATM    1  C3  UNL     1      14.594  -4.408  33.929  1.00  0.00     0.020 C
HETATM    2  S1  UNL     1      13.217  -3.674  32.939  1.00  0.00    -0.157 SA
HETATM    3  C4  UNL     1      14.653  -2.703  32.480  1.00  0.00     0.085 C
HETATM    4  C5  UNL     1      15.531  -3.878  32.941  1.00  0.00    -0.018 C
HETATM    5  C6  UNL     1      16.883  -3.392  33.416  1.00  0.00     0.018 C
HETATM    6  C7  UNL     1      15.736  -4.738  31.718  1.00  0.00     0.012 C
HETATM    7  C8  UNL     1      14.849  -5.932  31.620  1.00  0.00     0.007 C
HETATM    8  C9  UNL     1      15.055  -6.684  32.902  1.00  0.00    -0.000 C
HETATM    9  C10 UNL     1      14.472  -5.914  34.022  1.00  0.00     0.010 C
HETATM   10  C11 UNL     1      15.138  -6.452  35.286  1.00  0.00     0.007 C
HETATM   11  C12 UNL     1      15.340  -7.954  35.205  1.00  0.00     0.009 C
HETATM   12  C13 UNL     1      14.309  -8.508  34.301  1.00  0.00     0.035 C
HETATM   13  C14 UNL     1      14.030  -9.974  34.488  1.00  0.00     0.115 C
HETATM   14  C16 UNL     1      13.274 -10.572  33.356  1.00  0.00     0.045 C
HETATM   15  C17 UNL     1      12.796  -9.703  32.286  1.00  0.00     0.004 C
HETATM   16  C18 UNL     1      13.353  -8.352  32.132  1.00  0.00     0.010 C
HETATM   17  C19 UNL     1      14.633  -8.112  32.887  1.00  0.00    -0.033 C
HETATM   18  C20 UNL     1      15.735  -8.919  32.271  1.00  0.00     0.016 C
ENDROOT
BRANCH  13  19
HETATM   19  O1  UNL     1      13.262 -10.048  35.681  1.00  0.00    -0.382 OA
ATOM     20  H1  UNL     1      13.902 -10.158  36.375  1.00  0.00     0.211 HD
ENDBRANCH  13  19
BRANCH  13  21
HETATM   21  C15 UNL     1      15.280 -10.721  34.803  1.00  0.00     0.269 C
HETATM   22  O2  UNL     1      15.418 -11.328  35.850  1.00  0.00    -0.304 OA
ENDBRANCH  13  21
BRANCH   1  23
HETATM   23  C2  UNL     1      14.499  -3.874  35.306  1.00  0.00     0.017 C
HETATM   24  C1  UNL     1      13.171  -3.848  35.969  1.00  0.00     0.006 C
ENDBRANCH   1  23
TORSDOF 3
ENDMDL