MODEL 5
REMARK VINA RESULT: -8.360806260      5.147      6.665
REMARK  4 active torsions:
REMARK  status: ('A' for Active; 'I' for Inactive)
REMARK    1  A    between atoms: C7_7  and  N1_8
REMARK    2  A    between atoms: N1_8  and  C8_10
REMARK    3  A    between atoms: C10_13  and  C11_14
REMARK    4  A    between atoms: C11_14  and  N3_18
ROOT
HETATM    1  C8  UNL     1      13.630  -7.708  33.364  1.00  0.00     0.113 A
HETATM    2  S1  UNL     1      13.562  -7.732  31.681  1.00  0.00    -0.076 SA
HETATM    3  C9  UNL     1      14.702  -6.607  31.032  1.00  0.00     0.075 A
HETATM    4  C10 UNL     1      15.371  -5.985  32.067  1.00  0.00     0.057 A
HETATM    5  S2  UNL     1      14.827  -6.551  33.603  1.00  0.00    -0.061 SA
ENDROOT
BRANCH   1   6
HETATM    6  N1  UNL     1      12.972  -8.369  34.183  1.00  0.00    -0.374 N
ATOM      7  H1  UNL     1      12.024  -8.034  34.358  1.00  0.00     0.161 HD
BRANCH   6   8
HETATM    8  C7  UNL     1      13.357  -9.531  34.912  1.00  0.00     0.086 C
HETATM    9  C5  UNL     1      12.506 -10.738  34.623  1.00  0.00     0.004 C
HETATM   10  C4  UNL     1      12.733 -11.319  33.262  1.00  0.00     0.007 C
HETATM   11  C6  UNL     1      12.751 -11.762  35.702  1.00  0.00     0.012 C
HETATM   12  C3  UNL     1      14.098 -11.056  32.713  1.00  0.00     0.005 C
HETATM   13  C2  UNL     1      15.124 -10.954  33.828  1.00  0.00    -0.017 C
HETATM   14  C1  UNL     1      16.472 -10.731  33.176  1.00  0.00     0.010 C
HETATM   15  C17 UNL     1      14.821  -9.781  34.714  1.00  0.00     0.029 C
ENDBRANCH   6   8
ENDBRANCH   1   6
BRANCH   4  16
HETATM   16  C11 UNL     1      16.406  -4.974  31.930  1.00  0.00     0.114 C
HETATM   17  N2  UNL     1      17.377  -5.170  31.140  1.00  0.00    -0.384 N
ATOM     18  H22 UNL     1      17.403  -6.045  30.616  1.00  0.00     0.157 HD
ATOM     19  H21 UNL     1      18.104  -4.461  31.045  1.00  0.00     0.157 HD
BRANCH  16  20
HETATM   20  N3  UNL     1      16.370  -3.749  32.665  1.00  0.00    -0.367 N
HETATM   21  C12 UNL     1      17.241  -3.503  33.790  1.00  0.00     0.124 C
HETATM   22  C13 UNL     1      16.507  -2.610  34.763  1.00  0.00     0.020 C
HETATM   23  C14 UNL     1      15.039  -3.011  34.732  1.00  0.00     0.003 C
HETATM   24  C15 UNL     1      14.415  -2.575  33.418  1.00  0.00     0.020 C
HETATM   25  C16 UNL     1      15.435  -2.696  32.295  1.00  0.00     0.124 C
ENDBRANCH  16  20
ENDBRANCH   4  16
TORSDOF 4
ENDMDL