MODEL 5
REMARK VINA RESULT: -8.094795567      2.286      4.570
REMARK  16 active torsions:
REMARK  status: ('A' for Active; 'I' for Inactive)
REMARK    1  A    between atoms: C2_2  and  O1_3
REMARK    2  A    between atoms: O1_3  and  C3_4
REMARK       I    between atoms: C3_4  and  N1_6
REMARK    3  A    between atoms: N1_6  and  C4_8
REMARK    4  A    between atoms: C4_8  and  C5_9
REMARK    5  A    between atoms: C4_8  and  C6_12
REMARK    6  A    between atoms: C6_12  and  O5_13
REMARK    7  A    between atoms: C6_12  and  O6_15
REMARK    8  A    between atoms: O6_15  and  C7_16
REMARK    9  A    between atoms: C8_18  and  O8_19
REMARK   10  A    between atoms: C8_18  and  C9_21
REMARK   11  A    between atoms: C9_21  and  O9_22
REMARK   12  A    between atoms: C10_24  and  N2_25
REMARK   13  A    between atoms: C13_30  and  N4_31
REMARK   14  A    between atoms: N4_31  and  N5_32
REMARK       I    between atoms: N4_31  and  C14_35
REMARK       I    between atoms: C14_35  and  N6_36
REMARK       I    between atoms: C14_35  and  N7_40
REMARK   15  A    between atoms: C15_46  and  N9_47
REMARK   16  A    between atoms: C17_54  and  C18_55
ROOT
HETATM    1  C7  UNL     1      57.113  41.466  56.400  1.00  0.00     0.306 C
HETATM    2  O7  UNL     1      58.160  42.175  55.755  1.00  0.00    -0.316 OA
HETATM    3  C8  UNL     1      59.000  42.543  56.841  1.00  0.00     0.233 C
HETATM    4  C10 UNL     1      58.315  43.680  57.490  1.00  0.00     0.311 C
HETATM    5  O10 UNL     1      56.895  43.633  57.388  1.00  0.00    -0.338 OA
HETATM    6  C17 UNL     1      56.372  42.367  57.305  1.00  0.00     0.280 C
ENDROOT
BRANCH   4   7
HETATM    7  N2  UNL     1      58.571  44.984  56.852  1.00  0.00    -0.240 N
HETATM    8  N3  UNL     1      59.430  45.911  57.215  1.00  0.00    -0.304 N
HETATM    9  C11 UNL     1      59.447  46.890  56.271  1.00  0.00     0.126 A
ATOM     10  H3  UNL     1      59.992  45.897  58.067  1.00  0.00     0.186 HD
HETATM   11  C12 UNL     1      58.544  46.523  55.302  1.00  0.00     0.073 A
HETATM   12  C13 UNL     1      58.148  47.125  54.109  1.00  0.00     0.156 A
HETATM   13  C16 UNL     1      58.005  45.319  55.689  1.00  0.00     0.155 A
HETATM   14  N8  UNL     1      57.222  46.492  53.371  1.00  0.00    -0.174 N
HETATM   15  C15 UNL     1      56.678  45.299  53.754  1.00  0.00     0.679 A
ATOM     16  H8  UNL     1      56.915  46.916  52.495  1.00  0.00     0.186 HD
HETATM   17  N10 UNL     1      57.084  44.749  54.896  1.00  0.00    -0.174 N
ATOM     18  H10 UNL     1      56.679  43.857  55.179  1.00  0.00     0.186 HD
BRANCH  12  19
HETATM   19  N4  UNL     1      58.810  48.295  53.648  1.00  0.00    -0.227 N
HETATM   20  C14 UNL     1      58.185  49.580  53.921  1.00  0.00     0.502 C
HETATM   21  N6  UNL     1      57.853  49.725  55.317  1.00  0.00    -0.031 N
HETATM   22  N7  UNL     1      56.974  49.714  53.164  1.00  0.00    -0.031 N
ATOM     23  H63 UNL     1      57.273  48.952  55.644  1.00  0.00     0.279 HD
ATOM     24  H62 UNL     1      58.668  49.574  55.911  1.00  0.00     0.279 HD
ATOM     25  H61 UNL     1      57.416  50.626  55.508  1.00  0.00     0.279 HD
ATOM     26  H73 UNL     1      57.130  49.571  52.167  1.00  0.00     0.279 HD
ATOM     27  H72 UNL     1      56.334  48.937  53.330  1.00  0.00     0.279 HD
ATOM     28  H71 UNL     1      56.536  50.615  53.355  1.00  0.00     0.279 HD
BRANCH  19  29
HETATM   29  N5  UNL     1      59.987  48.230  52.944  1.00  0.00    -0.338 N
ATOM     30  H52 UNL     1      60.190  47.424  52.353  1.00  0.00     0.177 HD
ATOM     31  H51 UNL     1      60.691  48.965  53.007  1.00  0.00     0.177 HD
ENDBRANCH  19  29
ENDBRANCH  12  19
BRANCH  15  32
HETATM   32  N9  UNL     1      55.807  44.656  53.071  1.00  0.00    -0.234 N
ATOM     33  H92 UNL     1      56.116  43.799  52.612  1.00  0.00     0.174 HD
ATOM     34  H91 UNL     1      54.841  44.958  52.948  1.00  0.00     0.174 HD
ENDBRANCH  15  32
ENDBRANCH   4   7
BRANCH   3  35
HETATM   35  O8  UNL     1      58.998  41.477  57.756  1.00  0.00    -0.360 OA
ATOM     36  H8  UNL     1      59.882  41.390  58.095  1.00  0.00     0.213 HD
ENDBRANCH   3  35
BRANCH   3  37
HETATM   37  C9  UNL     1      60.363  42.764  56.291  1.00  0.00     0.237 C
BRANCH  37  38
HETATM   38  O9  UNL     1      60.223  42.837  54.884  1.00  0.00    -0.395 OA
ATOM     39  H9  UNL     1      61.086  43.032  54.536  1.00  0.00     0.209 HD
ENDBRANCH  37  38
ENDBRANCH   3  37
BRANCH   6  40
HETATM   40  C18 UNL     1      54.956  42.518  56.830  1.00  0.00     0.208 C
HETATM   41  O11 UNL     1      54.022  41.942  57.434  1.00  0.00    -0.646 OA
HETATM   42  O12 UNL     1      54.673  43.308  55.708  1.00  0.00    -0.646 OA
ENDBRANCH   6  40
BRANCH   1  43
HETATM   43  O6  UNL     1      56.388  40.924  55.297  1.00  0.00    -0.326 OA
BRANCH  43  44
HETATM   44  C6  UNL     1      57.103  40.866  54.089  1.00  0.00     0.293 C
BRANCH  44  45
HETATM   45  C4  UNL     1      57.969  39.834  53.573  1.00  0.00     0.242 C
BRANCH  45  46
HETATM   46  N1  UNL     1      59.383  40.217  53.697  1.00  0.00    -0.318 N
HETATM   47  C3  UNL     1      60.206  39.570  54.580  1.00  0.00     0.361 C
HETATM   48  O2  UNL     1      59.758  38.661  55.369  1.00  0.00    -0.238 OA
ATOM     49  H1  UNL     1      59.754  40.972  53.121  1.00  0.00     0.165 HD
BRANCH  47  50
HETATM   50  O1  UNL     1      61.582  39.829  54.653  1.00  0.00    -0.304 OA
BRANCH  50  51
HETATM   51  C2  UNL     1      62.336  38.940  55.495  1.00  0.00     0.176 C
HETATM   52  C1  UNL     1      62.820  39.815  56.676  1.00  0.00     0.034 C
ENDBRANCH  50  51
ENDBRANCH  47  50
ENDBRANCH  45  46
BRANCH  45  53
HETATM   53  C5  UNL     1      57.871  40.126  51.976  1.00  0.00     0.201 C
HETATM   54  O3  UNL     1      56.999  39.731  51.349  1.00  0.00    -0.646 OA
HETATM   55  O4  UNL     1      58.970  40.878  51.553  1.00  0.00    -0.646 OA
ENDBRANCH  45  53
ENDBRANCH  44  45
BRANCH  44  56
HETATM   56  O5  UNL     1      56.936  41.946  53.351  1.00  0.00    -0.368 OA
ATOM     57  H5  UNL     1      56.935  41.837  52.408  1.00  0.00     0.212 HD
ENDBRANCH  44  56
ENDBRANCH  43  44
ENDBRANCH   1  43
TORSDOF 16
ENDMDL