MODEL 3
REMARK VINA RESULT: -8.444742111      1.760      2.389
REMARK  18 active torsions:
REMARK  status: ('A' for Active; 'I' for Inactive)
REMARK    1  A    between atoms: C2_2  and  O1_4
REMARK    2  A    between atoms: C2_2  and  C4_6
REMARK    3  A    between atoms: N1_8  and  C6_9
REMARK    4  A    between atoms: C7_10  and  N2_11
REMARK    5  A    between atoms: C8_15  and  O2_16
REMARK    6  A    between atoms: C9_18  and  N3_19
REMARK    7  A    between atoms: C10_22  and  C11_23
REMARK       I    between atoms: C11_23  and  N5_25
REMARK       I    between atoms: N5_25  and  C12_27
REMARK    8  A    between atoms: C14_35  and  N10_36
REMARK    9  A    between atoms: N10_36  and  C15_37
REMARK   10  A    between atoms: N10_36  and  C17_41
REMARK   11  A    between atoms: C15_37  and  C16_38
REMARK   12  A    between atoms: C16_38  and  O4_39
REMARK   13  A    between atoms: C17_41  and  C18_42
REMARK   14  A    between atoms: C18_42  and  O5_43
REMARK   15  A    between atoms: C19_45  and  O6_46
REMARK   16  A    between atoms: C20_48  and  O7_49
REMARK   17  A    between atoms: C21_51  and  N11_52
REMARK   18  A    between atoms: N11_52  and  N12_54
ROOT
HETATM    1  C11 UNL     1      57.759  48.512  53.674  1.00  0.00     0.293 C
HETATM    2  O3  UNL     1      58.645  48.855  52.838  1.00  0.00    -0.264 OA
HETATM    3  N5  UNL     1      56.465  49.045  53.594  1.00  0.00    -0.294 N
ATOM      4  H5  UNL     1      55.789  48.743  54.295  1.00  0.00     0.172 HD
HETATM    5  C12 UNL     1      56.027  49.961  52.626  1.00  0.00     0.204 C
HETATM    6  N6  UNL     1      56.905  50.378  51.577  1.00  0.00    -0.062 NA
HETATM    7  N7  UNL     1      54.811  50.448  52.623  1.00  0.00    -0.267 N
ATOM      8  H7  UNL     1      54.131  50.173  53.331  1.00  0.00     0.180 HD
HETATM    9  C13 UNL     1      54.478  51.355  51.617  1.00  0.00     0.184 C
HETATM   10  N8  UNL     1      54.183  52.110  50.798  1.00  0.00    -0.172 NA
ENDROOT
BRANCH   1  11
HETATM   11  C10 UNL     1      58.108  47.549  54.733  1.00  0.00     0.204 A
HETATM   12  N4  UNL     1      57.956  46.237  54.786  1.00  0.00    -0.263 N
HETATM   13  N3  UNL     1      58.380  45.753  55.968  1.00  0.00    -0.112 N
ATOM     14  H4  UNL     1      57.570  45.668  54.033  1.00  0.00     0.189 HD
HETATM   15  C14 UNL     1      58.813  46.787  56.685  1.00  0.00     0.699 A
HETATM   16  N9  UNL     1      58.642  47.916  55.904  1.00  0.00    -0.168 N
ATOM     17  H9  UNL     1      58.882  48.869  56.176  1.00  0.00     0.186 HD
BRANCH  13  18
HETATM   18  C9  UNL     1      58.335  44.365  56.334  1.00  0.00     0.188 C
HETATM   19  C8  UNL     1      58.429  43.523  55.047  1.00  0.00     0.178 C
HETATM   20  C7  UNL     1      58.010  42.112  55.346  1.00  0.00     0.240 C
HETATM   21  C6  UNL     1      58.445  41.586  56.653  1.00  0.00     0.171 C
HETATM   22  C20 UNL     1      59.328  42.448  57.477  1.00  0.00     0.175 C
HETATM   23  C19 UNL     1      59.478  43.871  57.146  1.00  0.00     0.177 C
BRANCH  19  24
HETATM   24  O2  UNL     1      59.713  43.497  54.536  1.00  0.00    -0.391 OA
ATOM     25  H2  UNL     1      59.781  44.161  53.861  1.00  0.00     0.210 HD
ENDBRANCH  19  24
BRANCH  20  26
HETATM   26  N2  UNL     1      58.570  41.294  54.279  1.00  0.00    -0.070 N
ATOM     27  H23 UNL     1      59.590  41.324  54.266  1.00  0.00     0.274 HD
ATOM     28  H22 UNL     1      58.456  40.296  54.458  1.00  0.00     0.274 HD
ATOM     29  H21 UNL     1      58.165  41.573  53.386  1.00  0.00     0.274 HD
ENDBRANCH  20  26
BRANCH  21  30
HETATM   30  N1  UNL     1      59.137  40.283  56.512  1.00  0.00    -0.181 N
HETATM   31  C5  UNL     1      58.531  39.083  56.480  1.00  0.00     0.138 A
HETATM   32  C4  UNL     1      59.504  38.133  56.314  1.00  0.00     0.076 A
HETATM   33  N13 UNL     1      60.702  38.736  56.247  1.00  0.00    -0.190 N
HETATM   34  C21 UNL     1      60.443  40.043  56.371  1.00  0.00     0.699 A
ATOM     35  H13 UNL     1      61.613  38.293  56.126  1.00  0.00     0.184 HD
BRANCH  32  36
HETATM   36  C2  UNL     1      59.347  36.648  56.206  1.00  0.00     0.094 C
HETATM   37  C1  UNL     1      58.299  36.262  55.215  1.00  0.00     0.052 C
HETATM   38  C3  UNL     1      60.670  35.997  55.847  1.00  0.00     0.052 C
BRANCH  36  39
HETATM   39  O1  UNL     1      58.990  36.150  57.467  1.00  0.00    -0.384 OA
ATOM     40  H1  UNL     1      59.245  36.778  58.132  1.00  0.00     0.211 HD
ENDBRANCH  36  39
ENDBRANCH  32  36
BRANCH  34  41
HETATM   41  N11 UNL     1      61.438  41.082  56.355  1.00  0.00    -0.138 N
ATOM     42  H11 UNL     1      61.827  41.468  57.216  1.00  0.00     0.205 HD
BRANCH  41  43
HETATM   43  N12 UNL     1      61.841  41.531  55.101  1.00  0.00    -0.331 N
ATOM     44 2H12 UNL     1      62.456  42.340  55.008  1.00  0.00     0.177 HD
ATOM     45 1H12 UNL     1      61.490  41.011  54.298  1.00  0.00     0.177 HD
ENDBRANCH  41  43
ENDBRANCH  34  41
ENDBRANCH  21  30
BRANCH  22  46
HETATM   46  O7  UNL     1      58.985  42.330  58.847  1.00  0.00    -0.391 OA
ATOM     47  H7  UNL     1      59.160  41.449  59.154  1.00  0.00     0.210 HD
ENDBRANCH  22  46
BRANCH  23  48
HETATM   48  O6  UNL     1      60.717  44.163  56.551  1.00  0.00    -0.391 OA
ATOM     49  H6  UNL     1      60.731  45.028  56.158  1.00  0.00     0.210 HD
ENDBRANCH  23  48
ENDBRANCH  13  18
BRANCH  15  50
HETATM   50  N10 UNL     1      59.333  46.901  57.982  1.00  0.00    -0.212 N
BRANCH  50  51
HETATM   51  C15 UNL     1      58.385  46.925  59.077  1.00  0.00     0.167 C
BRANCH  51  52
HETATM   52  C16 UNL     1      59.004  46.579  60.415  1.00  0.00     0.184 C
BRANCH  52  53
HETATM   53  O4  UNL     1      57.938  46.576  61.331  1.00  0.00    -0.399 OA
ATOM     54  H4  UNL     1      57.907  45.693  61.680  1.00  0.00     0.209 HD
ENDBRANCH  52  53
ENDBRANCH  51  52
ENDBRANCH  50  51
BRANCH  50  55
HETATM   55  C17 UNL     1      60.714  47.039  58.282  1.00  0.00     0.167 C
BRANCH  55  56
HETATM   56  C18 UNL     1      61.653  47.401  57.200  1.00  0.00     0.184 C
BRANCH  56  57
HETATM   57  O5  UNL     1      62.366  46.341  56.720  1.00  0.00    -0.399 OA
ATOM     58  H5  UNL     1      62.867  46.543  55.939  1.00  0.00     0.209 HD
ENDBRANCH  56  57
ENDBRANCH  55  56
ENDBRANCH  50  55
ENDBRANCH  15  50
ENDBRANCH   1  11
TORSDOF 18
ENDMDL