MODEL 3
REMARK VINA RESULT: -9.323917665      1.283      1.315
REMARK  16 active torsions:
REMARK  status: ('A' for Active; 'I' for Inactive)
REMARK       I    between atoms: C2_2  and  N1_4
REMARK    1  A    between atoms: N1_4  and  C3_6
REMARK    2  A    between atoms: C5_9  and  O3_10
REMARK    3  A    between atoms: C6_12  and  N2_13
REMARK    4  A    between atoms: C10_22  and  N6_23
REMARK    5  A    between atoms: C12_29  and  O4_30
REMARK    6  A    between atoms: C13_32  and  N8_33
REMARK    7  A    between atoms: C15_35  and  C16_36
REMARK    8  A    between atoms: C16_36  and  N9_37
REMARK    9  A    between atoms: N9_37  and  C17_39
REMARK   10  A    between atoms: C17_39  and  O5_40
REMARK   11  A    between atoms: C17_39  and  C18_42
REMARK   12  A    between atoms: C18_42  and  O6_43
REMARK   13  A    between atoms: C18_42  and  C19_45
REMARK   14  A    between atoms: C19_45  and  C20_47
REMARK   15  A    between atoms: C20_47  and  O8_48
REMARK   16  A    between atoms: C20_47  and  O9_50
ROOT
HETATM    1  C3  UNL     1      58.752  41.174  57.175  1.00  0.00     0.250 C
HETATM    2  O2  UNL     1      59.468  41.850  56.250  1.00  0.00    -0.362 OA
HETATM    3  C4  UNL     1      59.579  43.195  56.386  1.00  0.00     0.204 C
HETATM    4  C5  UNL     1      58.511  43.902  55.578  1.00  0.00     0.168 C
HETATM    5  C6  UNL     1      57.396  42.867  55.372  1.00  0.00     0.154 C
HETATM    6  C12 UNL     1      56.751  42.644  56.690  1.00  0.00     0.173 C
HETATM    7  C13 UNL     1      57.490  41.808  57.662  1.00  0.00     0.188 C
ENDROOT
BRANCH   7   8
HETATM    8  N8  UNL     1      57.663  42.504  58.921  1.00  0.00    -0.276 N
HETATM    9  C14 UNL     1      58.510  43.489  59.229  1.00  0.00     0.140 A
HETATM   10  C15 UNL     1      58.356  43.874  60.541  1.00  0.00     0.061 A
HETATM   11  N10 UNL     1      57.363  43.056  61.002  1.00  0.00    -0.287 N
HETATM   12  N11 UNL     1      56.968  42.246  60.008  1.00  0.00    -0.240 N
ATOM     13  H10 UNL     1      56.983  43.061  61.949  1.00  0.00     0.188 HD
ATOM     14  H11 UNL     1      56.238  41.537  60.084  1.00  0.00     0.208 HD
BRANCH  10  15
HETATM   15  C16 UNL     1      59.079  44.926  61.310  1.00  0.00     0.176 C
BRANCH  15  16
HETATM   16  N9  UNL     1      60.315  45.187  60.636  1.00  0.00    -0.389 N
ATOM     17  H9  UNL     1      60.802  44.474  60.093  1.00  0.00     0.156 HD
BRANCH  16  18
HETATM   18  C17 UNL     1      60.817  46.516  60.778  1.00  0.00     0.250 C
BRANCH  18  19
HETATM   19  O5  UNL     1      59.815  47.414  61.066  1.00  0.00    -0.374 OA
ATOM     20  H5  UNL     1      60.124  48.123  61.619  1.00  0.00     0.212 HD
ENDBRANCH  18  19
BRANCH  18  21
HETATM   21  C18 UNL     1      61.677  46.969  59.615  1.00  0.00     0.240 C
BRANCH  21  22
HETATM   22  O6  UNL     1      62.088  48.289  59.768  1.00  0.00    -0.383 OA
ATOM     23  H6  UNL     1      61.346  48.878  59.848  1.00  0.00     0.210 HD
ENDBRANCH  21  22
BRANCH  21  24
HETATM   24  C19 UNL     1      60.894  46.858  58.362  1.00  0.00     0.213 C
HETATM   25  O7  UNL     1      59.687  46.813  58.427  1.00  0.00    -0.290 OA
BRANCH  24  26
HETATM   26  C20 UNL     1      61.566  46.804  57.051  1.00  0.00     0.328 C
BRANCH  26  27
HETATM   27  O8  UNL     1      62.239  48.000  56.842  1.00  0.00    -0.365 OA
ATOM     28  H8  UNL     1      62.826  47.897  56.103  1.00  0.00     0.213 HD
ENDBRANCH  26  27
BRANCH  26  29
HETATM   29  O9  UNL     1      62.464  45.715  56.987  1.00  0.00    -0.365 OA
ATOM     30  H9  UNL     1      63.289  45.930  57.405  1.00  0.00     0.213 HD
ENDBRANCH  26  29
ENDBRANCH  24  26
ENDBRANCH  21  24
ENDBRANCH  18  21
ENDBRANCH  16  18
ENDBRANCH  15  16
ENDBRANCH  10  15
ENDBRANCH   7   8
BRANCH   1  31
HETATM   31  N1  UNL     1      58.467  39.839  56.658  1.00  0.00    -0.333 N
HETATM   32  C2  UNL     1      59.395  38.791  56.664  1.00  0.00     0.215 C
HETATM   33  C1  UNL     1      59.016  37.466  56.117  1.00  0.00     0.117 C
HETATM   34  O1  UNL     1      60.566  38.950  57.131  1.00  0.00    -0.274 OA
ATOM     35  H1  UNL     1      57.540  39.660  56.271  1.00  0.00     0.165 HD
ENDBRANCH   1  31
BRANCH   6  36
HETATM   36  O4  UNL     1      55.441  42.172  56.435  1.00  0.00    -0.391 OA
ATOM     37  H4  UNL     1      54.892  42.478  57.148  1.00  0.00     0.210 HD
ENDBRANCH   6  36
BRANCH   5  38
HETATM   38  N2  UNL     1      56.449  43.353  54.369  1.00  0.00    -0.317 N
HETATM   39  C7  UNL     1      55.755  44.503  54.385  1.00  0.00     0.185 A
HETATM   40  N3  UNL     1      54.994  44.580  53.282  1.00  0.00    -0.346 N
HETATM   41  C8  UNL     1      55.180  43.485  52.534  1.00  0.00     0.120 A
ATOM     42  H3  UNL     1      54.370  45.353  53.050  1.00  0.00     0.167 HD
HETATM   43  C9  UNL     1      54.670  43.047  51.331  1.00  0.00     0.162 A
HETATM   44  C11 UNL     1      56.095  42.728  53.230  1.00  0.00     0.155 A
HETATM   45  N4  UNL     1      53.730  43.786  50.577  1.00  0.00    -0.080 NA
HETATM   46  N5  UNL     1      55.078  41.864  50.840  1.00  0.00    -0.177 N
HETATM   47  C10 UNL     1      55.981  41.095  51.506  1.00  0.00     0.678 A
ATOM     48  H5  UNL     1      54.704  41.536  49.950  1.00  0.00     0.185 HD
HETATM   49  N7  UNL     1      56.451  41.544  52.659  1.00  0.00    -0.174 N
ATOM     50  H7  UNL     1      57.127  40.963  53.153  1.00  0.00     0.186 HD
BRANCH  47  51
HETATM   51  N6  UNL     1      56.374  39.961  51.042  1.00  0.00    -0.234 N
ATOM     52  H62 UNL     1      55.929  39.096  51.349  1.00  0.00     0.174 HD
ATOM     53  H61 UNL     1      57.132  39.895  50.362  1.00  0.00     0.174 HD
ENDBRANCH  47  51
ENDBRANCH   5  38
BRANCH   4  54
HETATM   54  O3  UNL     1      59.005  44.174  54.281  1.00  0.00    -0.391 OA
ATOM     55  H3  UNL     1      59.061  45.115  54.155  1.00  0.00     0.210 HD
ENDBRANCH   4  54
TORSDOF 16
ENDMDL