MODEL 4
REMARK VINA RESULT: -8.498308214      3.045      7.640
REMARK  20 active torsions:
REMARK  status: ('A' for Active; 'I' for Inactive)
REMARK    1  A    between atoms: C2_2  and  N1_5
REMARK    2  A    between atoms: N1_5  and  C5_8
REMARK    3  A    between atoms: C5_8  and  O1_9
REMARK    4  A    between atoms: C5_8  and  C6_11
REMARK    5  A    between atoms: C9_15  and  C10_16
REMARK    6  A    between atoms: C10_16  and  O3_17
REMARK    7  A    between atoms: C10_16  and  O4_19
REMARK    8  A    between atoms: C11_21  and  C12_22
REMARK    9  A    between atoms: C12_22  and  O5_23
REMARK   10  A    between atoms: O5_23  and  C13_24
REMARK   11  A    between atoms: C14_26  and  O7_27
REMARK   12  A    between atoms: C14_26  and  C15_29
REMARK   13  A    between atoms: C15_29  and  O8_30
REMARK   14  A    between atoms: C15_29  and  S1_32
REMARK   15  A    between atoms: C16_36  and  O12_37
REMARK   16  A    between atoms: C17_39  and  O13_40
REMARK   17  A    between atoms: C18_42  and  O14_43
REMARK   18  A    between atoms: C18_42  and  C19_45
REMARK   19  A    between atoms: C19_45  and  O15_46
REMARK   20  A    between atoms: O15_46  and  N2_47
ROOT
HETATM    1  C13 UNL     1      59.718  41.057  57.400  1.00  0.00     0.303 C
HETATM    2  O6  UNL     1      58.377  40.709  57.445  1.00  0.00    -0.316 OA
HETATM    3  C14 UNL     1      57.732  40.868  56.237  1.00  0.00     0.236 C
HETATM    4  C16 UNL     1      58.566  41.433  55.133  1.00  0.00     0.216 C
HETATM    5  C17 UNL     1      59.893  40.711  54.987  1.00  0.00     0.194 C
HETATM    6  C18 UNL     1      60.358  40.197  56.306  1.00  0.00     0.159 C
ENDROOT
BRANCH   1   7
HETATM    7  O5  UNL     1      59.975  42.381  57.218  1.00  0.00    -0.351 OA
BRANCH   7   8
HETATM    8  C12 UNL     1      60.242  43.157  58.296  1.00  0.00     0.237 C
BRANCH   8   9
HETATM    9  C11 UNL     1      59.793  44.553  58.262  1.00  0.00     0.092 A
HETATM   10  C9  UNL     1      59.289  45.109  59.443  1.00  0.00     0.078 A
HETATM   11  C8  UNL     1      58.869  46.416  59.402  1.00  0.00     0.188 A
HETATM   12  C7  UNL     1      58.954  47.110  58.244  1.00  0.00     0.092 A
HETATM   13  O2  UNL     1      58.406  46.936  60.469  1.00  0.00    -0.288 OA
HETATM   14  C6  UNL     1      59.467  46.485  57.111  1.00  0.00     0.113 A
HETATM   15  O16 UNL     1      59.859  45.256  57.169  1.00  0.00    -0.312 OA
BRANCH  10  16
HETATM   16  C10 UNL     1      59.201  44.340  60.715  1.00  0.00     0.294 C
BRANCH  16  17
HETATM   17  O3  UNL     1      57.879  44.363  61.126  1.00  0.00    -0.367 OA
ATOM     18  H3  UNL     1      57.802  45.021  61.807  1.00  0.00     0.213 HD
ENDBRANCH  16  17
BRANCH  16  19
HETATM   19  O4  UNL     1      59.922  45.049  61.703  1.00  0.00    -0.367 OA
ATOM     20  H4  UNL     1      59.569  44.809  62.551  1.00  0.00     0.213 HD
ENDBRANCH  16  19
ENDBRANCH  10  16
BRANCH  14  21
HETATM   21  C5  UNL     1      59.509  47.356  55.897  1.00  0.00     0.378 C
BRANCH  21  22
HETATM   22  N1  UNL     1      58.286  48.130  55.912  1.00  0.00    -0.035 N
ATOM     23  H12 UNL     1      58.460  49.079  56.240  1.00  0.00     0.281 HD
ATOM     24  H11 UNL     1      57.662  47.808  56.652  1.00  0.00     0.281 HD
BRANCH  22  25
HETATM   25  C2  UNL     1      57.609  48.144  54.640  1.00  0.00     0.118 C
HETATM   26  C1  UNL     1      56.115  48.132  54.765  1.00  0.00     0.045 C
HETATM   27  C3  UNL     1      57.990  49.453  53.957  1.00  0.00     0.045 C
HETATM   28  C4  UNL     1      58.028  47.026  53.732  1.00  0.00     0.045 C
ENDBRANCH  22  25
ENDBRANCH  21  22
BRANCH  21  29
HETATM   29  O1  UNL     1      60.647  48.116  55.981  1.00  0.00    -0.365 OA
ATOM     30  H1  UNL     1      61.421  47.624  56.231  1.00  0.00     0.212 HD
ENDBRANCH  21  29
ENDBRANCH  14  21
ENDBRANCH   8   9
ENDBRANCH   7   8
ENDBRANCH   1   7
BRANCH   6  31
HETATM   31  O14 UNL     1      60.052  38.889  56.584  1.00  0.00    -0.380 OA
ATOM     32  H14 UNL     1      60.872  38.409  56.625  1.00  0.00     0.211 HD
ENDBRANCH   6  31
BRANCH   6  33
HETATM   33  C19 UNL     1      61.882  40.297  56.360  1.00  0.00     0.246 C
BRANCH  33  34
HETATM   34  O15 UNL     1      62.305  39.944  55.059  1.00  0.00    -0.284 OA
BRANCH  34  35
HETATM   35  N2  UNL     1      62.733  38.658  55.042  1.00  0.00    -0.311 N
ATOM     36  H22 UNL     1      63.331  38.263  54.315  1.00  0.00     0.184 HD
ATOM     37  H21 UNL     1      62.371  38.158  55.854  1.00  0.00     0.184 HD
ENDBRANCH  34  35
ENDBRANCH  33  34
ENDBRANCH   6  33
BRANCH   3  38
HETATM   38  O7  UNL     1      57.375  39.556  55.816  1.00  0.00    -0.360 OA
ATOM     39  H7  UNL     1      57.142  39.636  54.899  1.00  0.00     0.213 HD
ENDBRANCH   3  38
BRANCH   3  40
HETATM   40  C15 UNL     1      56.430  41.620  56.311  1.00  0.00     0.327 C
BRANCH  40  41
HETATM   41  O8  UNL     1      55.500  41.057  55.419  1.00  0.00    -0.373 OA
ATOM     42  H8  UNL     1      55.283  40.173  55.692  1.00  0.00     0.211 HD
ENDBRANCH  40  41
BRANCH  40  43
HETATM   43  S1  UNL     1      55.747  41.544  57.972  1.00  0.00     0.137 S
HETATM   44  O9  UNL     1      54.337  42.028  57.903  1.00  0.00    -0.593 OA
HETATM   45  O10 UNL     1      55.839  40.155  58.485  1.00  0.00    -0.593 OA
HETATM   46  O11 UNL     1      56.623  42.618  58.929  1.00  0.00    -0.593 OA
ENDBRANCH  40  43
ENDBRANCH   3  40
BRANCH   5  47
HETATM   47  O13 UNL     1      59.823  39.708  54.020  1.00  0.00    -0.389 OA
ATOM     48  H13 UNL     1      60.602  39.165  54.028  1.00  0.00     0.210 HD
ENDBRANCH   5  47
BRANCH   4  49
HETATM   49  O12 UNL     1      57.884  41.172  53.917  1.00  0.00    -0.387 OA
ATOM     50  H12 UNL     1      58.428  40.580  53.412  1.00  0.00     0.210 HD
ENDBRANCH   4  49
TORSDOF 20
ENDMDL