MODEL 3
REMARK VINA RESULT: -10.022679578      2.488      5.049
REMARK  14 active torsions:
REMARK  status: ('A' for Active; 'I' for Inactive)
REMARK    1  A    between atoms: N5_15  and  C6_16
REMARK    2  A    between atoms: C7_18  and  N6_19
REMARK    3  A    between atoms: C8_22  and  C9_23
REMARK    4  A    between atoms: C9_23  and  O2_24
REMARK    5  A    between atoms: C9_23  and  N8_26
REMARK    6  A    between atoms: N8_26  and  C10_28
REMARK    7  A    between atoms: C10_28  and  C11_29
REMARK    8  A    between atoms: C10_28  and  C12_32
REMARK    9  A    between atoms: C12_32  and  O4_33
REMARK   10  A    between atoms: C12_32  and  C13_35
REMARK   11  A    between atoms: C13_35  and  N10_36
REMARK   12  A    between atoms: C16_51  and  O5_52
REMARK   13  A    between atoms: C17_54  and  N16_55
REMARK   14  A    between atoms: C18_59  and  O6_60
ROOT
HETATM    1  N6  UNL     1      58.018  44.527  57.975  1.00  0.00    -0.239 N
HETATM    2  N7  UNL     1      58.018  45.076  59.214  1.00  0.00    -0.279 N
ATOM      3  H7  UNL     1      57.872  44.555  60.078  1.00  0.00     0.188 HD
HETATM    4  C8  UNL     1      58.233  46.376  59.151  1.00  0.00     0.147 A
HETATM    5  N11 UNL     1      58.375  46.676  57.878  1.00  0.00    -0.323 N
ATOM      6  H11 UNL     1      58.555  47.605  57.497  1.00  0.00     0.169 HD
HETATM    7  C14 UNL     1      58.239  45.532  57.158  1.00  0.00     0.173 A
HETATM    8  C15 UNL     1      58.319  45.523  55.721  1.00  0.00     0.180 A
HETATM    9  N12 UNL     1      58.520  46.576  54.934  1.00  0.00    -0.264 N
ATOM     10  H12 UNL     1      58.638  47.533  55.265  1.00  0.00     0.186 HD
HETATM   11  N13 UNL     1      58.547  46.211  53.653  1.00  0.00    -0.005 NA
HETATM   12  N14 UNL     1      58.355  44.893  53.660  1.00  0.00    -0.225 N
ATOM     13  H14 UNL     1      58.320  44.296  52.834  1.00  0.00     0.205 HD
HETATM   14  N15 UNL     1      58.219  44.485  54.907  1.00  0.00    -0.268 N
ATOM     15  H15 UNL     1      58.061  43.519  55.198  1.00  0.00     0.190 HD
ENDROOT
BRANCH   1  16
HETATM   16  C7  UNL     1      57.796  43.138  57.788  1.00  0.00     0.279 C
HETATM   17  O1  UNL     1      58.987  42.454  57.716  1.00  0.00    -0.335 OA
HETATM   18  C6  UNL     1      58.848  41.083  57.561  1.00  0.00     0.264 C
HETATM   19  C18 UNL     1      57.488  40.599  57.222  1.00  0.00     0.200 C
HETATM   20  C17 UNL     1      56.488  41.055  58.211  1.00  0.00     0.249 C
HETATM   21  C16 UNL     1      56.797  42.463  58.666  1.00  0.00     0.202 C
BRANCH  18  22
HETATM   22  N5  UNL     1      59.851  40.589  56.587  1.00  0.00    -0.297 N
HETATM   23  C3  UNL     1      60.304  39.341  56.412  1.00  0.00     0.142 A
HETATM   24  N3  UNL     1      60.005  38.183  57.034  1.00  0.00    -0.336 N
HETATM   25  C4  UNL     1      61.233  39.302  55.405  1.00  0.00     0.122 A
HETATM   26  C2  UNL     1      60.567  37.000  56.720  1.00  0.00     0.183 A
ATOM     27  H3  UNL     1      59.314  38.203  57.784  1.00  0.00     0.168 HD
HETATM   28  N2  UNL     1      61.481  36.965  55.728  1.00  0.00    -0.337 N
HETATM   29  C1  UNL     1      61.810  38.100  55.079  1.00  0.00     0.131 A
ATOM     30  H2  UNL     1      61.922  36.082  55.471  1.00  0.00     0.168 HD
HETATM   31  N1  UNL     1      62.677  38.059  54.119  1.00  0.00    -0.383 N
ATOM     32  H12 UNL     1      63.105  37.166  53.877  1.00  0.00     0.157 HD
ATOM     33  H11 UNL     1      62.926  38.918  53.627  1.00  0.00     0.157 HD
HETATM   34  N4  UNL     1      61.345  40.574  54.959  1.00  0.00    -0.346 N
HETATM   35  C5  UNL     1      60.506  41.334  55.684  1.00  0.00     0.188 A
ATOM     36  H4  UNL     1      61.956  40.898  54.209  1.00  0.00     0.167 HD
ENDBRANCH  18  22
BRANCH  19  37
HETATM   37  O6  UNL     1      57.118  40.775  55.886  1.00  0.00    -0.389 OA
ATOM     38  H6  UNL     1      56.315  41.266  55.756  1.00  0.00     0.210 HD
ENDBRANCH  19  37
BRANCH  20  39
HETATM   39  N16 UNL     1      55.124  40.988  57.688  1.00  0.00    -0.070 N
ATOM     40 3H16 UNL     1      54.942  41.719  57.000  1.00  0.00     0.274 HD
ATOM     41 2H16 UNL     1      54.984  40.178  57.085  1.00  0.00     0.274 HD
ATOM     42 1H16 UNL     1      54.456  41.013  58.458  1.00  0.00     0.274 HD
ENDBRANCH  20  39
BRANCH  21  43
HETATM   43  O5  UNL     1      55.566  43.148  58.543  1.00  0.00    -0.389 OA
ATOM     44  H5  UNL     1      55.189  43.239  59.410  1.00  0.00     0.210 HD
ENDBRANCH  21  43
ENDBRANCH   1  16
BRANCH   4  45
HETATM   45  C9  UNL     1      58.238  47.273  60.324  1.00  0.00     0.284 C
BRANCH  45  46
HETATM   46  O2  UNL     1      57.411  46.595  61.284  1.00  0.00    -0.370 OA
ATOM     47  H2  UNL     1      58.021  46.055  61.773  1.00  0.00     0.212 HD
ENDBRANCH  45  46
BRANCH  45  48
HETATM   48  N8  UNL     1      59.441  47.520  60.975  1.00  0.00    -0.376 N
ATOM     49  H8  UNL     1      59.893  48.422  60.825  1.00  0.00     0.157 HD
BRANCH  48  50
HETATM   50  C10 UNL     1      60.065  46.601  61.824  1.00  0.00     0.199 C
BRANCH  50  51
HETATM   51  C11 UNL     1      59.204  45.565  62.421  1.00  0.00     0.256 C
HETATM   52  N9  UNL     1      58.548  45.911  63.636  1.00  0.00    -0.060 NA
HETATM   53  O3  UNL     1      58.992  44.427  61.971  1.00  0.00    -0.274 OA
ENDBRANCH  50  51
BRANCH  50  54
HETATM   54  C12 UNL     1      61.166  45.848  61.049  1.00  0.00     0.174 C
BRANCH  54  55
HETATM   55  O4  UNL     1      62.119  45.400  61.928  1.00  0.00    -0.391 OA
ATOM     56  H4  UNL     1      62.903  45.161  61.448  1.00  0.00     0.210 HD
ENDBRANCH  54  55
BRANCH  54  57
HETATM   57  C13 UNL     1      61.801  46.721  60.012  1.00  0.00     0.263 C
BRANCH  57  58
HETATM   58  N10 UNL     1      61.881  46.084  58.718  1.00  0.00    -0.077 N
ATOM     59 3H10 UNL     1      62.815  45.712  58.551  1.00  0.00     0.274 HD
ATOM     60 2H10 UNL     1      61.352  45.212  58.706  1.00  0.00     0.274 HD
ATOM     61 1H10 UNL     1      61.591  46.698  57.957  1.00  0.00     0.274 HD
ENDBRANCH  57  58
ENDBRANCH  54  57
ENDBRANCH  50  54
ENDBRANCH  48  50
ENDBRANCH  45  48
ENDBRANCH   4  45
TORSDOF 14
ENDMDL