MODEL 2
REMARK VINA RESULT: -8.978262080      2.958      7.338
REMARK  16 active torsions:
REMARK  status: ('A' for Active; 'I' for Inactive)
REMARK    1  A    between atoms: C2_9  and  S1_10
REMARK    2  A    between atoms: S1_10  and  C3_11
REMARK    3  A    between atoms: C3_11  and  C4_12
REMARK    4  A    between atoms: C4_12  and  N5_13
REMARK    5  A    between atoms: C4_12  and  C8_26
REMARK       I    between atoms: N5_13  and  C5_15
REMARK    6  A    between atoms: C5_15  and  C6_17
REMARK    7  A    between atoms: C6_17  and  C7_18
REMARK    8  A    between atoms: C6_17  and  N6_21
REMARK    9  A    between atoms: C7_18  and  O2_19
REMARK   10  A    between atoms: N6_21  and  N7_23
REMARK   11  A    between atoms: C9_28  and  N8_29
REMARK   12  A    between atoms: C13_38  and  N12_39
REMARK   13  A    between atoms: C15_45  and  O4_46
REMARK   14  A    between atoms: C15_45  and  O5_48
REMARK   15  A    between atoms: C16_50  and  O6_51
REMARK   16  A    between atoms: C16_50  and  C17_53
ROOT
HETATM    1  C8  UNL     1      59.072  43.275  56.602  1.00  0.00     0.199 C
HETATM    2  O3  UNL     1      59.288  41.958  56.885  1.00  0.00    -0.349 OA
HETATM    3  C9  UNL     1      58.264  41.195  56.304  1.00  0.00     0.297 C
HETATM    4  C15 UNL     1      57.886  42.001  55.124  1.00  0.00     0.251 C
HETATM    5  C16 UNL     1      57.739  43.357  55.877  1.00  0.00     0.235 C
ENDROOT
BRANCH   1   6
HETATM    6  C4  UNL     1      59.265  44.278  57.643  1.00  0.00     0.127 C
BRANCH   6   7
HETATM    7  C3  UNL     1      58.291  44.439  58.756  1.00  0.00     0.110 C
BRANCH   7   8
HETATM    8  S1  UNL     1      58.485  43.622  60.281  1.00  0.00    -0.089 SA
BRANCH   8   9
HETATM    9  C2  UNL     1      58.642  44.503  61.780  1.00  0.00     0.178 A
HETATM   10  N1  UNL     1      58.552  45.846  61.970  1.00  0.00    -0.259 N
HETATM   11  C1  UNL     1      58.364  46.799  60.931  1.00  0.00     0.181 C
HETATM   12  N2  UNL     1      58.661  46.053  63.256  1.00  0.00    -0.224 N
HETATM   13  N3  UNL     1      58.815  44.909  63.892  1.00  0.00    -0.226 N
ATOM     14  H2  UNL     1      58.632  46.970  63.704  1.00  0.00     0.210 HD
HETATM   15  N4  UNL     1      58.807  43.944  63.004  1.00  0.00    -0.263 N
ATOM     16  H3  UNL     1      58.921  44.793  64.900  1.00  0.00     0.210 HD
ATOM     17  H4  UNL     1      58.907  42.948  63.200  1.00  0.00     0.190 HD
ENDBRANCH   8   9
ENDBRANCH   7   8
ENDBRANCH   6   7
BRANCH   6  18
HETATM   18  N5  UNL     1      59.586  45.572  57.099  1.00  0.00    -0.351 N
HETATM   19  C5  UNL     1      60.511  46.470  57.624  1.00  0.00     0.244 C
HETATM   20  O1  UNL     1      61.193  46.238  58.667  1.00  0.00    -0.271 OA
ATOM     21  H5  UNL     1      59.091  45.857  56.253  1.00  0.00     0.163 HD
BRANCH  19  22
HETATM   22  C6  UNL     1      60.742  47.795  56.961  1.00  0.00     0.214 C
BRANCH  22  23
HETATM   23  C7  UNL     1      59.669  47.894  55.853  1.00  0.00     0.200 C
BRANCH  23  24
HETATM   24  O2  UNL     1      60.315  47.591  54.664  1.00  0.00    -0.398 OA
ATOM     25  H2  UNL     1      60.957  48.279  54.530  1.00  0.00     0.209 HD
ENDBRANCH  23  24
ENDBRANCH  22  23
BRANCH  22  26
HETATM   26  N6  UNL     1      62.019  47.805  56.331  1.00  0.00    -0.327 N
ATOM     27  H6  UNL     1      62.402  48.643  55.894  1.00  0.00     0.180 HD
BRANCH  26  28
HETATM   28  N7  UNL     1      62.702  46.615  56.351  1.00  0.00    -0.349 N
ATOM     29  H72 UNL     1      63.560  46.507  56.892  1.00  0.00     0.176 HD
ATOM     30  H71 UNL     1      62.295  45.863  55.797  1.00  0.00     0.176 HD
ENDBRANCH  26  28
ENDBRANCH  22  26
ENDBRANCH  19  22
ENDBRANCH   6  18
ENDBRANCH   1   6
BRANCH   5  31
HETATM   31  O6  UNL     1      56.647  43.210  56.673  1.00  0.00    -0.372 OA
ATOM     32  H6  UNL     1      56.338  44.011  57.079  1.00  0.00     0.211 HD
ENDBRANCH   5  31
BRANCH   5  33
HETATM   33  C17 UNL     1      57.609  44.468  54.955  1.00  0.00     0.217 C
HETATM   34  O7  UNL     1      56.438  44.969  54.790  1.00  0.00    -0.645 OA
HETATM   35  O8  UNL     1      58.610  45.070  54.212  1.00  0.00    -0.645 OA
ENDBRANCH   5  33
BRANCH   3  36
HETATM   36  N8  UNL     1      58.558  39.836  56.167  1.00  0.00    -0.294 N
HETATM   37  C10 UNL     1      57.568  38.890  56.226  1.00  0.00     0.188 A
HETATM   38  N9  UNL     1      58.106  37.697  56.073  1.00  0.00    -0.346 N
HETATM   39  C11 UNL     1      59.426  37.809  55.913  1.00  0.00     0.120 A
ATOM     40  H9  UNL     1      57.590  36.817  56.077  1.00  0.00     0.167 HD
HETATM   41  C12 UNL     1      60.472  36.936  55.716  1.00  0.00     0.162 A
HETATM   42  C14 UNL     1      59.698  39.154  55.973  1.00  0.00     0.157 A
HETATM   43  N10 UNL     1      60.195  35.542  55.651  1.00  0.00    -0.080 NA
HETATM   44  N11 UNL     1      61.718  37.409  55.590  1.00  0.00    -0.177 N
HETATM   45  C13 UNL     1      61.961  38.732  55.652  1.00  0.00     0.678 A
ATOM     46  H11 UNL     1      62.492  36.760  55.446  1.00  0.00     0.185 HD
HETATM   47  N13 UNL     1      60.948  39.568  55.841  1.00  0.00    -0.174 N
ATOM     48  H13 UNL     1      61.140  40.568  55.887  1.00  0.00     0.186 HD
BRANCH  45  49
HETATM   49  N12 UNL     1      63.200  39.150  55.524  1.00  0.00    -0.234 N
ATOM     50 2H12 UNL     1      63.925  38.578  55.090  1.00  0.00     0.174 HD
ATOM     51 1H12 UNL     1      63.440  40.079  55.871  1.00  0.00     0.174 HD
ENDBRANCH  45  49
ENDBRANCH   3  36
BRANCH   4  52
HETATM   52  O4  UNL     1      56.709  41.698  54.512  1.00  0.00    -0.359 OA
ATOM     53  H4  UNL     1      56.548  40.785  54.303  1.00  0.00     0.213 HD
ENDBRANCH   4  52
BRANCH   4  54
HETATM   54  O5  UNL     1      58.925  42.282  54.236  1.00  0.00    -0.359 OA
ATOM     55  H5  UNL     1      58.978  43.185  53.946  1.00  0.00     0.213 HD
ENDBRANCH   4  54
TORSDOF 16
ENDMDL