MODEL 5
REMARK VINA RESULT: -7.320225898      3.212      6.483
REMARK  20 active torsions:
REMARK  status: ('A' for Active; 'I' for Inactive)
REMARK    1  A    between atoms: C2_2  and  O1_3
REMARK    2  A    between atoms: C2_2  and  N1_5
REMARK    3  A    between atoms: N1_5  and  N2_6
REMARK    4  A    between atoms: N2_6  and  S1_8
REMARK    5  A    between atoms: S1_8  and  C3_10
REMARK    6  A    between atoms: C3_10  and  C4_11
REMARK    7  A    between atoms: C4_11  and  C5_12
REMARK    8  A    between atoms: N5_20  and  C9_21
REMARK    9  A    between atoms: C10_22  and  O3_23
REMARK   10  A    between atoms: C11_25  and  O4_26
REMARK   11  A    between atoms: C12_28  and  C13_29
REMARK   12  A    between atoms: C13_29  and  O5_30
REMARK   13  A    between atoms: C14_32  and  N6_33
REMARK   14  A    between atoms: C15_38  and  C16_39
REMARK   15  A    between atoms: C16_39  and  O6_40
REMARK   16  A    between atoms: C16_39  and  O7_42
REMARK   17  A    between atoms: C17_44  and  C18_45
REMARK   18  A    between atoms: C18_45  and  C19_46
REMARK   19  A    between atoms: C19_46  and  N9_47
REMARK   20  A    between atoms: C20_50  and  N10_51
ROOT
HETATM    1  C9  UNL     1      57.612  42.039  55.704  1.00  0.00     0.172 C
HETATM    2  C10 UNL     1      56.485  42.609  54.870  1.00  0.00     0.176 C
HETATM    3  C11 UNL     1      56.808  42.204  53.430  1.00  0.00     0.161 C
HETATM    4  C12 UNL     1      58.018  41.314  53.504  1.00  0.00     0.091 C
HETATM    5  C14 UNL     1      58.208  40.914  54.926  1.00  0.00     0.049 C
ENDROOT
BRANCH   1   6
HETATM    6  N5  UNL     1      57.310  41.812  57.074  1.00  0.00    -0.314 N
HETATM    7  C6  UNL     1      57.628  42.665  58.068  1.00  0.00     0.141 A
HETATM    8  N3  UNL     1      58.265  43.871  58.103  1.00  0.00    -0.330 N
HETATM    9  C7  UNL     1      57.189  42.161  59.273  1.00  0.00     0.122 A
HETATM   10  C5  UNL     1      58.486  44.576  59.204  1.00  0.00     0.085 A
ATOM     11  H3  UNL     1      58.595  44.258  57.219  1.00  0.00     0.168 HD
HETATM   12  N11 UNL     1      58.060  44.088  60.384  1.00  0.00    -0.330 N
HETATM   13  C20 UNL     1      57.413  42.882  60.420  1.00  0.00     0.131 A
ATOM     14  H11 UNL     1      58.219  44.612  61.244  1.00  0.00     0.168 HD
HETATM   15  N4  UNL     1      56.607  40.990  58.963  1.00  0.00    -0.346 N
HETATM   16  C8  UNL     1      56.678  40.775  57.640  1.00  0.00     0.186 A
ATOM     17  H4  UNL     1      56.175  40.358  59.636  1.00  0.00     0.167 HD
BRANCH  10  18
HETATM   18  C4  UNL     1      59.191  45.897  59.191  1.00  0.00     0.091 C
BRANCH  18  19
HETATM   19  C3  UNL     1      59.754  46.177  57.818  1.00  0.00     0.140 C
BRANCH  19  20
HETATM   20  S1  UNL     1      61.523  46.042  57.869  1.00  0.00     0.126 S
HETATM   21  O2  UNL     1      62.106  46.127  59.439  1.00  0.00    -0.235 OA
BRANCH  20  22
HETATM   22  N2  UNL     1      62.057  44.576  57.170  1.00  0.00    -0.250 N
ATOM     23  H2  UNL     1      63.042  44.336  57.056  1.00  0.00     0.193 HD
BRANCH  22  24
HETATM   24  N1  UNL     1      61.018  43.741  56.769  1.00  0.00    -0.102 NA
BRANCH  24  25
HETATM   25  C2  UNL     1      61.578  42.423  56.537  1.00  0.00     0.227 C
HETATM   26  C1  UNL     1      60.947  41.368  57.387  1.00  0.00     0.060 C
BRANCH  25  27
HETATM   27  O1  UNL     1      61.444  42.111  55.188  1.00  0.00    -0.378 OA
ATOM     28  H1  UNL     1      60.527  42.080  54.941  1.00  0.00     0.211 HD
ENDBRANCH  25  27
ENDBRANCH  24  25
ENDBRANCH  22  24
ENDBRANCH  20  22
ENDBRANCH  19  20
ENDBRANCH  18  19
ENDBRANCH  10  18
BRANCH  13  29
HETATM   29  N10 UNL     1      57.005  42.413  61.541  1.00  0.00    -0.383 N
ATOM     30 2H10 UNL     1      56.006  42.370  61.738  1.00  0.00     0.157 HD
ATOM     31 1H10 UNL     1      57.691  42.088  62.221  1.00  0.00     0.157 HD
ENDBRANCH  13  29
ENDBRANCH   1   6
BRANCH   2  32
HETATM   32  O3  UNL     1      56.397  44.000  54.935  1.00  0.00    -0.391 OA
ATOM     33  H3  UNL     1      56.059  44.317  55.765  1.00  0.00     0.210 HD
ENDBRANCH   2  32
BRANCH   5  34
HETATM   34  N6  UNL     1      58.026  39.584  55.340  1.00  0.00    -0.237 N
HETATM   35  N7  UNL     1      56.833  39.015  55.642  1.00  0.00    -0.235 N
HETATM   36  N8  UNL     1      56.902  37.788  55.999  1.00  0.00    -0.282 N
ATOM     37  H7  UNL     1      55.951  39.524  55.589  1.00  0.00     0.209 HD
HETATM   38  C15 UNL     1      58.170  37.426  55.966  1.00  0.00     0.119 A
ATOM     39  H8  UNL     1      56.116  37.195  56.263  1.00  0.00     0.188 HD
HETATM   40  C17 UNL     1      58.871  38.546  55.554  1.00  0.00     0.141 A
BRANCH  38  41
HETATM   41  C16 UNL     1      58.694  36.080  56.308  1.00  0.00     0.309 C
BRANCH  41  42
HETATM   42  O6  UNL     1      59.521  35.615  55.285  1.00  0.00    -0.366 OA
ATOM     43  H6  UNL     1      60.241  36.220  55.149  1.00  0.00     0.213 HD
ENDBRANCH  41  42
BRANCH  41  44
HETATM   44  O7  UNL     1      57.636  35.154  56.405  1.00  0.00    -0.366 OA
ATOM     45  H7  UNL     1      57.702  34.506  55.714  1.00  0.00     0.213 HD
ENDBRANCH  41  44
ENDBRANCH  38  41
BRANCH  40  46
HETATM   46  C18 UNL     1      60.269  38.569  55.393  1.00  0.00    -0.022 C
BRANCH  46  47
HETATM   47  C19 UNL     1      61.447  38.568  55.270  1.00  0.00     0.010 C
BRANCH  47  48
HETATM   48  N9  UNL     1      62.836  38.593  55.122  1.00  0.00    -0.359 N
ATOM     49  H92 UNL     1      62.021  38.920  54.603  1.00  0.00     0.166 HD
ATOM     50  H91 UNL     1      63.851  38.601  55.030  1.00  0.00     0.166 HD
ENDBRANCH  47  48
ENDBRANCH  46  47
ENDBRANCH  40  46
ENDBRANCH   5  34
BRANCH   3  51
HETATM   51  O4  UNL     1      56.954  43.328  52.653  1.00  0.00    -0.392 OA
ATOM     52  H4  UNL     1      57.874  43.548  52.577  1.00  0.00     0.210 HD
ENDBRANCH   3  51
BRANCH   4  53
HETATM   53  C13 UNL     1      58.095  40.250  52.469  1.00  0.00     0.177 C
BRANCH  53  54
HETATM   54  O5  UNL     1      59.076  40.535  51.498  1.00  0.00    -0.400 OA
ATOM     55  H5  UNL     1      58.886  41.340  51.031  1.00  0.00     0.209 HD
ENDBRANCH  53  54
ENDBRANCH   4  53
TORSDOF 20
ENDMDL