MODEL 5
REMARK VINA RESULT: -8.413550535      2.800      7.071
REMARK  18 active torsions:
REMARK  status: ('A' for Active; 'I' for Inactive)
REMARK    1  A    between atoms: C2_2  and  C3_3
REMARK    2  A    between atoms: C2_2  and  C4_10
REMARK    3  A    between atoms: N5_12  and  C6_13
REMARK    4  A    between atoms: C7_14  and  O1_15
REMARK    5  A    between atoms: C8_17  and  O2_18
REMARK    6  A    between atoms: C9_20  and  O3_21
REMARK    7  A    between atoms: O3_21  and  C10_22
REMARK    8  A    between atoms: C10_22  and  C11_23
REMARK    9  A    between atoms: C11_23  and  O4_24
REMARK   10  A    between atoms: C11_23  and  C12_26
REMARK   11  A    between atoms: C12_26  and  N6_27
REMARK   12  A    between atoms: C13_31  and  O5_32
REMARK   13  A    between atoms: C15_36  and  O6_37
REMARK   14  A    between atoms: C16_39  and  O7_40
REMARK   15  A    between atoms: C17_44  and  C18_45
REMARK   16  A    between atoms: C18_45  and  O8_46
REMARK   17  A    between atoms: O8_46  and  C19_47
REMARK   18  A    between atoms: C19_47  and  N11_52
ROOT
HETATM    1  C6  UNL     1      57.588  41.881  57.004  1.00  0.00     0.170 C
HETATM    2  C7  UNL     1      56.878  41.980  55.682  1.00  0.00     0.177 C
HETATM    3  C8  UNL     1      57.747  42.421  54.561  1.00  0.00     0.182 C
HETATM    4  C9  UNL     1      58.333  41.274  53.744  1.00  0.00     0.204 C
HETATM    5  C13 UNL     1      59.108  40.310  54.563  1.00  0.00     0.203 C
HETATM    6  C14 UNL     1      58.413  39.021  54.732  1.00  0.00     0.103 C
HETATM    7  N7  UNL     1      57.860  37.984  54.838  1.00  0.00    -0.194 NA
HETATM    8  C15 UNL     1      59.583  40.781  55.888  1.00  0.00     0.200 C
HETATM    9  C16 UNL     1      58.637  40.796  57.020  1.00  0.00     0.178 C
ENDROOT
BRANCH   5  10
HETATM   10  O5  UNL     1      60.299  39.947  53.850  1.00  0.00    -0.371 OA
ATOM     11  H5  UNL     1      60.591  39.095  54.154  1.00  0.00     0.212 HD
ENDBRANCH   5  10
BRANCH   4  12
HETATM   12  O3  UNL     1      57.384  40.638  52.999  1.00  0.00    -0.376 OA
BRANCH  12  13
HETATM   13  C10 UNL     1      57.409  40.768  51.656  1.00  0.00     0.201 C
BRANCH  13  14
HETATM   14  C11 UNL     1      56.172  40.593  50.866  1.00  0.00     0.167 C
BRANCH  14  15
HETATM   15  O4  UNL     1      56.489  41.074  49.554  1.00  0.00    -0.392 OA
ATOM     16  H4  UNL     1      55.995  40.523  48.959  1.00  0.00     0.210 HD
ENDBRANCH  14  15
BRANCH  14  17
HETATM   17  C12 UNL     1      55.019  41.491  51.288  1.00  0.00     0.263 C
BRANCH  17  18
HETATM   18  N6  UNL     1      54.655  41.213  52.681  1.00  0.00    -0.077 N
ATOM     19  H63 UNL     1      54.094  40.365  52.769  1.00  0.00     0.274 HD
ATOM     20  H62 UNL     1      55.459  40.917  53.236  1.00  0.00     0.274 HD
ATOM     21  H61 UNL     1      54.189  42.024  53.086  1.00  0.00     0.274 HD
ENDBRANCH  17  18
ENDBRANCH  14  17
ENDBRANCH  13  14
ENDBRANCH  12  13
ENDBRANCH   4  12
BRANCH   8  22
HETATM   22  O6  UNL     1      60.621  39.883  56.269  1.00  0.00    -0.389 OA
ATOM     23  H6  UNL     1      60.218  39.023  56.302  1.00  0.00     0.210 HD
ENDBRANCH   8  22
BRANCH   3  24
HETATM   24  O2  UNL     1      56.932  43.129  53.644  1.00  0.00    -0.390 OA
ATOM     25  H2  UNL     1      57.457  43.832  53.279  1.00  0.00     0.210 HD
ENDBRANCH   3  24
BRANCH   9  26
HETATM   26  O7  UNL     1      58.043  39.598  57.295  1.00  0.00    -0.391 OA
ATOM     27  H7  UNL     1      58.545  39.144  57.961  1.00  0.00     0.210 HD
ENDBRANCH   9  26
BRANCH   2  28
HETATM   28  O1  UNL     1      55.819  42.873  55.808  1.00  0.00    -0.391 OA
ATOM     29  H1  UNL     1      55.658  43.278  54.964  1.00  0.00     0.210 HD
ENDBRANCH   2  28
BRANCH   1  30
HETATM   30  N5  UNL     1      58.121  43.150  57.453  1.00  0.00    -0.292 N
HETATM   31  C5  UNL     1      58.716  43.464  58.608  1.00  0.00     0.125 A
HETATM   32  C4  UNL     1      59.076  44.828  58.611  1.00  0.00     0.020 A
HETATM   33  C17 UNL     1      58.661  45.288  57.404  1.00  0.00     0.062 A
HETATM   34  N8  UNL     1      58.100  44.254  56.750  1.00  0.00    -0.299 N
ATOM     35  H8  UNL     1      57.703  44.323  55.813  1.00  0.00     0.187 HD
BRANCH  32  36
HETATM   36  C2  UNL     1      59.785  45.519  59.668  1.00  0.00     0.014 C
HETATM   37  C1  UNL     1      60.890  46.199  59.470  1.00  0.00     0.028 C
BRANCH  36  38
HETATM   38  C3  UNL     1      59.255  45.438  61.035  1.00  0.00     0.141 C
HETATM   39  N1  UNL     1      59.702  44.608  61.938  1.00  0.00    -0.270 N
HETATM   40  N2  UNL     1      58.972  44.814  63.097  1.00  0.00    -0.007 NA
ATOM     41  H1  UNL     1      60.455  43.930  61.813  1.00  0.00     0.185 HD
HETATM   42  N3  UNL     1      58.382  46.078  63.010  1.00  0.00    -0.007 NA
HETATM   43  N4  UNL     1      58.200  46.176  61.598  1.00  0.00    -0.270 N
ATOM     44  H4  UNL     1      57.461  46.676  61.103  1.00  0.00     0.185 HD
ENDBRANCH  36  38
ENDBRANCH  32  36
BRANCH  33  45
HETATM   45  C18 UNL     1      58.759  46.667  56.835  1.00  0.00     0.238 C
BRANCH  45  46
HETATM   46  O8  UNL     1      59.046  46.548  55.464  1.00  0.00    -0.316 OA
BRANCH  46  47
HETATM   47  C19 UNL     1      58.505  47.306  54.477  1.00  0.00     0.228 C
HETATM   48  N9  UNL     1      57.351  47.170  54.036  1.00  0.00    -0.259 N
HETATM   49  C20 UNL     1      56.317  46.345  54.310  1.00  0.00     0.185 C
ATOM     50  H9  UNL     1      57.133  47.837  53.296  1.00  0.00     0.181 HD
HETATM   51  N10 UNL     1      55.418  45.655  54.521  1.00  0.00    -0.172 NA
BRANCH  47  52
HETATM   52  N11 UNL     1      59.383  48.334  53.931  1.00  0.00    -0.360 N
HETATM   53  C21 UNL     1      59.077  48.948  52.666  1.00  0.00     0.150 C
ATOM     54  H11 UNL     1      60.216  48.618  54.447  1.00  0.00     0.162 HD
ENDBRANCH  47  52
ENDBRANCH  46  47
ENDBRANCH  45  46
ENDBRANCH  33  45
ENDBRANCH   1  30
TORSDOF 18
ENDMDL