MODEL 3
REMARK VINA RESULT: -9.986422321      1.937      8.398
REMARK  13 active torsions:
REMARK  status: ('A' for Active; 'I' for Inactive)
REMARK    1  A    between atoms: N2_4  and  C1_6
REMARK    2  A    between atoms: C1_6  and  N3_7
REMARK    3  A    between atoms: N3_7  and  C2_9
REMARK    4  A    between atoms: N5_16  and  C6_17
REMARK    5  A    between atoms: C8_22  and  N7_23
REMARK    6  A    between atoms: C10_25  and  C11_26
REMARK    7  A    between atoms: C11_26  and  N8_27
REMARK    8  A    between atoms: N8_27  and  C12_29
REMARK    9  A    between atoms: C12_29  and  C13_30
REMARK   10  A    between atoms: C12_29  and  C14_36
REMARK   11  A    between atoms: N10_32  and  O2_34
REMARK   12  A    between atoms: C15_41  and  N13_42
REMARK   13  A    between atoms: C17_53  and  O4_54
ROOT
HETATM    1  C6  UNL     1      58.547  45.158  57.193  1.00  0.00     0.337 C
HETATM    2  N6  UNL     1      57.955  45.701  55.989  1.00  0.00    -0.049 N
ATOM      3  H61 UNL     1      58.541  46.386  55.512  1.00  0.00     0.279 HD
ATOM      4  H62 UNL     1      57.165  46.324  56.161  1.00  0.00     0.279 HD
HETATM    5  C7  UNL     1      57.621  44.529  55.171  1.00  0.00     0.264 C
HETATM    6  C8  UNL     1      58.676  43.529  55.447  1.00  0.00     0.167 C
HETATM    7  C17 UNL     1      58.984  43.770  56.926  1.00  0.00     0.195 C
ENDROOT
BRANCH   6   8
HETATM    8  N7  UNL     1      58.359  42.161  55.238  1.00  0.00    -0.278 N
HETATM    9  C9  UNL     1      58.113  41.124  56.055  1.00  0.00     0.144 A
HETATM   10  C10 UNL     1      57.868  40.051  55.253  1.00  0.00     0.082 A
HETATM   11  N15 UNL     1      57.964  40.433  53.996  1.00  0.00    -0.284 N
HETATM   12  N16 UNL     1      58.256  41.693  53.976  1.00  0.00    -0.240 N
ATOM     13  H15 UNL     1      57.830  39.838  53.179  1.00  0.00     0.188 HD
ATOM     14  H16 UNL     1      58.388  42.249  53.132  1.00  0.00     0.208 HD
BRANCH  10  15
HETATM   15  C11 UNL     1      57.469  38.687  55.703  1.00  0.00     0.121 C
BRANCH  15  16
HETATM   16  N8  UNL     1      58.523  38.003  56.278  1.00  0.00    -0.359 N
ATOM     17  H8  UNL     1      58.397  37.672  57.234  1.00  0.00     0.165 HD
BRANCH  16  18
HETATM   18  C12 UNL     1      59.735  37.728  55.670  1.00  0.00     0.109 C
BRANCH  18  19
HETATM   19  C13 UNL     1      60.145  36.332  55.782  1.00  0.00     0.165 C
HETATM   20  N9  UNL     1      59.274  35.265  55.511  1.00  0.00    -0.078 NA
HETATM   21  N10 UNL     1      61.354  36.064  56.134  1.00  0.00    -0.253 N
ATOM     22  H10 UNL     1      61.989  36.839  56.325  1.00  0.00     0.195 HD
BRANCH  21  23
HETATM   23  O2  UNL     1      61.820  34.806  56.261  1.00  0.00    -0.288 OA
ATOM     24  H2  UNL     1      62.744  34.601  56.343  1.00  0.00     0.244 HD
ENDBRANCH  21  23
ENDBRANCH  18  19
BRANCH  18  25
HETATM   25  C14 UNL     1      60.865  38.636  55.793  1.00  0.00     0.147 A
HETATM   26  N11 UNL     1      61.522  38.968  56.891  1.00  0.00    -0.279 N
HETATM   27  N12 UNL     1      62.516  39.790  57.005  1.00  0.00    -0.132 N
ATOM     28  H11 UNL     1      61.209  38.521  57.754  1.00  0.00     0.188 HD
HETATM   29  C15 UNL     1      62.942  40.395  55.875  1.00  0.00     0.693 A
ATOM     30  H12 UNL     1      62.956  39.973  57.906  1.00  0.00     0.205 HD
HETATM   31  N14 UNL     1      62.344  40.129  54.706  1.00  0.00    -0.153 N
HETATM   32  C16 UNL     1      61.313  39.265  54.612  1.00  0.00     0.290 A
ATOM     33  H14 UNL     1      62.680  40.593  53.862  1.00  0.00     0.187 HD
HETATM   34  O3  UNL     1      60.752  39.007  53.528  1.00  0.00    -0.265 OA
BRANCH  29  35
HETATM   35  N13 UNL     1      63.913  41.228  55.937  1.00  0.00    -0.233 N
ATOM     36 2H13 UNL     1      64.289  41.521  56.839  1.00  0.00     0.174 HD
ATOM     37 1H13 UNL     1      64.315  41.592  55.073  1.00  0.00     0.174 HD
ENDBRANCH  29  35
ENDBRANCH  18  25
ENDBRANCH  16  18
ENDBRANCH  15  16
ENDBRANCH  10  15
ENDBRANCH   6   8
BRANCH   7  38
HETATM   38  O4  UNL     1      60.259  43.425  57.277  1.00  0.00    -0.389 OA
ATOM     39  H4  UNL     1      60.430  43.231  58.191  1.00  0.00     0.210 HD
ENDBRANCH   7  38
BRANCH   1  40
HETATM   40  N5  UNL     1      59.546  45.994  57.813  1.00  0.00    -0.160 N
HETATM   41  C2  UNL     1      59.754  45.916  59.171  1.00  0.00     0.690 A
HETATM   42  N4  UNL     1      60.688  46.642  59.804  1.00  0.00    -0.156 N
HETATM   43  C3  UNL     1      61.467  47.496  59.090  1.00  0.00     0.260 A
ATOM     44  H4  UNL     1      60.812  46.554  60.812  1.00  0.00     0.187 HD
HETATM   45  O1  UNL     1      62.349  48.175  59.709  1.00  0.00    -0.268 OA
HETATM   46  C4  UNL     1      61.277  47.592  57.735  1.00  0.00     0.092 A
HETATM   47  C5  UNL     1      60.307  46.829  57.110  1.00  0.00     0.117 A
BRANCH  41  48
HETATM   48  N3  UNL     1      58.990  45.093  59.778  1.00  0.00    -0.154 N
ATOM     49  H3  UNL     1      58.548  44.410  59.163  1.00  0.00     0.184 HD
BRANCH  48  50
HETATM   50  C1  UNL     1      58.644  44.949  61.130  1.00  0.00     0.367 C
HETATM   51  N17 UNL     1      59.889  44.752  61.908  1.00  0.00    -0.037 NA
HETATM   52  N18 UNL     1      59.561  45.269  63.172  1.00  0.00    -0.221 N
HETATM   53  N19 UNL     1      58.573  46.060  63.068  1.00  0.00    -0.190 N
ATOM     54  H18 UNL     1      60.043  45.043  64.043  1.00  0.00     0.206 HD
HETATM   55  O5  UNL     1      58.154  46.143  61.739  1.00  0.00    -0.189 OA
ATOM     56  H19 UNL     1      58.146  46.564  63.846  1.00  0.00     0.217 HD
BRANCH  50  57
HETATM   57  N2  UNL     1      57.815  43.841  61.434  1.00  0.00    -0.272 N
HETATM   58  N1  UNL     1      57.485  43.124  60.462  1.00  0.00    -0.344 N
ATOM     59  H12 UNL     1      57.802  43.339  59.517  1.00  0.00     0.176 HD
ATOM     60  H11 UNL     1      56.889  42.326  60.681  1.00  0.00     0.176 HD
ATOM     61  H2  UNL     1      57.506  43.640  62.385  1.00  0.00     0.186 HD
ENDBRANCH  50  57
ENDBRANCH  48  50
ENDBRANCH  41  48
ENDBRANCH   1  40
TORSDOF 13
ENDMDL