MODEL 1
REMARK VINA RESULT: -9.131779903      0.000      0.000
REMARK  20 active torsions:
REMARK  status: ('A' for Active; 'I' for Inactive)
REMARK    1  A    between atoms: O1_2  and  C2_3
REMARK    2  A    between atoms: C2_3  and  C3_5
REMARK    3  A    between atoms: N2_9  and  C5_11
REMARK    4  A    between atoms: N3_12  and  O3_13
REMARK    5  A    between atoms: C6_15  and  O4_16
REMARK    6  A    between atoms: C6_15  and  O5_18
REMARK    7  A    between atoms: C7_20  and  N4_21
REMARK    8  A    between atoms: C8_25  and  C9_26
REMARK    9  A    between atoms: C9_26  and  N5_27
REMARK   10  A    between atoms: C13_34  and  N7_35
REMARK   11  A    between atoms: N8_38  and  O7_39
REMARK   12  A    between atoms: C14_41  and  N9_42
REMARK   13  A    between atoms: N9_42  and  C15_44
REMARK   14  A    between atoms: C15_44  and  O8_45
REMARK   15  A    between atoms: C15_44  and  C16_47
REMARK   16  A    between atoms: C16_47  and  C17_48
REMARK   17  A    between atoms: C16_47  and  C19_52
REMARK   18  A    between atoms: C17_48  and  C18_49
REMARK   19  A    between atoms: C19_52  and  O10_53
REMARK   20  A    between atoms: C19_52  and  O11_55
ROOT
HETATM    1  C3  UNL     1      60.302  45.808  58.341  1.00  0.00     0.171 A
HETATM    2  N1  UNL     1      60.323  44.489  58.718  1.00  0.00    -0.179 N
ATOM      3  H1  UNL     1      61.066  44.038  59.251  1.00  0.00     0.184 HD
HETATM    4  C4  UNL     1      59.221  43.893  58.278  1.00  0.00     0.712 A
HETATM    5  N2  UNL     1      58.967  42.657  58.474  1.00  0.00    -0.176 N
ATOM      6  H2  UNL     1      59.671  42.137  58.999  1.00  0.00     0.185 HD
HETATM    7  N8  UNL     1      58.513  44.806  57.635  1.00  0.00    -0.033 N
HETATM    8  C14 UNL     1      59.152  46.049  57.638  1.00  0.00     0.183 A
ENDROOT
BRANCH   5   9
HETATM    9  C5  UNL     1      57.855  41.929  58.065  1.00  0.00     0.134 C
HETATM   10  N3  UNL     1      56.676  41.958  58.567  1.00  0.00    -0.184 N
HETATM   11  C6  UNL     1      55.764  41.049  57.853  1.00  0.00     0.300 C
HETATM   12  C7  UNL     1      56.421  40.976  56.461  1.00  0.00     0.283 C
HETATM   13  C8  UNL     1      57.868  40.952  56.917  1.00  0.00     0.113 C
BRANCH  10  14
HETATM   14  O3  UNL     1      56.205  42.715  59.640  1.00  0.00    -0.281 OA
ATOM     15  H3  UNL     1      55.990  43.640  59.663  1.00  0.00     0.245 HD
ENDBRANCH  10  14
BRANCH  11  16
HETATM   16  O4  UNL     1      55.644  39.822  58.443  1.00  0.00    -0.345 OA
ATOM     17  H4  UNL     1      55.481  39.864  59.378  1.00  0.00     0.215 HD
ENDBRANCH  11  16
BRANCH  11  18
HETATM   18  O5  UNL     1      54.508  41.615  57.665  1.00  0.00    -0.345 OA
ATOM     19  H5  UNL     1      54.160  41.429  56.800  1.00  0.00     0.215 HD
ENDBRANCH  11  18
BRANCH  12  20
HETATM   20  N4  UNL     1      56.063  42.122  55.689  1.00  0.00    -0.067 N
ATOM     21  H43 UNL     1      56.410  42.062  54.732  1.00  0.00     0.275 HD
ATOM     22  H42 UNL     1      55.064  42.147  55.483  1.00  0.00     0.275 HD
ATOM     23  H41 UNL     1      56.378  42.972  56.157  1.00  0.00     0.275 HD
ENDBRANCH  12  20
BRANCH  13  24
HETATM   24  C9  UNL     1      58.883  41.289  55.883  1.00  0.00     0.161 C
BRANCH  24  25
HETATM   25  N5  UNL     1      60.214  40.824  56.135  1.00  0.00    -0.193 N
HETATM   26  C10 UNL     1      60.539  39.618  56.608  1.00  0.00     0.114 A
HETATM   27  C11 UNL     1      61.870  39.215  56.809  1.00  0.00     0.092 A
HETATM   28  C12 UNL     1      62.882  40.088  56.510  1.00  0.00     0.260 A
HETATM   29  O6  UNL     1      64.103  39.816  56.656  1.00  0.00    -0.268 OA
HETATM   30  N6  UNL     1      62.536  41.296  56.034  1.00  0.00    -0.156 N
HETATM   31  C13 UNL     1      61.272  41.651  55.854  1.00  0.00     0.680 A
ATOM     32  H6  UNL     1      63.272  41.964  55.803  1.00  0.00     0.187 HD
BRANCH  31  33
HETATM   33  N7  UNL     1      60.994  42.823  55.393  1.00  0.00    -0.234 N
ATOM     34  H72 UNL     1      60.087  43.246  55.596  1.00  0.00     0.174 HD
ATOM     35  H71 UNL     1      61.712  43.284  54.834  1.00  0.00     0.174 HD
ENDBRANCH  31  33
ENDBRANCH  24  25
ENDBRANCH  13  24
ENDBRANCH   5   9
BRANCH   7  36
HETATM   36  O7  UNL     1      57.315  44.547  57.049  1.00  0.00    -0.268 OA
ATOM     37  H7  UNL     1      57.218  44.343  56.126  1.00  0.00     0.246 HD
ENDBRANCH   7  36
BRANCH   1  38
HETATM   38  C2  UNL     1      61.335  46.743  58.762  1.00  0.00     0.314 C
HETATM   39  O2  UNL     1      61.693  47.770  58.186  1.00  0.00    -0.257 OA
BRANCH  38  40
HETATM   40  O1  UNL     1      62.037  46.479  59.968  1.00  0.00    -0.321 OA
HETATM   41  C1  UNL     1      61.293  46.356  61.158  1.00  0.00     0.213 C
ENDBRANCH  38  40
ENDBRANCH   1  38
BRANCH   8  42
HETATM   42  N9  UNL     1      58.627  47.124  56.921  1.00  0.00    -0.345 N
ATOM     43  H9  UNL     1      57.795  47.532  57.350  1.00  0.00     0.163 HD
BRANCH  42  44
HETATM   44  C15 UNL     1      59.010  47.756  55.732  1.00  0.00     0.228 C
BRANCH  44  45
HETATM   45  O8  UNL     1      60.422  47.770  55.544  1.00  0.00    -0.376 OA
ATOM     46  H8  UNL     1      60.713  47.137  54.899  1.00  0.00     0.212 HD
ENDBRANCH  44  45
BRANCH  44  47
HETATM   47  C16 UNL     1      58.478  46.961  54.491  1.00  0.00     0.097 C
BRANCH  47  48
HETATM   48  C17 UNL     1      57.019  47.129  54.304  1.00  0.00     0.113 C
BRANCH  48  49
HETATM   49  C18 UNL     1      56.311  45.873  53.961  1.00  0.00     0.231 C
HETATM   50  N10 UNL     1      56.288  45.394  52.622  1.00  0.00    -0.062 NA
HETATM   51  O9  UNL     1      55.699  45.171  54.820  1.00  0.00    -0.277 OA
ENDBRANCH  48  49
ENDBRANCH  47  48
BRANCH  47  52
HETATM   52  C19 UNL     1      59.323  47.370  53.339  1.00  0.00     0.262 C
BRANCH  52  53
HETATM   53  O10 UNL     1      59.040  46.707  52.168  1.00  0.00    -0.371 OA
ATOM     54  H10 UNL     1      59.464  47.073  51.401  1.00  0.00     0.212 HD
ENDBRANCH  52  53
BRANCH  52  55
HETATM   55  O11 UNL     1      59.342  48.743  53.107  1.00  0.00    -0.371 OA
ATOM     56  H11 UNL     1      58.509  49.100  52.826  1.00  0.00     0.212 HD
ENDBRANCH  52  55
ENDBRANCH  47  52
ENDBRANCH  44  47
ENDBRANCH  42  44
ENDBRANCH   8  42
TORSDOF 20
ENDMDL