MODEL 5
REMARK VINA RESULT: -7.794197435      3.263      5.296
REMARK  6 active torsions:
REMARK  status: ('A' for Active; 'I' for Inactive)
REMARK    1  A    between atoms: C3_5  and  C4_6
REMARK    2  A    between atoms: C4_6  and  C5_7
REMARK    3  A    between atoms: C5_7  and  C6_8
REMARK    4  A    between atoms: C6_8  and  C7_9
REMARK    5  A    between atoms: C8_10  and  C9_11
REMARK    6  A    between atoms: C11_14  and  N2_15
REMARK       I    between atoms: N2_15  and  C12_17
ROOT
HETATM    1  C1  UNL     1      41.278   5.302  94.498  1.00  0.00     0.089 C
HETATM    2  C2  UNL     1      41.339   3.848  94.193  1.00  0.00     0.078 A
HETATM    3  N1  UNL     1      40.256   3.253  93.676  1.00  0.00    -0.350 N
ATOM      4  H1  UNL     1      39.418   3.809  93.504  1.00  0.00     0.167 HD
HETATM    5  C3  UNL     1      40.247   1.927  93.374  1.00  0.00     0.014 A
HETATM    6  C10 UNL     1      41.390   1.197  93.615  1.00  0.00     0.073 A
HETATM    7  C11 UNL     1      42.505   1.812  94.147  1.00  0.00     0.110 A
HETATM    8  N5  UNL     1      42.446   3.114  94.419  1.00  0.00    -0.332 N
ATOM      9  H5  UNL     1      43.267   3.572  94.812  1.00  0.00     0.168 HD
ENDROOT
BRANCH   5  10
HETATM   10  C4  UNL     1      39.044   1.310  92.816  1.00  0.00     0.058 C
BRANCH  10  11
HETATM   11  C5  UNL     1      39.405   0.194  91.907  1.00  0.00     0.018 C
BRANCH  11  12
HETATM   12  C6  UNL     1      38.949  -1.161  92.342  1.00  0.00     0.094 C
BRANCH  12  13
HETATM   13  C7  UNL     1      40.104  -2.057  92.607  1.00  0.00    -0.106 C
HETATM   14  C8  UNL     1      41.050  -2.768  92.834  1.00  0.00    -0.096 C
BRANCH  14  15
HETATM   15  C9  UNL     1      42.208  -3.620  93.127  1.00  0.00     0.178 C
HETATM   16 BR1  UNL     1      43.220  -3.789  91.487  1.00  0.00    -0.083 Br
ENDBRANCH  14  15
ENDBRANCH  12  13
ENDBRANCH  11  12
ENDBRANCH  10  11
ENDBRANCH   5  10
BRANCH   7  17
HETATM   17  N2  UNL     1      43.550   1.114  94.360  1.00  0.00    -0.317 N
HETATM   18  C12 UNL     1      44.398   0.683  93.324  1.00  0.00     0.187 C
HETATM   19  N3  UNL     1      45.165   1.496  92.697  1.00  0.00    -0.373 N
HETATM   20  N4  UNL     1      44.407  -0.684  92.963  1.00  0.00    -0.064 NA
ATOM     21  H32 UNL     1      45.159   2.482  92.958  1.00  0.00     0.158 HD
ATOM     22  H31 UNL     1      45.780   1.183  91.946  1.00  0.00     0.158 HD
ATOM     23  H2  UNL     1      43.780   0.859  95.321  1.00  0.00     0.170 HD
ENDBRANCH   7  17
TORSDOF 6
ENDMDL