MODEL 2
REMARK VINA RESULT: -7.061649208      3.194      4.997
REMARK  4 active torsions:
REMARK  status: ('A' for Active; 'I' for Inactive)
REMARK    1  A    between atoms: C2_2  and  C3_3
REMARK    2  A    between atoms: C3_3  and  C6_6
REMARK    3  A    between atoms: C7_7  and  O1_8
REMARK    4  A    between atoms: C8_10  and  N1_11
ROOT
HETATM    1  C6  UNL     1      40.693   0.614  93.209  1.00  0.00     0.045 C
HETATM    2  C7  UNL     1      40.491  -0.510  92.259  1.00  0.00     0.148 C
HETATM    3  C8  UNL     1      41.785  -1.078  92.873  1.00  0.00     0.132 C
HETATM    4  C10 UNL     1      42.170   0.401  93.066  1.00  0.00     0.044 C
HETATM    5  C11 UNL     1      42.976   0.644  94.313  1.00  0.00     0.030 C
HETATM    6 BR1  UNL     1      43.011   1.013  91.482  1.00  0.00    -0.083 Br
ENDROOT
BRANCH   1   7
HETATM    7  C3  UNL     1      40.112   1.932  92.983  1.00  0.00    -0.040 C
HETATM    8  C4  UNL     1      40.772   2.857  92.035  1.00  0.00     0.015 C
HETATM    9  C5  UNL     1      38.668   1.749  92.517  1.00  0.00     0.015 C
BRANCH   7  10
HETATM   10  C2  UNL     1      40.082   2.659  94.338  1.00  0.00     0.005 C
HETATM   11  C1  UNL     1      40.995   3.860  94.316  1.00  0.00     0.006 C
ENDBRANCH   7  10
ENDBRANCH   1   7
BRANCH   2  12
HETATM   12  O1  UNL     1      40.682  -0.306  90.922  1.00  0.00    -0.393 OA
ATOM     13  H1  UNL     1      41.182  -0.937  90.418  1.00  0.00     0.210 HD
ENDBRANCH   2  12
BRANCH   3  14
HETATM   14  N1  UNL     1      42.617  -1.784  91.958  1.00  0.00    -0.358 N
HETATM   15  C9  UNL     1      43.008  -2.964  92.239  1.00  0.00     0.197 C
HETATM   16  N2  UNL     1      42.629  -3.585  93.440  1.00  0.00    -0.067 NA
HETATM   17  N3  UNL     1      43.831  -3.656  91.326  1.00  0.00    -0.067 NA
ATOM     18  H1  UNL     1      42.900  -1.347  91.081  1.00  0.00     0.162 HD
ENDBRANCH   3  14
TORSDOF 4
ENDMDL