MODEL 5
REMARK VINA RESULT: -7.266608925      2.348      3.183
REMARK  4 active torsions:
REMARK  status: ('A' for Active; 'I' for Inactive)
REMARK    1  A    between atoms: C4_8  and  C5_9
REMARK    2  A    between atoms: C6_11  and  C7_12
REMARK    3  A    between atoms: C11_16  and  S1_17
REMARK    4  A    between atoms: S1_17  and  N3_18
ROOT
HETATM    1  C1  UNL     1      44.739  -1.904  92.440  1.00  0.00     0.044 C
HETATM    2  C2  UNL     1      43.979  -0.850  92.639  1.00  0.00     0.047 A
HETATM    3  N1  UNL     1      44.605   0.451  92.712  1.00  0.00    -0.341 N
ATOM      4  H1  UNL     1      45.615   0.537  92.600  1.00  0.00     0.167 HD
HETATM    5  C3  UNL     1      43.823   1.600  92.939  1.00  0.00     0.117 A
HETATM    6  N2  UNL     1      44.101   2.932  93.059  1.00  0.00    -0.344 N
ATOM      7  H2  UNL     1      45.032   3.345  92.994  1.00  0.00     0.167 HD
HETATM    8  C4  UNL     1      42.969   3.615  93.276  1.00  0.00     0.032 A
HETATM    9  C6  UNL     1      41.949   2.692  93.294  1.00  0.00    -0.021 A
HETATM   10  C9  UNL     1      42.465   1.414  93.083  1.00  0.00     0.018 A
HETATM   11  C10 UNL     1      41.837   0.106  93.009  1.00  0.00     0.043 A
HETATM   12  C11 UNL     1      42.544  -1.020  92.793  1.00  0.00     0.106 A
ENDROOT
BRANCH  12  13
HETATM   13  S1  UNL     1      41.717  -2.562  92.684  1.00  0.00     0.259 S
HETATM   14  O1  UNL     1      42.208  -3.581  93.643  1.00  0.00    -0.201 OA
HETATM   15  O2  UNL     1      42.014  -3.160  91.296  1.00  0.00    -0.201 OA
BRANCH  13  16
HETATM   16  N3  UNL     1      40.019  -2.396  92.751  1.00  0.00    -0.324 N
ATOM     17  H32 UNL     1      39.556  -1.574  93.139  1.00  0.00     0.169 HD
ATOM     18  H31 UNL     1      39.533  -3.205  92.363  1.00  0.00     0.169 HD
ENDBRANCH  13  16
ENDBRANCH  12  13
BRANCH   9  19
HETATM   19  C7  UNL     1      40.475   2.921  93.502  1.00  0.00     0.037 C
HETATM   20  C8  UNL     1      40.100   2.816  94.959  1.00  0.00     0.010 C
ENDBRANCH   9  19
BRANCH   8  21
HETATM   21  C5  UNL     1      42.776   5.073  93.465  1.00  0.00     0.172 C
HETATM   22 CL1  UNL     1      42.365   5.420  95.177  1.00  0.00    -0.124 Cl
ENDBRANCH   8  21
TORSDOF 4
ENDMDL