MODEL 4
REMARK VINA RESULT: -7.056191249      3.425      5.504
REMARK  5 active torsions:
REMARK  status: ('A' for Active; 'I' for Inactive)
REMARK       I    between atoms: C2_2  and  N1_4
REMARK    1  A    between atoms: N1_4  and  C3_6
REMARK    2  A    between atoms: C3_6  and  C4_7
REMARK    3  A    between atoms: C4_7  and  C5_8
REMARK    4  A    between atoms: N4_16  and  C8_18
REMARK    5  A    between atoms: C8_18  and  C9_20
ROOT
HETATM    1  C5  UNL     1      41.658  -1.872  92.623  1.00  0.00     0.155 C
HETATM    2  N2  UNL     1      40.227  -1.918  92.395  1.00  0.00    -0.331 N
ATOM      3  H2  UNL     1      39.571  -2.503  92.911  1.00  0.00     0.165 HD
HETATM    4  C6  UNL     1      39.874  -1.026  91.344  1.00  0.00     0.322 C
HETATM    5  O2  UNL     1      38.821  -1.008  90.654  1.00  0.00    -0.247 OA
HETATM    6  N3  UNL     1      40.988  -0.139  91.233  1.00  0.00    -0.296 N
ATOM      7  H3  UNL     1      41.058   0.629  90.566  1.00  0.00     0.172 HD
HETATM    8  C7  UNL     1      41.984  -0.484  92.189  1.00  0.00     0.109 C
HETATM    9  N4  UNL     1      42.979   0.261  92.601  1.00  0.00    -0.337 N
ATOM     10  H4  UNL     1      43.642  -0.085  93.295  1.00  0.00     0.168 HD
ENDROOT
BRANCH   1  11
HETATM   11  C4  UNL     1      42.283  -2.850  91.641  1.00  0.00     0.053 C
BRANCH  11  12
HETATM   12  C3  UNL     1      43.252  -3.703  92.382  1.00  0.00     0.125 C
BRANCH  12  13
HETATM   13  N1  UNL     1      44.335  -3.022  93.006  1.00  0.00    -0.361 N
HETATM   14  C2  UNL     1      45.628  -3.536  93.034  1.00  0.00     0.213 C
HETATM   15  C1  UNL     1      46.778  -2.822  93.688  1.00  0.00     0.117 C
HETATM   16  O1  UNL     1      45.909  -4.644  92.508  1.00  0.00    -0.274 OA
ATOM     17  H1  UNL     1      44.156  -2.121  93.451  1.00  0.00     0.162 HD
ENDBRANCH  12  13
ENDBRANCH  11  12
ENDBRANCH   1  11
BRANCH   9  18
HETATM   18  C8  UNL     1      43.109   1.559  92.059  1.00  0.00     0.102 C
HETATM   19  S1  UNL     1      43.973   1.725  90.684  1.00  0.00    -0.063 SA
BRANCH  18  20
HETATM   20  C9  UNL     1      42.501   2.747  92.684  1.00  0.00     0.083 C
HETATM   21  C10 UNL     1      42.338   2.548  94.160  1.00  0.00     0.040 C
HETATM   22  C11 UNL     1      43.369   3.988  92.492  1.00  0.00     0.040 C
HETATM   23 CL1  UNL     1      40.896   3.116  92.004  1.00  0.00    -0.112 Cl
ENDBRANCH  18  20
ENDBRANCH   9  18
TORSDOF 5
ENDMDL