MODEL 3
REMARK VINA RESULT: -8.514372669      1.424      1.860
REMARK  5 active torsions:
REMARK  status: ('A' for Active; 'I' for Inactive)
REMARK    1  A    between atoms: C3_3  and  O1_4
REMARK    2  A    between atoms: C5_9  and  C6_10
REMARK    3  A    between atoms: C6_10  and  C7_11
REMARK    4  A    between atoms: C13_20  and  C14_21
REMARK    5  A    between atoms: C14_21  and  C15_22
ROOT
HETATM    1  C7  UNL     1      42.637   0.455  92.120  1.00  0.00    -0.005 A
HETATM    2  C8  UNL     1      43.389   1.085  91.128  1.00  0.00     0.019 A
HETATM    3  C9  UNL     1      43.470   2.549  91.134  1.00  0.00     0.069 C
HETATM    4  N2  UNL     1      44.052   0.375  90.173  1.00  0.00    -0.326 N
ATOM      5  H2  UNL     1      44.588   0.881  89.469  1.00  0.00     0.169 HD
HETATM    6  C10 UNL     1      44.027  -0.952  90.124  1.00  0.00     0.252 A
HETATM    7  O2  UNL     1      44.669  -1.524  89.207  1.00  0.00    -0.268 OA
HETATM    8  C11 UNL     1      43.304  -1.618  91.074  1.00  0.00     0.013 A
HETATM    9  C12 UNL     1      43.245  -3.097  91.065  1.00  0.00     0.054 C
HETATM   10  C13 UNL     1      42.610  -0.916  92.072  1.00  0.00    -0.035 A
ENDROOT
BRANCH   1  11
HETATM   11  C6  UNL     1      41.972   1.232  93.133  1.00  0.00     0.044 C
BRANCH  11  12
HETATM   12  C5  UNL     1      40.800   1.796  93.090  1.00  0.00     0.045 A
HETATM   13  C2  UNL     1      40.270   2.669  94.003  1.00  0.00     0.016 A
HETATM   14  C1  UNL     1      40.867   3.125  95.122  1.00  0.00     0.028 C
HETATM   15  C3  UNL     1      39.001   3.024  93.601  1.00  0.00     0.092 A
HETATM   16  C4  UNL     1      38.767   2.352  92.427  1.00  0.00     0.125 A
HETATM   17  N1  UNL     1      39.869   1.621  92.148  1.00  0.00    -0.362 N
ATOM     18  H1  UNL     1      39.975   1.020  91.331  1.00  0.00     0.165 HD
BRANCH  15  19
HETATM   19  O1  UNL     1      38.169   3.884  94.271  1.00  0.00    -0.358 OA
ATOM     20  H1  UNL     1      37.485   3.625  94.877  1.00  0.00     0.217 HD
ENDBRANCH  15  19
ENDBRANCH  11  12
ENDBRANCH   1  11
BRANCH  10  21
HETATM   21  C14 UNL     1      41.830  -1.690  93.061  1.00  0.00     0.040 C
BRANCH  21  22
HETATM   22  C15 UNL     1      40.698  -2.381  92.392  1.00  0.00     0.000 C
HETATM   23  C16 UNL     1      39.362  -1.685  92.645  1.00  0.00     0.005 C
ENDBRANCH  21  22
ENDBRANCH  10  21
TORSDOF 5
ENDMDL