MODEL 2
REMARK VINA RESULT: -8.778984417      0.574      1.678
REMARK  5 active torsions:
REMARK  status: ('A' for Active; 'I' for Inactive)
REMARK    1  A    between atoms: N1_2  and  C2_4
REMARK    2  A    between atoms: C6_10  and  C7_11
REMARK    3  A    between atoms: C7_11  and  C8_12
REMARK    4  A    between atoms: C8_12  and  N3_13
REMARK    5  A    between atoms: N3_13  and  C9_15
ROOT
HETATM    1  N3  UNL     1      38.859   1.134  92.169  1.00  0.00    -0.226 N
ATOM      2  H3  UNL     1      37.973   1.579  91.930  1.00  0.00     0.177 HD
ENDROOT
BRANCH   1   3
HETATM    3  C8  UNL     1      38.915  -0.290  92.247  1.00  0.00     0.142 C
BRANCH   3   4
HETATM    4  C7  UNL     1      39.715  -0.918  91.097  1.00  0.00     0.062 C
BRANCH   4   5
HETATM    5  C6  UNL     1      40.837  -1.690  91.680  1.00  0.00    -0.013 A
HETATM    6  C2  UNL     1      42.120  -1.503  91.223  1.00  0.00     0.106 A
HETATM    7  N2  UNL     1      43.140  -2.215  91.782  1.00  0.00    -0.352 N
HETATM    8  C3  UNL     1      42.926  -3.103  92.777  1.00  0.00     0.089 A
ATOM      9  H2  UNL     1      44.089  -2.072  91.440  1.00  0.00     0.166 HD
HETATM   10  C4  UNL     1      41.643  -3.295  93.237  1.00  0.00     0.018 A
HETATM   11  C5  UNL     1      40.577  -2.602  92.707  1.00  0.00     0.012 A
BRANCH   6  12
HETATM   12  N1  UNL     1      42.292  -0.659  90.268  1.00  0.00    -0.380 N
HETATM   13  C1  UNL     1      43.616  -0.164  90.007  1.00  0.00     0.147 C
ATOM     14  H1  UNL     1      41.502  -0.347  89.703  1.00  0.00     0.160 HD
ENDBRANCH   6  12
ENDBRANCH   4   5
ENDBRANCH   3   4
ENDBRANCH   1   3
BRANCH   1  15
HETATM   15  C9  UNL     1      39.875   1.867  92.386  1.00  0.00     0.679 A
HETATM   16  N4  UNL     1      40.896   1.994  91.498  1.00  0.00    -0.190 N
HETATM   17  C10 UNL     1      41.826   2.833  91.999  1.00  0.00     0.077 A
ATOM     18  H4  UNL     1      40.950   1.528  90.593  1.00  0.00     0.184 HD
HETATM   19  C11 UNL     1      43.047   3.331  91.565  1.00  0.00     0.035 A
HETATM   20  C16 UNL     1      41.386   3.250  93.242  1.00  0.00     0.085 A
HETATM   21  C12 UNL     1      43.816   4.199  92.294  1.00  0.00     0.045 A
HETATM   22  C13 UNL     1      43.359   4.606  93.538  1.00  0.00     0.124 A
HETATM   23  F1  UNL     1      44.102   5.471  94.291  1.00  0.00    -0.205 F
HETATM   24  C14 UNL     1      42.147   4.124  93.990  1.00  0.00     0.006 A
HETATM   25  C15 UNL     1      41.659   4.563  95.322  1.00  0.00     0.054 C
HETATM   26  N5  UNL     1      40.197   2.638  93.435  1.00  0.00    -0.189 N
ATOM     27  H5  UNL     1      39.620   2.748  94.269  1.00  0.00     0.184 HD
ENDBRANCH   1  15
TORSDOF 5
ENDMDL