MODEL 5
REMARK VINA RESULT: -6.627002987      2.177      3.379
REMARK  4 active torsions:
REMARK  status: ('A' for Active; 'I' for Inactive)
REMARK    1  A    between atoms: C2_2  and  N1_3
REMARK       I    between atoms: N3_9  and  C6_11
REMARK       I    between atoms: C6_11  and  N4_13
REMARK    2  A    between atoms: N4_13  and  C7_15
REMARK    3  A    between atoms: C7_15  and  C9_17
REMARK       I    between atoms: C9_17  and  N5_19
REMARK    4  A    between atoms: N5_19  and  C10_21
ROOT
HETATM    1  N1  UNL     1      47.571   1.001  92.300  1.00  0.00    -0.192 N
HETATM    2  C3  UNL     1      47.819   1.909  91.342  1.00  0.00     0.126 A
HETATM    3  C4  UNL     1      46.591   2.402  90.955  1.00  0.00     0.124 A
HETATM    4  N2  UNL     1      45.648   1.782  91.685  1.00  0.00    -0.200 N
ATOM      5  H2  UNL     1      44.644   1.946  91.615  1.00  0.00     0.183 HD
HETATM    6  C5  UNL     1      46.247   0.900  92.534  1.00  0.00     0.688 A
HETATM    7  N3  UNL     1      45.692   0.116  93.397  1.00  0.00    -0.141 N
ATOM      8  H3  UNL     1      46.257  -0.503  93.978  1.00  0.00     0.189 HD
HETATM    9  C6  UNL     1      44.276   0.131  93.519  1.00  0.00     0.335 C
HETATM   10  O1  UNL     1      43.755   1.238  93.854  1.00  0.00    -0.246 OA
HETATM   11  N4  UNL     1      43.467  -1.007  93.288  1.00  0.00    -0.330 N
ATOM     12  H4  UNL     1      43.910  -1.886  93.020  1.00  0.00     0.165 HD
ENDROOT
BRANCH  11  13
HETATM   13  C7  UNL     1      42.035  -0.955  93.422  1.00  0.00     0.174 C
HETATM   14  C8  UNL     1      41.346  -2.096  92.710  1.00  0.00     0.042 C
BRANCH  13  15
HETATM   15  C9  UNL     1      41.489   0.309  92.850  1.00  0.00     0.241 C
HETATM   16  O2  UNL     1      41.512   0.420  91.580  1.00  0.00    -0.271 OA
HETATM   17  N5  UNL     1      40.968   1.349  93.616  1.00  0.00    -0.337 N
ATOM     18  H5  UNL     1      40.948   1.266  94.633  1.00  0.00     0.164 HD
BRANCH  17  19
HETATM   19  C10 UNL     1      40.458   2.541  92.989  1.00  0.00     0.102 C
HETATM   20  C11 UNL     1      39.034   2.272  92.508  1.00  0.00     0.056 C
HETATM   21  C12 UNL     1      40.441   3.706  93.969  1.00  0.00     0.056 C
HETATM   22 CL1  UNL     1      41.405   3.026  91.571  1.00  0.00    -0.096 Cl
ENDBRANCH  17  19
ENDBRANCH  13  15
ENDBRANCH  11  13
BRANCH   1  23
HETATM   23  C2  UNL     1      48.569   0.222  93.005  1.00  0.00     0.142 C
HETATM   24  C1  UNL     1      49.831   0.030  92.229  1.00  0.00     0.027 C
ENDBRANCH   1  23
TORSDOF 4
ENDMDL