MODEL 3
REMARK VINA RESULT: -9.207917058      2.346      2.786
REMARK  4 active torsions:
REMARK  status: ('A' for Active; 'I' for Inactive)
REMARK    1  A    between atoms: N1_10  and  C9_12
REMARK    2  A    between atoms: C9_12  and  C10_13
REMARK    3  A    between atoms: C10_13  and  C11_14
REMARK    4  A    between atoms: C11_14  and  N2_15
ROOT
HETATM    1  C1  UNL     1      38.246  -1.047  92.318  1.00  0.00     0.051 C
HETATM    2  C2  UNL     1      39.650  -0.556  92.548  1.00  0.00    -0.023 A
HETATM    3  C3  UNL     1      39.930   0.789  92.595  1.00  0.00     0.018 A
HETATM    4  C4  UNL     1      41.229   1.227  92.808  1.00  0.00    -0.041 A
HETATM    5  C5  UNL     1      42.281   0.368  92.979  1.00  0.00     0.017 A
HETATM    6  C6  UNL     1      41.977  -0.994  92.928  1.00  0.00     0.058 A
HETATM    7  C7  UNL     1      40.692  -1.441  92.717  1.00  0.00     0.123 A
HETATM    8  F1  UNL     1      40.437  -2.781  92.674  1.00  0.00    -0.206 F
HETATM    9  C8  UNL     1      43.633   0.841  93.200  1.00  0.00     0.108 C
HETATM   10  N1  UNL     1      44.605   0.007  93.358  1.00  0.00    -0.376 N
ATOM     11  H1  UNL     1      44.385  -0.988  93.322  1.00  0.00     0.161 HD
HETATM   12  N5  UNL     1      43.845   2.243  93.235  1.00  0.00    -0.367 N
ATOM     13  H5  UNL     1      44.659   2.639  93.705  1.00  0.00     0.162 HD
HETATM   14  C13 UNL     1      42.875   3.088  92.587  1.00  0.00     0.028 C
HETATM   15  C14 UNL     1      43.197   3.060  91.095  1.00  0.00     0.038 C
HETATM   16  C15 UNL     1      43.044   4.541  93.047  1.00  0.00     0.038 C
HETATM   17  C16 UNL     1      41.467   2.691  92.849  1.00  0.00     0.069 C
ENDROOT
BRANCH  10  18
HETATM   18  C9  UNL     1      45.964   0.376  93.580  1.00  0.00     0.123 C
BRANCH  18  19
HETATM   19  C10 UNL     1      46.790  -0.703  94.221  1.00  0.00     0.039 C
BRANCH  19  20
HETATM   20  C11 UNL     1      46.868  -1.868  93.230  1.00  0.00     0.123 C
BRANCH  20  21
HETATM   21  N2  UNL     1      45.886  -2.870  93.543  1.00  0.00    -0.367 N
HETATM   22  C12 UNL     1      44.935  -3.099  92.708  1.00  0.00     0.196 C
HETATM   23  N3  UNL     1      44.804  -2.414  91.492  1.00  0.00    -0.067 NA
HETATM   24  N4  UNL     1      43.979  -4.099  93.049  1.00  0.00    -0.067 NA
ATOM     25  H2  UNL     1      45.942  -3.393  94.417  1.00  0.00     0.161 HD
ENDBRANCH  20  21
ENDBRANCH  19  20
ENDBRANCH  18  19
ENDBRANCH  10  18
TORSDOF 4
ENDMDL