MODEL 1
REMARK VINA RESULT: -8.505726117      0.000      0.000
REMARK  5 active torsions:
REMARK  status: ('A' for Active; 'I' for Inactive)
REMARK    1  A    between atoms: C6_8  and  N2_9
REMARK    2  A    between atoms: C7_14  and  N4_15
REMARK    3  A    between atoms: N4_15  and  C8_17
REMARK    4  A    between atoms: C8_17  and  C9_18
REMARK    5  A    between atoms: C9_18  and  N5_19
ROOT
HETATM    1  C1  UNL     1      48.004   0.408  93.609  1.00  0.00     0.018 C
HETATM    2  C2  UNL     1      47.219   0.816  92.786  1.00  0.00    -0.072 C
HETATM    3  C3  UNL     1      46.279   1.283  91.817  1.00  0.00     0.083 A
HETATM    4  C4  UNL     1      46.755   1.711  90.596  1.00  0.00     0.045 A
HETATM    5  C5  UNL     1      48.198   1.714  90.245  1.00  0.00     0.070 C
HETATM    6  N1  UNL     1      45.849   2.146  89.706  1.00  0.00    -0.195 N
ATOM      7  H1  UNL     1      46.167   2.470  88.792  1.00  0.00     0.184 HD
HETATM    8  C6  UNL     1      44.528   2.166  89.988  1.00  0.00     0.677 A
HETATM    9  N3  UNL     1      44.074   1.747  91.182  1.00  0.00    -0.176 N
ATOM     10  H3  UNL     1      43.073   1.772  91.372  1.00  0.00     0.186 HD
HETATM   11  C7  UNL     1      44.913   1.295  92.131  1.00  0.00     0.137 A
ENDROOT
BRANCH  11  12
HETATM   12  N4  UNL     1      44.556   0.879  93.292  1.00  0.00    -0.373 N
ATOM     13  H4  UNL     1      45.211   0.378  93.893  1.00  0.00     0.161 HD
BRANCH  12  14
HETATM   14  C8  UNL     1      43.200   1.137  93.725  1.00  0.00     0.140 C
BRANCH  14  15
HETATM   15  C9  UNL     1      42.444  -0.134  94.054  1.00  0.00     0.137 C
BRANCH  15  16
HETATM   16  N5  UNL     1      41.557  -0.401  92.978  1.00  0.00    -0.407 N
HETATM   17  C10 UNL     1      40.768   0.675  92.496  1.00  0.00     0.121 C
HETATM   18  C11 UNL     1      39.278   0.451  92.710  1.00  0.00    -0.001 C
HETATM   19  C12 UNL     1      38.495   1.662  92.359  1.00  0.00     0.011 C
HETATM   20  C13 UNL     1      38.963  -0.765  91.838  1.00  0.00     0.008 C
HETATM   21  C14 UNL     1      39.665  -1.925  92.537  1.00  0.00     0.025 C
HETATM   22  C15 UNL     1      41.111  -1.704  92.774  1.00  0.00     0.075 C
HETATM   23  C16 UNL     1      41.872  -2.316  91.589  1.00  0.00     0.032 C
ENDBRANCH  15  16
ENDBRANCH  14  15
ENDBRANCH  12  14
ENDBRANCH  11  12
BRANCH   8  24
HETATM   24  N2  UNL     1      43.668   2.586  89.129  1.00  0.00    -0.234 N
ATOM     25  H22 UNL     1      43.650   3.583  88.917  1.00  0.00     0.174 HD
ATOM     26  H21 UNL     1      43.021   1.945  88.670  1.00  0.00     0.174 HD
ENDBRANCH   8  24
TORSDOF 5
ENDMDL