MODEL 3
REMARK VINA RESULT: -8.517151345      3.127      4.908
REMARK  6 active torsions:
REMARK  status: ('A' for Active; 'I' for Inactive)
REMARK    1  A    between atoms: C2_2  and  N1_3
REMARK    2  A    between atoms: C2_2  and  C7_16
REMARK    3  A    between atoms: C3_5  and  O1_6
REMARK    4  A    between atoms: C3_5  and  C4_8
REMARK    5  A    between atoms: C7_16  and  C9_18
REMARK    6  A    between atoms: C13_24  and  C14_25
ROOT
HETATM    1  C14 UNL     1      41.438  -0.290  92.787  1.00  0.00    -0.029 C
HETATM    2  C15 UNL     1      42.384  -1.066  92.886  1.00  0.00     0.111 C
HETATM    3  F1  UNL     1      43.407  -1.948  92.990  1.00  0.00    -0.143 F
ENDROOT
BRANCH   1   4
HETATM    4  C13 UNL     1      40.335   0.589  92.586  1.00  0.00     0.050 A
HETATM    5  C9  UNL     1      40.111   1.783  93.314  1.00  0.00    -0.013 A
HETATM    6  C10 UNL     1      38.887   2.231  92.890  1.00  0.00     0.097 A
HETATM    7  N4  UNL     1      38.394   1.360  91.950  1.00  0.00    -0.368 N
HETATM    8  C11 UNL     1      39.259   0.376  91.772  1.00  0.00     0.024 A
ATOM      9  H4  UNL     1      37.502   1.457  91.465  1.00  0.00     0.165 HD
HETATM   10  C12 UNL     1      39.099  -0.798  90.852  1.00  0.00     0.070 C
BRANCH   5  11
HETATM   11  C7  UNL     1      41.144   2.368  94.156  1.00  0.00     0.062 C
HETATM   12  C8  UNL     1      40.417   3.043  95.367  1.00  0.00     0.021 C
BRANCH  11  13
HETATM   13  C2  UNL     1      41.797   3.622  93.497  1.00  0.00    -0.007 C
HETATM   14  C1  UNL     1      41.728   4.801  94.406  1.00  0.00     0.064 C
BRANCH  13  15
HETATM   15  N1  UNL     1      42.149   3.697  92.357  1.00  0.00    -0.342 N
HETATM   16  C3  UNL     1      42.834   3.157  91.340  1.00  0.00     0.169 C
ATOM     17  H1  UNL     1      41.745   4.561  91.996  1.00  0.00     0.167 HD
BRANCH  16  18
HETATM   18  O1  UNL     1      42.267   3.162  90.136  1.00  0.00    -0.344 OA
ATOM     19  H1  UNL     1      42.817   3.362  89.387  1.00  0.00     0.219 HD
ENDBRANCH  16  18
BRANCH  16  20
HETATM   20  C4  UNL     1      44.158   2.547  91.275  1.00  0.00     0.103 A
HETATM   21  C5  UNL     1      44.856   1.988  92.353  1.00  0.00     0.127 A
HETATM   22  N2  UNL     1      45.990   1.427  91.937  1.00  0.00    -0.316 N
HETATM   23  C6  UNL     1      46.072   1.600  90.584  1.00  0.00     0.324 A
ATOM     24  H2  UNL     1      46.676   0.953  92.524  1.00  0.00     0.170 HD
HETATM   25  O2  UNL     1      46.974   1.219  89.810  1.00  0.00    -0.247 OA
HETATM   26  N3  UNL     1      44.951   2.280  90.225  1.00  0.00    -0.304 N
ATOM     27  H3  UNL     1      44.736   2.555  89.267  1.00  0.00     0.171 HD
ENDBRANCH  16  20
ENDBRANCH  13  15
ENDBRANCH  11  13
ENDBRANCH   5  11
ENDBRANCH   1   4
TORSDOF 6
ENDMDL