MODEL 1
REMARK VINA RESULT: -7.423148774      0.000      0.000
REMARK  6 active torsions:
REMARK  status: ('A' for Active; 'I' for Inactive)
REMARK    1  A    between atoms: C2_2  and  S1_3
REMARK    2  A    between atoms: S1_3  and  N1_6
REMARK    3  A    between atoms: N1_6  and  C3_8
REMARK    4  A    between atoms: C4_11  and  C5_12
REMARK    5  A    between atoms: C6_13  and  C7_14
REMARK    6  A    between atoms: C8_16  and  C9_17
ROOT
HETATM    1  C3  UNL     1      42.288  -1.112  92.967  1.00  0.00     0.693 A
HETATM    2  N2  UNL     1      42.948  -0.045  93.448  1.00  0.00    -0.181 N
ATOM      3  H2  UNL     1      43.879  -0.056  93.866  1.00  0.00     0.185 HD
HETATM    4  C4  UNL     1      42.167   1.042  93.281  1.00  0.00     0.131 A
HETATM    5  C8  UNL     1      40.989   0.668  92.684  1.00  0.00     0.097 A
HETATM    6  N4  UNL     1      41.113  -0.687  92.509  1.00  0.00    -0.187 N
ATOM      7  H4  UNL     1      40.404  -1.286  92.087  1.00  0.00     0.184 HD
ENDROOT
BRANCH   1   8
HETATM    8  N1  UNL     1      42.686  -2.347  92.935  1.00  0.00    -0.116 N
ATOM      9  H1  UNL     1      42.246  -3.042  93.538  1.00  0.00     0.197 HD
BRANCH   8  10
HETATM   10  S1  UNL     1      43.954  -2.809  91.875  1.00  0.00     0.243 S
HETATM   11  O1  UNL     1      43.968  -4.325  91.834  1.00  0.00    -0.205 OA
HETATM   12  O2  UNL     1      45.238  -2.256  92.379  1.00  0.00    -0.205 OA
BRANCH  10  13
HETATM   13  C2  UNL     1      43.542  -2.206  90.249  1.00  0.00     0.159 C
HETATM   14  C1  UNL     1      44.164  -0.874  89.959  1.00  0.00     0.023 C
ENDBRANCH  10  13
ENDBRANCH   8  10
ENDBRANCH   1   8
BRANCH   4  15
HETATM   15  C5  UNL     1      42.575   2.364  93.692  1.00  0.00    -0.043 C
HETATM   16  C6  UNL     1      42.888   3.477  94.030  1.00  0.00    -0.068 C
BRANCH  16  17
HETATM   17  C7  UNL     1      43.263   4.836  94.437  1.00  0.00     0.316 C
HETATM   18  F1  UNL     1      42.832   5.156  95.690  1.00  0.00    -0.242 F
ENDBRANCH  16  17
ENDBRANCH   4  15
BRANCH   5  19
HETATM   19  C9  UNL     1      39.846   1.464  92.305  1.00  0.00     0.011 A
HETATM   20  C10 UNL     1      39.514   2.724  92.665  1.00  0.00     0.032 A
HETATM   21  C11 UNL     1      38.313   3.097  92.053  1.00  0.00     0.088 A
HETATM   22  N3  UNL     1      37.929   2.038  91.319  1.00  0.00    -0.374 N
HETATM   23  C12 UNL     1      38.829   1.050  91.453  1.00  0.00     0.101 A
ATOM     24  H3  UNL     1      37.085   1.992  90.748  1.00  0.00     0.164 HD
ENDBRANCH   5  19
TORSDOF 6
ENDMDL