MODEL 2
REMARK VINA RESULT: -9.394166944      0.847      3.011
REMARK  3 active torsions:
REMARK  status: ('A' for Active; 'I' for Inactive)
REMARK    1  A    between atoms: C3_7  and  N3_8
REMARK    2  A    between atoms: N3_8  and  C4_10
REMARK    3  A    between atoms: C4_10  and  C5_11
ROOT
HETATM    1  C1  UNL     1      45.255   2.561  89.979  1.00  0.00     0.147 C
HETATM    2  N1  UNL     1      43.909   2.386  90.227  1.00  0.00    -0.378 N
ATOM      3  H1  UNL     1      43.491   1.707  89.591  1.00  0.00     0.160 HD
HETATM    4  C2  UNL     1      43.083   2.839  91.022  1.00  0.00     0.147 A
HETATM    5  N2  UNL     1      41.771   2.415  90.976  1.00  0.00    -0.175 N
ATOM      6  H2  UNL     1      41.518   1.724  90.270  1.00  0.00     0.186 HD
HETATM    7  C3  UNL     1      40.817   2.847  91.788  1.00  0.00     0.681 A
HETATM    8  N4  UNL     1      41.146   3.754  92.714  1.00  0.00    -0.174 N
ATOM      9  H4  UNL     1      40.426   4.098  93.349  1.00  0.00     0.186 HD
HETATM   10  C11 UNL     1      42.415   4.231  92.835  1.00  0.00     0.155 A
HETATM   11  C12 UNL     1      43.423   3.783  91.986  1.00  0.00     0.123 A
HETATM   12  N5  UNL     1      44.538   4.429  92.352  1.00  0.00    -0.340 N
ATOM     13  H5  UNL     1      45.461   4.328  91.929  1.00  0.00     0.167 HD
HETATM   14  C13 UNL     1      44.214   5.246  93.393  1.00  0.00     0.081 A
HETATM   15  C14 UNL     1      45.194   6.140  94.087  1.00  0.00     0.089 C
HETATM   16  N6  UNL     1      42.932   5.132  93.692  1.00  0.00    -0.325 N
HETATM   17  C15 UNL     1      42.185   5.833  94.742  1.00  0.00     0.159 C
ENDROOT
BRANCH   7  18
HETATM   18  N3  UNL     1      39.603   2.399  91.681  1.00  0.00    -0.222 N
ATOM     19  H3  UNL     1      39.033   2.739  90.905  1.00  0.00     0.178 HD
BRANCH  18  20
HETATM   20  C4  UNL     1      39.017   1.460  92.581  1.00  0.00     0.176 C
BRANCH  20  21
HETATM   21  C5  UNL     1      39.807   0.197  92.645  1.00  0.00    -0.040 A
HETATM   22  C6  UNL     1      41.080   0.222  93.125  1.00  0.00     0.012 A
HETATM   23  C7  UNL     1      41.847  -0.921  93.202  1.00  0.00     0.043 A
HETATM   24  C8  UNL     1      41.326  -2.125  92.785  1.00  0.00     0.116 A
HETATM   25  F1  UNL     1      42.080  -3.270  92.857  1.00  0.00    -0.206 F
HETATM   26  C9  UNL     1      40.041  -2.156  92.300  1.00  0.00     0.043 A
HETATM   27  C10 UNL     1      39.291  -1.008  92.231  1.00  0.00     0.012 A
ENDBRANCH  20  21
ENDBRANCH  18  20
ENDBRANCH   7  18
TORSDOF 3
ENDMDL