MODEL 2
REMARK VINA RESULT: -7.065261296      1.359      1.629
REMARK  4 active torsions:
REMARK  status: ('A' for Active; 'I' for Inactive)
REMARK    1  A    between atoms: C2_2  and  N1_3
REMARK       I    between atoms: C3_5  and  N2_6
REMARK       I    between atoms: C3_5  and  N5_21
REMARK    2  A    between atoms: N2_6  and  C4_8
REMARK    3  A    between atoms: C6_12  and  S1_13
REMARK    4  A    between atoms: S1_13  and  C7_16
ROOT
HETATM    1  C4  UNL     1      44.302   2.780  91.806  1.00  0.00     0.697 A
HETATM    2  N3  UNL     1      45.463   2.632  91.151  1.00  0.00    -0.198 N
ATOM      3  H3  UNL     1      46.101   3.378  90.875  1.00  0.00     0.183 HD
HETATM    4  C5  UNL     1      45.627   1.333  90.930  1.00  0.00     0.148 A
HETATM    5  C6  UNL     1      44.545   0.656  91.458  1.00  0.00     0.160 A
HETATM    6  N4  UNL     1      43.728   1.589  92.003  1.00  0.00    -0.179 N
ATOM      7  H4  UNL     1      42.840   1.416  92.474  1.00  0.00     0.185 HD
ENDROOT
BRANCH   1   8
HETATM    8  N2  UNL     1      43.829   3.922  92.183  1.00  0.00    -0.022 N
HETATM    9  C3  UNL     1      42.860   4.071  93.191  1.00  0.00     0.688 C
HETATM   10  N1  UNL     1      41.607   3.878  92.980  1.00  0.00    -0.226 N
HETATM   11  N5  UNL     1      43.295   4.447  94.486  1.00  0.00    -0.230 N
ATOM     12  H1  UNL     1      41.286   3.605  92.051  1.00  0.00     0.177 HD
HETATM   13  C10 UNL     1      43.421   5.848  94.809  1.00  0.00     0.165 C
ATOM     14  H5  UNL     1      43.517   3.735  95.182  1.00  0.00     0.177 HD
ATOM     15  H2  UNL     1      44.179   4.763  91.723  1.00  0.00     0.203 HD
BRANCH  10  16
HETATM   16  C2  UNL     1      40.657   4.043  94.040  1.00  0.00     0.133 C
HETATM   17  C1  UNL     1      39.906   2.749  94.246  1.00  0.00     0.027 C
ENDBRANCH  10  16
ENDBRANCH   1   8
BRANCH   5  18
HETATM   18  S1  UNL     1      44.207  -1.021  91.476  1.00  0.00     0.196 S
HETATM   19  O1  UNL     1      44.431  -1.565  90.074  1.00  0.00    -0.221 OA
HETATM   20  O2  UNL     1      45.195  -1.731  92.358  1.00  0.00    -0.221 OA
BRANCH  18  21
HETATM   21  C7  UNL     1      42.595  -1.459  91.984  1.00  0.00     0.107 C
HETATM   22  C8  UNL     1      42.414  -2.881  92.375  1.00  0.00     0.026 C
HETATM   23  C9  UNL     1      41.610  -1.057  90.881  1.00  0.00     0.026 C
ENDBRANCH  18  21
ENDBRANCH   5  18
TORSDOF 4
ENDMDL