MODEL 3
REMARK VINA RESULT: -8.416840406      1.966      2.477
REMARK  4 active torsions:
REMARK  status: ('A' for Active; 'I' for Inactive)
REMARK    1  A    between atoms: C5_6  and  C6_7
REMARK    2  A    between atoms: C6_7  and  C7_8
REMARK    3  A    between atoms: C12_15  and  C13_16
REMARK    4  A    between atoms: N2_17  and  N3_19
ROOT
HETATM    1  C7  UNL     1      40.931   1.806  92.545  1.00  0.00     0.045 A
HETATM    2  N1  UNL     1      40.019   1.907  93.510  1.00  0.00    -0.356 N
ATOM      3  H1  UNL     1      39.261   1.240  93.661  1.00  0.00     0.166 HD
HETATM    4  C8  UNL     1      40.229   3.025  94.276  1.00  0.00     0.030 A
HETATM    5  C9  UNL     1      39.506   3.420  95.313  1.00  0.00     0.043 C
HETATM    6  C10 UNL     1      41.317   3.677  93.793  1.00  0.00    -0.022 A
HETATM    7  C11 UNL     1      41.911   4.942  94.316  1.00  0.00     0.051 C
HETATM    8  C12 UNL     1      41.759   2.939  92.729  1.00  0.00     0.016 A
ENDROOT
BRANCH   1   9
HETATM    9  C6  UNL     1      41.150   0.944  91.588  1.00  0.00     0.045 C
BRANCH   9  10
HETATM   10  C5  UNL     1      41.913  -0.275  91.546  1.00  0.00     0.003 A
HETATM   11  C4  UNL     1      41.279  -1.549  91.970  1.00  0.00     0.047 A
HETATM   12  C3  UNL     1      41.863  -2.708  91.976  1.00  0.00     0.053 A
HETATM   13 CL1  UNL     1      39.597  -1.461  92.507  1.00  0.00    -0.083 Cl
HETATM   14  C2  UNL     1      43.240  -2.827  91.545  1.00  0.00     0.024 A
HETATM   15  C1  UNL     1      43.881  -3.995  91.534  1.00  0.00     0.043 C
HETATM   16  N4  UNL     1      43.889  -1.646  91.132  1.00  0.00    -0.366 N
HETATM   17  C15 UNL     1      43.155  -0.393  91.159  1.00  0.00     0.101 A
ATOM     18  H4  UNL     1      44.859  -1.671  90.818  1.00  0.00     0.165 HD
ENDBRANCH   9  10
ENDBRANCH   1   9
BRANCH   8  19
HETATM   19  C13 UNL     1      42.922   3.306  91.930  1.00  0.00     0.121 C
HETATM   20  N2  UNL     1      44.111   2.880  92.243  1.00  0.00    -0.316 N
ATOM     21  H2  UNL     1      44.222   2.281  93.061  1.00  0.00     0.185 HD
BRANCH  20  22
HETATM   22  N3  UNL     1      45.226   3.211  91.506  1.00  0.00    -0.341 N
HETATM   23  C14 UNL     1      45.927   2.203  90.757  1.00  0.00     0.167 C
ATOM     24  H3  UNL     1      45.557   4.176  91.492  1.00  0.00     0.179 HD
ENDBRANCH  20  22
ENDBRANCH   8  19
TORSDOF 4
ENDMDL