MODEL 3
REMARK VINA RESULT: -7.843746586      2.235      4.458
REMARK  6 active torsions:
REMARK  status: ('A' for Active; 'I' for Inactive)
REMARK    1  A    between atoms: C2_2  and  C3_3
REMARK    2  A    between atoms: C3_3  and  N1_4
REMARK    3  A    between atoms: N1_4  and  C4_6
REMARK    4  A    between atoms: C5_9  and  N3_10
REMARK    5  A    between atoms: C7_15  and  N5_16
REMARK    6  A    between atoms: N5_16  and  C8_18
ROOT
HETATM    1  C4  UNL     1      44.000   2.929  92.384  1.00  0.00     0.707 A
HETATM    2  N2  UNL     1      45.004   2.981  91.490  1.00  0.00    -0.022 N
ATOM      3  H2  UNL     1      45.344   3.896  91.195  1.00  0.00     0.203 HD
HETATM    4  C5  UNL     1      45.578   1.893  90.968  1.00  0.00     0.706 A
HETATM    5  N4  UNL     1      45.141   0.669  91.346  1.00  0.00    -0.022 N
ATOM      6  H4  UNL     1      45.565  -0.175  90.960  1.00  0.00     0.203 HD
HETATM    7  C7  UNL     1      44.139   0.582  92.240  1.00  0.00     0.707 A
HETATM    8  N6  UNL     1      43.569   1.707  92.757  1.00  0.00    -0.021 N
ATOM      9  H6  UNL     1      42.809   1.623  93.432  1.00  0.00     0.203 HD
ENDROOT
BRANCH   7  10
HETATM   10  N5  UNL     1      43.712  -0.563  92.608  1.00  0.00    -0.220 N
ATOM     11  H5  UNL     1      44.218  -1.040  93.354  1.00  0.00     0.178 HD
BRANCH  10  12
HETATM   12  C8  UNL     1      42.577  -1.224  92.049  1.00  0.00     0.101 C
HETATM   13  C9  UNL     1      41.667  -1.741  93.139  1.00  0.00     0.027 C
HETATM   14  C10 UNL     1      40.364  -1.930  92.389  1.00  0.00     0.027 C
HETATM   15  C11 UNL     1      40.263  -0.602  91.657  1.00  0.00     0.035 C
HETATM   16  C12 UNL     1      39.329  -0.706  90.466  1.00  0.00     0.032 C
HETATM   17 CL1  UNL     1      39.674   0.670  92.764  1.00  0.00    -0.119 Cl
HETATM   18  C13 UNL     1      41.692  -0.340  91.237  1.00  0.00     0.050 C
ENDBRANCH  10  12
ENDBRANCH   7  10
BRANCH   4  19
HETATM   19  N3  UNL     1      46.540   1.916  90.110  1.00  0.00    -0.229 N
HETATM   20  C6  UNL     1      47.926   2.044  90.425  1.00  0.00     0.165 C
ATOM     21  H3  UNL     1      46.290   1.838  89.124  1.00  0.00     0.177 HD
ENDBRANCH   4  19
BRANCH   1  22
HETATM   22  N1  UNL     1      43.432   3.947  92.899  1.00  0.00    -0.222 N
ATOM     23  H1  UNL     1      42.475   3.834  93.233  1.00  0.00     0.178 HD
BRANCH  22  24
HETATM   24  C3  UNL     1      44.038   5.244  93.046  1.00  0.00     0.164 C
BRANCH  24  25
HETATM   25  C2  UNL     1      43.883   5.709  94.461  1.00  0.00    -0.017 C
HETATM   26  C1  UNL     1      42.846   5.326  95.171  1.00  0.00     0.008 C
ENDBRANCH  24  25
ENDBRANCH  22  24
ENDBRANCH   1  22
TORSDOF 6
ENDMDL