MODEL 5
REMARK VINA RESULT: -8.176514258      3.246      5.632
REMARK  7 active torsions:
REMARK  status: ('A' for Active; 'I' for Inactive)
REMARK    1  A    between atoms: C2_2  and  C3_3
REMARK    2  A    between atoms: C3_3  and  C4_4
REMARK    3  A    between atoms: C7_8  and  C8_9
REMARK    4  A    between atoms: C11_13  and  C12_14
REMARK    5  A    between atoms: C12_14  and  C13_15
REMARK    6  A    between atoms: C14_16  and  O1_17
REMARK    7  A    between atoms: C15_21  and  O2_22
ROOT
HETATM    1  C4  UNL     1      42.801  -0.336  92.262  1.00  0.00    -0.010 A
HETATM    2  C5  UNL     1      43.321  -1.052  91.162  1.00  0.00     0.057 A
HETATM    3  C6  UNL     1      44.158  -0.453  90.259  1.00  0.00     0.140 A
HETATM    4  F1  UNL     1      44.672  -1.132  89.189  1.00  0.00    -0.204 F
HETATM    5  C7  UNL     1      44.458   0.878  90.482  1.00  0.00     0.050 A
HETATM    6  N1  UNL     1      43.961   1.551  91.522  1.00  0.00    -0.351 N
HETATM    7  C10 UNL     1      44.319   2.964  91.586  1.00  0.00     0.156 C
HETATM    8  C11 UNL     1      43.114   0.975  92.458  1.00  0.00     0.045 A
ENDROOT
BRANCH   8   9
HETATM    9  C12 UNL     1      42.716   1.698  93.421  1.00  0.00     0.047 C
BRANCH   9  10
HETATM   10  C13 UNL     1      41.778   2.715  93.736  1.00  0.00     0.027 A
HETATM   11  C14 UNL     1      42.085   3.949  94.312  1.00  0.00     0.153 A
HETATM   12  N2  UNL     1      40.953   4.642  94.524  1.00  0.00    -0.317 N
HETATM   13  C15 UNL     1      39.896   3.925  94.114  1.00  0.00     0.148 A
ATOM     14  H2  UNL     1      40.905   5.575  94.936  1.00  0.00     0.170 HD
HETATM   15  C16 UNL     1      40.388   2.746  93.630  1.00  0.00     0.003 A
HETATM   16  C17 UNL     1      39.597   1.637  93.068  1.00  0.00     0.054 C
BRANCH  11  17
HETATM   17  O1  UNL     1      43.374   4.389  94.618  1.00  0.00    -0.345 OA
ATOM     18  H1  UNL     1      43.584   5.036  95.281  1.00  0.00     0.219 HD
ENDBRANCH  11  17
BRANCH  13  19
HETATM   19  O2  UNL     1      38.543   4.313  94.170  1.00  0.00    -0.346 OA
ATOM     20  H2  UNL     1      37.826   3.817  94.547  1.00  0.00     0.219 HD
ENDBRANCH  13  19
ENDBRANCH   9  10
ENDBRANCH   8   9
BRANCH   1  21
HETATM   21  C3  UNL     1      42.022  -1.013  93.041  1.00  0.00    -0.013 C
BRANCH  21  22
HETATM   22  C2  UNL     1      41.185  -2.179  92.539  1.00  0.00     0.023 C
HETATM   23  C1  UNL     1      39.746  -1.740  92.414  1.00  0.00     0.009 C
ENDBRANCH  21  22
ENDBRANCH   1  21
BRANCH   5  24
HETATM   24  C8  UNL     1      45.384   1.477  89.478  1.00  0.00     0.056 C
HETATM   25  C9  UNL     1      46.800   1.476  89.976  1.00  0.00     0.011 C
ENDBRANCH   5  24
TORSDOF 7
ENDMDL