MODEL 1
REMARK VINA RESULT: -8.058473411      0.000      0.000
REMARK  5 active torsions:
REMARK  status: ('A' for Active; 'I' for Inactive)
REMARK    1  A    between atoms: C3_3  and  C4_4
REMARK    2  A    between atoms: N1_8  and  C9_10
REMARK    3  A    between atoms: C12_13  and  O1_14
REMARK    4  A    between atoms: C12_13  and  C13_16
REMARK    5  A    between atoms: C13_16  and  O2_17
ROOT
HETATM    1  C1  UNL     1      42.032   5.655  94.048  1.00  0.00     0.013 C
HETATM    2  C2  UNL     1      41.632   4.558  93.750  1.00  0.00    -0.107 C
HETATM    3  C3  UNL     1      41.168   3.217  93.384  1.00  0.00     0.025 C
HETATM    4  C6  UNL     1      42.008   2.233  94.165  1.00  0.00     0.050 C
HETATM    5  C7  UNL     1      43.343   2.137  93.433  1.00  0.00     0.239 C
HETATM    6  N1  UNL     1      43.199   1.354  92.197  1.00  0.00    -0.064 N
HETATM    7  C8  UNL     1      44.118   1.889  91.251  1.00  0.00     0.273 C
HETATM    8  C16 UNL     1      41.855   1.528  91.655  1.00  0.00     0.239 C
HETATM    9  C17 UNL     1      41.311   2.910  91.936  1.00  0.00     0.050 C
ENDROOT
BRANCH   3  10
HETATM   10  C4  UNL     1      39.738   3.056  93.869  1.00  0.00     0.018 C
HETATM   11  C5  UNL     1      39.639   3.174  95.356  1.00  0.00     0.007 C
ENDBRANCH   3  10
BRANCH   6  12
HETATM   12  C9  UNL     1      43.383  -0.016  92.558  1.00  0.00     0.224 C
HETATM   13  C10 UNL     1      42.125  -0.843  92.494  1.00  0.00     0.039 C
HETATM   14  C11 UNL     1      42.168  -1.874  91.369  1.00  0.00     0.042 C
HETATM   15  C12 UNL     1      43.234  -2.862  91.721  1.00  0.00     0.082 C
HETATM   16  C14 UNL     1      44.458  -2.190  92.228  1.00  0.00     0.079 C
HETATM   17  C15 UNL     1      44.519  -0.704  91.883  1.00  0.00     0.204 C
HETATM   18  F1  UNL     1      44.568  -0.605  90.537  1.00  0.00    -0.247 F
BRANCH  15  19
HETATM   19  O1  UNL     1      42.723  -3.646  92.784  1.00  0.00    -0.388 OA
ATOM     20  H1  UNL     1      42.634  -4.531  92.450  1.00  0.00     0.210 HD
ENDBRANCH  15  19
BRANCH  15  21
HETATM   21  C13 UNL     1      43.484  -3.825  90.587  1.00  0.00     0.201 C
BRANCH  21  22
HETATM   22  O2  UNL     1      44.239  -4.912  90.926  1.00  0.00    -0.398 OA
ATOM     23  H2  UNL     1      43.853  -5.465  91.596  1.00  0.00     0.209 HD
ENDBRANCH  21  22
ENDBRANCH  15  21
ENDBRANCH   6  12
TORSDOF 5
ENDMDL