MODEL 2
REMARK VINA RESULT: -7.463141823      2.213      6.871
REMARK  5 active torsions:
REMARK  status: ('A' for Active; 'I' for Inactive)
REMARK    1  A    between atoms: C2_2  and  N1_3
REMARK       I    between atoms: C3_5  and  N2_6
REMARK       I    between atoms: C3_5  and  N7_23
REMARK    2  A    between atoms: C5_11  and  N4_12
REMARK    3  A    between atoms: N4_12  and  C6_14
REMARK    4  A    between atoms: C6_14  and  C7_15
REMARK    5  A    between atoms: N7_23  and  C11_25
ROOT
HETATM    1  C7  UNL     1      42.859  -3.132  91.669  1.00  0.00     0.144 C
HETATM    2  C8  UNL     1      44.260  -3.428  91.968  1.00  0.00     0.060 C
HETATM    3  N5  UNL     1      45.378  -3.646  92.214  1.00  0.00    -0.197 NA
ENDROOT
BRANCH   1   4
HETATM    4  C6  UNL     1      42.058  -2.971  92.941  1.00  0.00     0.152 C
BRANCH   4   5
HETATM    5  N4  UNL     1      40.715  -2.517  92.637  1.00  0.00    -0.225 N
ATOM      6  H4  UNL     1      39.986  -3.202  92.441  1.00  0.00     0.177 HD
BRANCH   5   7
HETATM    7  C5  UNL     1      40.426  -1.244  92.611  1.00  0.00     0.679 A
HETATM    8  N3  UNL     1      41.324  -0.303  92.898  1.00  0.00    -0.174 N
HETATM    9  C4  UNL     1      41.043   1.036  92.876  1.00  0.00     0.159 A
ATOM     10  H3  UNL     1      42.268  -0.596  93.145  1.00  0.00     0.186 HD
HETATM   11  N2  UNL     1      41.945   1.850  93.158  1.00  0.00    -0.175 N
HETATM   12  C10 UNL     1      39.778   1.445  92.544  1.00  0.00     0.095 A
HETATM   13  C3  UNL     1      42.050   3.215  93.244  1.00  0.00     0.675 C
ATOM     14  H2  UNL     1      42.824   1.384  93.381  1.00  0.00     0.186 HD
HETATM   15  N1  UNL     1      41.796   3.893  94.332  1.00  0.00    -0.227 N
HETATM   16  N7  UNL     1      42.459   3.980  92.127  1.00  0.00    -0.222 N
ATOM     17  H1  UNL     1      41.505   3.378  95.162  1.00  0.00     0.177 HD
ATOM     18  H7  UNL     1      41.908   4.790  91.843  1.00  0.00     0.178 HD
HETATM   19  C9  UNL     1      38.847   0.442  92.245  1.00  0.00     0.133 A
HETATM   20 CL1  UNL     1      39.289   3.134  92.477  1.00  0.00    -0.079 Cl
HETATM   21  N6  UNL     1      39.181  -0.857  92.283  1.00  0.00    -0.200 N
ATOM     22  H6  UNL     1      38.480  -1.563  92.059  1.00  0.00     0.183 HD
BRANCH  15  23
HETATM   23  C2  UNL     1      41.903   5.317  94.428  1.00  0.00     0.133 C
HETATM   24  C1  UNL     1      43.177   5.706  95.138  1.00  0.00     0.027 C
ENDBRANCH  15  23
BRANCH  16  25
HETATM   25  C11 UNL     1      43.639   3.634  91.386  1.00  0.00     0.091 C
HETATM   26  C12 UNL     1      43.227   3.065  90.040  1.00  0.00     0.032 C
HETATM   27  C13 UNL     1      44.550   2.664  92.099  1.00  0.00     0.032 C
ENDBRANCH  16  25
ENDBRANCH   5   7
ENDBRANCH   4   5
ENDBRANCH   1   4
TORSDOF 5
ENDMDL