MODEL 5
REMARK VINA RESULT: -7.612406475      2.626      3.534
REMARK  6 active torsions:
REMARK  status: ('A' for Active; 'I' for Inactive)
REMARK    1  A    between atoms: N2_7  and  C4_8
REMARK    2  A    between atoms: C4_8  and  C5_9
REMARK       I    between atoms: C5_9  and  N3_11
REMARK    3  A    between atoms: N3_11  and  C6_13
REMARK    4  A    between atoms: C6_13  and  C9_16
REMARK    5  A    between atoms: C13_20  and  C14_21
REMARK    6  A    between atoms: C14_21  and  O3_22
ROOT
HETATM    1  C4  UNL     1      39.721   1.669  93.133  1.00  0.00     0.231 C
ENDROOT
BRANCH   1   2
HETATM    2  N2  UNL     1      40.603   2.738  93.458  1.00  0.00    -0.317 N
HETATM    3  C3  UNL     1      40.271   3.756  94.392  1.00  0.00     0.319 C
HETATM    4  N1  UNL     1      41.352   4.652  94.530  1.00  0.00    -0.337 N
HETATM    5  O1  UNL     1      39.172   3.879  95.032  1.00  0.00    -0.247 OA
HETATM    6  C2  UNL     1      42.511   3.992  93.968  1.00  0.00     0.107 C
ATOM      7  H1  UNL     1      41.323   5.583  94.946  1.00  0.00     0.164 HD
HETATM    8  C1  UNL     1      43.409   5.068  93.434  1.00  0.00     0.034 C
HETATM    9  C13 UNL     1      41.943   3.046  92.987  1.00  0.00     0.135 C
BRANCH   9  10
HETATM   10  C14 UNL     1      41.988   3.535  91.593  1.00  0.00     0.191 C
BRANCH  10  11
HETATM   11  O3  UNL     1      42.470   2.535  90.756  1.00  0.00    -0.399 OA
ATOM     12  H3  UNL     1      42.006   1.723  90.922  1.00  0.00     0.209 HD
ENDBRANCH  10  11
ENDBRANCH   9  10
ENDBRANCH   1   2
BRANCH   1  13
HETATM   13  C5  UNL     1      40.303   0.581  92.358  1.00  0.00     0.236 C
HETATM   14  O2  UNL     1      40.026   0.481  91.136  1.00  0.00    -0.272 OA
HETATM   15  N3  UNL     1      41.181  -0.401  92.885  1.00  0.00    -0.350 N
ATOM     16  H3  UNL     1      41.419  -0.338  93.875  1.00  0.00     0.163 HD
BRANCH  15  17
HETATM   17  C6  UNL     1      41.756  -1.471  92.133  1.00  0.00     0.032 C
HETATM   18  C7  UNL     1      40.909  -1.810  90.923  1.00  0.00     0.039 C
HETATM   19  C8  UNL     1      41.842  -2.754  92.966  1.00  0.00     0.039 C
BRANCH  17  20
HETATM   20  C9  UNL     1      43.171  -1.146  91.717  1.00  0.00    -0.027 C
HETATM   21  C10 UNL     1      43.193  -0.647  90.295  1.00  0.00     0.017 C
HETATM   22  C11 UNL     1      43.847  -0.158  92.601  1.00  0.00     0.017 C
HETATM   23  C12 UNL     1      43.966  -2.443  91.756  1.00  0.00     0.017 C
ENDBRANCH  17  20
ENDBRANCH  15  17
ENDBRANCH   1  13
TORSDOF 6
ENDMDL