MODEL 3
REMARK VINA RESULT: -6.551393425      1.409      2.169
REMARK  4 active torsions:
REMARK  status: ('A' for Active; 'I' for Inactive)
REMARK    1  A    between atoms: C2_2  and  C3_3
REMARK    2  A    between atoms: C4_4  and  C5_5
REMARK    3  A    between atoms: C14_19  and  O2_20
REMARK    4  A    between atoms: C15_22  and  C16_23
ROOT
HETATM    1  C3  UNL     1      27.949  -7.170  27.143  1.00  0.00    -0.012 A
HETATM    2  C4  UNL     1      27.353  -6.915  25.951  1.00  0.00     0.101 A
HETATM    3  O1  UNL     1      26.284  -7.765  25.904  1.00  0.00    -0.286 OA
HETATM    4  C14 UNL     1      26.210  -8.490  26.962  1.00  0.00     0.191 A
HETATM    5  C15 UNL     1      27.230  -8.194  27.827  1.00  0.00     0.013 A
ENDROOT
BRANCH   2   6
HETATM    6  C5  UNL     1      27.571  -6.013  24.825  1.00  0.00     0.079 A
HETATM    7  C6  UNL     1      26.857  -4.901  24.530  1.00  0.00     0.139 A
HETATM    8  F1  UNL     1      25.942  -4.337  25.363  1.00  0.00    -0.204 F
HETATM    9  C7  UNL     1      27.070  -4.159  23.350  1.00  0.00    -0.010 A
HETATM   10  C8  UNL     1      26.271  -2.947  23.050  1.00  0.00     0.052 C
HETATM   11  C9  UNL     1      28.042  -4.605  22.497  1.00  0.00     0.004 A
HETATM   12  C10 UNL     1      28.491  -4.106  21.274  1.00  0.00     0.031 A
HETATM   13  C12 UNL     1      28.784  -5.725  22.771  1.00  0.00     0.083 A
HETATM   14  C11 UNL     1      29.491  -4.959  20.865  1.00  0.00     0.089 A
HETATM   15  N1  UNL     1      29.673  -5.936  21.764  1.00  0.00    -0.363 N
ATOM     16  H1  UNL     1      30.350  -6.696  21.703  1.00  0.00     0.165 HD
HETATM   17  C13 UNL     1      28.574  -6.441  23.913  1.00  0.00     0.160 A
HETATM   18  F2  UNL     1      29.304  -7.552  24.186  1.00  0.00    -0.203 F
ENDBRANCH   2   6
BRANCH   1  19
HETATM   19  C2  UNL     1      29.120  -6.492  27.724  1.00  0.00     0.037 C
HETATM   20  C1  UNL     1      30.443  -7.079  27.268  1.00  0.00     0.010 C
ENDBRANCH   1  19
BRANCH   5  21
HETATM   21  C16 UNL     1      27.599  -8.722  29.122  1.00  0.00     0.024 C
HETATM   22  C17 UNL     1      26.559  -8.401  30.203  1.00  0.00     0.009 C
HETATM   23  C18 UNL     1      27.174  -9.181  31.370  1.00  0.00     0.001 C
HETATM   24  C19 UNL     1      27.842 -10.379  30.734  1.00  0.00     0.001 C
HETATM   25  C20 UNL     1      27.571 -10.234  29.228  1.00  0.00     0.009 C
ENDBRANCH   5  21
BRANCH   4  26
HETATM   26  O2  UNL     1      25.221  -9.454  27.202  1.00  0.00    -0.340 OA
ATOM     27  H2  UNL     1      24.757  -9.933  26.525  1.00  0.00     0.220 HD
ENDBRANCH   4  26
TORSDOF 4
ENDMDL