MODEL 3
REMARK VINA RESULT: -7.128741763      1.163      1.859
REMARK  2 active torsions:
REMARK  status: ('A' for Active; 'I' for Inactive)
REMARK    1  A    between atoms: C2_2  and  C3_3
REMARK    2  A    between atoms: C6_6  and  C7_7
ROOT
HETATM    1  C3  UNL     1      29.231  -5.710  26.298  1.00  0.00     0.039 A
HETATM    2  C4  UNL     1      28.445  -6.326  27.269  1.00  0.00     0.041 A
HETATM    3  C5  UNL     1      28.981  -7.092  28.263  1.00  0.00    -0.009 A
HETATM    4  C6  UNL     1      28.269  -7.803  29.290  1.00  0.00     0.016 C
HETATM    5  C12 UNL     1      30.368  -7.205  28.225  1.00  0.00     0.083 A
HETATM    6 CL1  UNL     1      31.222  -8.152  29.429  1.00  0.00    -0.080 Cl
HETATM    7  C13 UNL     1      31.130  -6.589  27.255  1.00  0.00     0.126 A
HETATM    8 CL2  UNL     1      32.896  -6.754  27.230  1.00  0.00    -0.063 Cl
HETATM    9  N1  UNL     1      30.547  -5.854  26.311  1.00  0.00    -0.347 N
ATOM     10  H1  UNL     1      31.116  -5.402  25.596  1.00  0.00     0.167 HD
ENDROOT
BRANCH   1  11
HETATM   11  C2  UNL     1      28.597  -4.878  25.220  1.00  0.00     0.068 C
HETATM   12  C1  UNL     1      27.975  -3.681  25.947  1.00  0.00     0.045 C
HETATM   13  C14 UNL     1      29.677  -4.438  24.299  1.00  0.00     0.070 C
HETATM   14  C15 UNL     1      29.411  -4.674  22.844  1.00  0.00     0.191 C
HETATM   15  C16 UNL     1      28.486  -3.606  22.316  1.00  0.00     0.037 C
HETATM   16  N2  UNL     1      28.634  -5.878  22.599  1.00  0.00    -0.050 N
HETATM   17  C17 UNL     1      27.142  -4.081  22.771  1.00  0.00     0.056 C
HETATM   18  C18 UNL     1      27.371  -5.497  23.233  1.00  0.00     0.281 C
HETATM   19  N3  UNL     1      27.544  -5.628  24.642  1.00  0.00    -0.382 N
ATOM     20  H3  UNL     1      26.941  -6.230  25.204  1.00  0.00     0.156 HD
ATOM     21  H22 UNL     1      28.571  -6.178  21.626  1.00  0.00     0.280 HD
ATOM     22  H21 UNL     1      29.050  -6.750  22.926  1.00  0.00     0.280 HD
ENDBRANCH   1  11
BRANCH   4  23
HETATM   23  C7  UNL     1      26.890  -8.226  29.148  1.00  0.00    -0.079 C
HETATM   24  C8  UNL     1      26.105  -8.575  30.367  1.00  0.00     0.034 C
HETATM   25  C9  UNL     1      24.737  -8.881  29.787  1.00  0.00     0.005 C
HETATM   26  C10 UNL     1      24.985  -9.410  28.417  1.00  0.00     0.005 C
HETATM   27  C11 UNL     1      26.486  -9.219  28.127  1.00  0.00     0.034 C
ENDBRANCH   4  23
TORSDOF 2
ENDMDL