MODEL 5
REMARK VINA RESULT: -6.439220481      2.470      3.706
REMARK  5 active torsions:
REMARK  status: ('A' for Active; 'I' for Inactive)
REMARK    1  A    between atoms: C2_5  and  C3_6
REMARK    2  A    between atoms: C3_6  and  C4_7
REMARK    3  A    between atoms: C5_10  and  S1_11
REMARK    4  A    between atoms: S1_11  and  C6_12
REMARK    5  A    between atoms: C16_22  and  N3_23
ROOT
HETATM    1  C1  UNL     1      21.740  -8.764  25.947  1.00  0.00     0.179 C
HETATM    2  N1  UNL     1      23.195  -8.643  25.871  1.00  0.00    -0.280 N
HETATM    3  N2  UNL     1      24.056  -9.008  26.806  1.00  0.00    -0.296 N
ATOM      4  H2  UNL     1      23.803  -9.420  27.703  1.00  0.00     0.187 HD
HETATM    5  C2  UNL     1      25.337  -8.751  26.393  1.00  0.00     0.071 A
HETATM    6  C5  UNL     1      25.258  -8.196  25.137  1.00  0.00     0.074 A
HETATM    7  C16 UNL     1      23.904  -8.143  24.840  1.00  0.00     0.134 A
ENDROOT
BRANCH   6   8
HETATM    8  S1  UNL     1      26.546  -7.604  24.063  1.00  0.00    -0.114 SA
BRANCH   8   9
HETATM    9  C6  UNL     1      26.995  -5.896  24.364  1.00  0.00     0.014 C
HETATM   10  C7  UNL     1      28.020  -5.727  25.451  1.00  0.00     0.025 C
HETATM   11  C8  UNL     1      28.313  -4.247  25.582  1.00  0.00    -0.012 C
HETATM   12  C9  UNL     1      28.930  -3.681  24.334  1.00  0.00     0.009 C
HETATM   13  C13 UNL     1      27.043  -3.475  25.862  1.00  0.00     0.009 C
HETATM   14  C10 UNL     1      27.988  -3.928  23.169  1.00  0.00    -0.012 C
HETATM   15  C11 UNL     1      26.719  -3.156  23.381  1.00  0.00     0.009 C
HETATM   16  C15 UNL     1      27.672  -5.395  23.080  1.00  0.00     0.025 C
HETATM   17  C12 UNL     1      26.106  -3.589  24.687  1.00  0.00    -0.012 C
HETATM   18  C14 UNL     1      25.763  -5.076  24.548  1.00  0.00     0.025 C
ENDBRANCH   8   9
ENDBRANCH   6   8
BRANCH   5  19
HETATM   19  C3  UNL     1      26.499  -9.010  27.205  1.00  0.00     0.069 C
BRANCH  19  20
HETATM   20  C4  UNL     1      26.677  -8.451  28.377  1.00  0.00     0.105 C
HETATM   21 CL1  UNL     1      25.678  -8.693  29.787  1.00  0.00    -0.071 Cl
HETATM   22 CL2  UNL     1      28.051  -7.348  28.575  1.00  0.00    -0.071 Cl
ENDBRANCH  19  20
ENDBRANCH   5  19
BRANCH   7  23
HETATM   23  N3  UNL     1      23.393  -7.693  23.755  1.00  0.00    -0.383 N
ATOM     24  H32 UNL     1      22.998  -8.257  23.004  1.00  0.00     0.157 HD
ATOM     25  H31 UNL     1      23.320  -6.704  23.515  1.00  0.00     0.157 HD
ENDBRANCH   7  23
TORSDOF 5
ENDMDL