MODEL 3
REMARK VINA RESULT: -6.506736378      2.729      3.298
REMARK  5 active torsions:
REMARK  status: ('A' for Active; 'I' for Inactive)
REMARK    1  A    between atoms: C2_2  and  N1_3
REMARK    2  A    between atoms: C3_4  and  O1_5
REMARK    3  A    between atoms: C6_9  and  O2_10
REMARK    4  A    between atoms: C7_12  and  C8_13
REMARK    5  A    between atoms: C11_17  and  C12_18
ROOT
HETATM    1  N1  UNL     1      29.199  -5.778  22.368  1.00  0.00    -0.308 N
HETATM    2  C3  UNL     1      29.281  -4.503  22.843  1.00  0.00     0.151 A
HETATM    3  C4  UNL     1      28.290  -4.264  23.758  1.00  0.00     0.004 A
HETATM    4  C5  UNL     1      27.564  -5.457  23.845  1.00  0.00     0.012 A
HETATM    5  C6  UNL     1      28.148  -6.343  22.989  1.00  0.00     0.151 A
HETATM    6  C7  UNL     1      26.418  -5.379  24.804  1.00  0.00     0.058 C
HETATM    7  C17 UNL     1      25.596  -4.217  24.414  1.00  0.00     0.014 C
HETATM    8  C18 UNL     1      26.366  -2.927  24.275  1.00  0.00     0.006 C
HETATM    9  C19 UNL     1      27.817  -3.157  24.622  1.00  0.00     0.044 C
ENDROOT
BRANCH   6  10
HETATM   10  C8  UNL     1      25.816  -6.648  25.120  1.00  0.00    -0.025 A
HETATM   11  C9  UNL     1      24.590  -6.911  24.490  1.00  0.00     0.052 A
HETATM   12  C10 UNL     1      23.929  -8.079  24.711  1.00  0.00     0.123 A
HETATM   13  F1  UNL     1      22.738  -8.363  24.113  1.00  0.00    -0.206 F
HETATM   14  C11 UNL     1      24.434  -9.053  25.563  1.00  0.00    -0.014 A
HETATM   15  C15 UNL     1      25.642  -8.768  26.171  1.00  0.00     0.035 A
HETATM   16  C16 UNL     1      26.321  -7.583  25.951  1.00  0.00     0.041 A
HETATM   17 CL1  UNL     1      27.839  -7.435  26.820  1.00  0.00    -0.084 Cl
BRANCH  14  18
HETATM   18  C12 UNL     1      23.694 -10.319  25.786  1.00  0.00     0.022 A
HETATM   19  C13 UNL     1      23.838 -11.065  27.071  1.00  0.00     0.010 A
HETATM   20  C14 UNL     1      22.579 -10.297  26.748  1.00  0.00     0.010 A
ENDBRANCH  14  18
ENDBRANCH   6  10
BRANCH   5  21
HETATM   21  O2  UNL     1      27.722  -7.641  22.785  1.00  0.00    -0.345 OA
ATOM     22  H2  UNL     1      26.926  -7.881  22.325  1.00  0.00     0.219 HD
ENDBRANCH   5  21
BRANCH   2  23
HETATM   23  O1  UNL     1      30.228  -3.564  22.466  1.00  0.00    -0.345 OA
ATOM     24  H1  UNL     1      30.511  -2.825  22.991  1.00  0.00     0.219 HD
ENDBRANCH   2  23
BRANCH   1  25
HETATM   25  C2  UNL     1      30.107  -6.333  21.386  1.00  0.00     0.129 C
HETATM   26  C1  UNL     1      29.673  -6.027  19.976  1.00  0.00     0.027 C
ENDBRANCH   1  25
TORSDOF 5
ENDMDL