MODEL 5
REMARK VINA RESULT: -6.774448004      3.963      5.245
REMARK  5 active torsions:
REMARK  status: ('A' for Active; 'I' for Inactive)
REMARK    1  A    between atoms: O1_1  and  N1_3
REMARK    2  A    between atoms: C1_5  and  C2_6
REMARK    3  A    between atoms: C1_5  and  N3_17
REMARK    4  A    between atoms: C3_7  and  C4_8
REMARK    5  A    between atoms: N3_17  and  C9_19
ROOT
HETATM    1  N1  UNL     1      28.574  -6.688  27.602  1.00  0.00    -0.253 N
ATOM      2  H1  UNL     1      27.649  -6.662  27.173  1.00  0.00     0.196 HD
HETATM    3  C1  UNL     1      29.590  -6.545  26.832  1.00  0.00     0.121 C
ENDROOT
BRANCH   3   4
HETATM    4  C2  UNL     1      30.915  -6.582  27.442  1.00  0.00     0.051 C
HETATM    5  C3  UNL     1      32.000  -6.729  26.734  1.00  0.00     0.016 C
BRANCH   5   6
HETATM    6  C4  UNL     1      33.311  -6.767  27.321  1.00  0.00    -0.019 A
HETATM    7  C5  UNL     1      34.407  -7.103  26.532  1.00  0.00     0.100 A
HETATM    8  N2  UNL     1      35.624  -7.149  27.032  1.00  0.00    -0.354 N
HETATM    9  C6  UNL     1      35.875  -6.880  28.303  1.00  0.00     0.125 A
ATOM     10  H2  UNL     1      36.399  -7.400  26.419  1.00  0.00     0.166 HD
HETATM   11 CL1  UNL     1      37.534  -6.965  28.892  1.00  0.00    -0.063 Cl
HETATM   12  C7  UNL     1      34.837  -6.547  29.114  1.00  0.00     0.073 A
HETATM   13 CL2  UNL     1      35.162  -6.191  30.796  1.00  0.00    -0.081 Cl
HETATM   14  C8  UNL     1      33.533  -6.484  28.638  1.00  0.00     0.040 A
ENDBRANCH   5   6
ENDBRANCH   3   4
BRANCH   3  15
HETATM   15  N3  UNL     1      29.490  -6.356  25.431  1.00  0.00    -0.370 N
ATOM     16  H3  UNL     1      29.280  -7.168  24.852  1.00  0.00     0.161 HD
BRANCH  15  17
HETATM   17  C9  UNL     1      29.668  -5.087  24.777  1.00  0.00     0.083 C
HETATM   18  C10 UNL     1      28.464  -4.314  24.757  1.00  0.00     0.025 C
HETATM   19  C11 UNL     1      27.538  -3.793  25.741  1.00  0.00     0.002 C
HETATM   20  C12 UNL     1      26.590  -2.966  24.834  1.00  0.00     0.000 C
HETATM   21  C13 UNL     1      26.307  -3.520  23.483  1.00  0.00     0.000 C
HETATM   22  C14 UNL     1      27.165  -3.157  22.332  1.00  0.00     0.000 C
HETATM   23  C15 UNL     1      28.150  -4.143  21.792  1.00  0.00     0.000 C
HETATM   24  C16 UNL     1      29.524  -4.196  22.357  1.00  0.00     0.002 C
HETATM   25  C17 UNL     1      29.914  -5.306  23.259  1.00  0.00     0.025 C
ENDBRANCH  15  17
ENDBRANCH   3  15
BRANCH   1  26
HETATM   26  O1  UNL     1      28.637  -6.871  28.941  1.00  0.00    -0.288 OA
ATOM     27  H1  UNL     1      28.082  -7.462  29.435  1.00  0.00     0.244 HD
ENDBRANCH   1  26
TORSDOF 5
ENDMDL