MODEL 2
REMARK VINA RESULT: -6.019708533      3.877      4.577
REMARK  6 active torsions:
REMARK  status: ('A' for Active; 'I' for Inactive)
REMARK    1  A    between atoms: C2_2  and  C4_4
REMARK    2  A    between atoms: C2_2  and  C11_13
REMARK    3  A    between atoms: C5_5  and  C6_6
REMARK    4  A    between atoms: C6_6  and  C9_9
REMARK    5  A    between atoms: C13_16  and  C14_17
REMARK    6  A    between atoms: C14_17  and  C15_19
ROOT
HETATM    1  C1  UNL     1      27.966  -7.342  28.603  1.00  0.00     0.034 C
HETATM    2  C2  UNL     1      28.388  -7.411  27.182  1.00  0.00     0.044 C
HETATM    3  C3  UNL     1      27.640  -8.563  26.530  1.00  0.00     0.034 C
ENDROOT
BRANCH   2   4
HETATM    4  C4  UNL     1      28.011  -6.206  26.448  1.00  0.00    -0.091 C
HETATM    5  C5  UNL     1      27.703  -5.214  25.800  1.00  0.00    -0.093 C
BRANCH   5   6
HETATM    6  C6  UNL     1      27.340  -4.050  24.984  1.00  0.00     0.051 C
HETATM    7  C7  UNL     1      25.826  -3.906  24.884  1.00  0.00     0.032 C
HETATM    8  C8  UNL     1      27.840  -2.765  25.648  1.00  0.00     0.032 C
BRANCH   6   9
HETATM    9  C9  UNL     1      27.974  -4.171  23.637  1.00  0.00     0.127 C
HETATM   10  C10 UNL     1      27.199  -3.299  22.653  1.00  0.00     0.052 C
HETATM   11 CL1  UNL     1      29.681  -3.703  23.724  1.00  0.00    -0.100 Cl
HETATM   12 CL2  UNL     1      27.873  -5.846  23.065  1.00  0.00    -0.100 Cl
ENDBRANCH   6   9
ENDBRANCH   5   6
ENDBRANCH   2   4
BRANCH   2  13
HETATM   13  C11 UNL     1      29.893  -7.641  27.044  1.00  0.00    -0.030 A
HETATM   14  C12 UNL     1      30.342  -8.865  26.639  1.00  0.00     0.059 A
HETATM   15  S1  UNL     1      32.033  -8.696  26.651  1.00  0.00    -0.097 SA
HETATM   16  C13 UNL     1      32.134  -7.047  27.181  1.00  0.00     0.056 A
HETATM   17  C16 UNL     1      30.832  -6.704  27.321  1.00  0.00     0.032 A
BRANCH  16  18
HETATM   18  C14 UNL     1      33.377  -6.289  27.430  1.00  0.00     0.202 C
HETATM   19  O1  UNL     1      34.094  -6.052  26.384  1.00  0.00    -0.286 OA
BRANCH  18  20
HETATM   20  C15 UNL     1      33.831  -5.814  28.715  1.00  0.00     0.156 C
HETATM   21  N1  UNL     1      33.814  -6.739  29.799  1.00  0.00    -0.111 NA
ENDBRANCH  18  20
ENDBRANCH  16  18
ENDBRANCH   2  13
TORSDOF 6
ENDMDL