MODEL 2
REMARK VINA RESULT: -6.299958505      3.159      5.801
REMARK  5 active torsions:
REMARK  status: ('A' for Active; 'I' for Inactive)
REMARK    1  A    between atoms: C2_2  and  C3_3
REMARK    2  A    between atoms: C3_3  and  C4_4
REMARK    3  A    between atoms: C4_4  and  C5_5
REMARK    4  A    between atoms: C7_7  and  O1_8
REMARK    5  A    between atoms: C10_12  and  O2_13
ROOT
HETATM    1  C5  UNL     1      27.217  -3.588  24.649  1.00  0.00     0.025 A
HETATM    2  C6  UNL     1      28.657  -3.647  25.040  1.00  0.00     0.046 A
HETATM    3  C7  UNL     1      29.010  -5.109  25.293  1.00  0.00     0.154 A
HETATM    4  C8  UNL     1      27.706  -5.795  25.124  1.00  0.00     0.004 A
HETATM    5  C9  UNL     1      26.691  -4.937  24.810  1.00  0.00    -0.009 A
HETATM    6  C10 UNL     1      25.415  -5.519  24.686  1.00  0.00     0.086 A
HETATM    7  C11 UNL     1      25.197  -6.874  24.865  1.00  0.00     0.034 A
HETATM    8  C12 UNL     1      23.925  -7.401  24.730  1.00  0.00    -0.023 A
HETATM    9  C13 UNL     1      22.758  -6.577  24.399  1.00  0.00     0.051 C
HETATM   10  C14 UNL     1      23.787  -8.783  24.925  1.00  0.00     0.063 A
HETATM   11 CL1  UNL     1      22.202  -9.513  24.768  1.00  0.00    -0.082 Cl
HETATM   12  C15 UNL     1      24.834  -9.612  25.236  1.00  0.00     0.028 A
HETATM   13  C16 UNL     1      24.663 -11.080  25.440  1.00  0.00     0.070 C
HETATM   14  N1  UNL     1      26.045  -9.053  25.356  1.00  0.00    -0.356 N
ATOM     15  H1  UNL     1      26.844  -9.643  25.588  1.00  0.00     0.166 HD
HETATM   16  C17 UNL     1      26.237  -7.718  25.177  1.00  0.00     0.068 A
HETATM   17  C18 UNL     1      27.491  -7.175  25.307  1.00  0.00     0.071 A
HETATM   18 CL2  UNL     1      28.798  -8.273  25.707  1.00  0.00    -0.081 Cl
ENDROOT
BRANCH   1  19
HETATM   19  C4  UNL     1      26.939  -2.864  23.405  1.00  0.00     0.009 C
BRANCH  19  20
HETATM   20  C3  UNL     1      27.201  -3.578  22.138  1.00  0.00     0.000 C
BRANCH  20  21
HETATM   21  C2  UNL     1      28.588  -3.769  21.676  1.00  0.00    -0.005 C
HETATM   22  C1  UNL     1      28.826  -5.311  21.615  1.00  0.00     0.005 C
ENDBRANCH  20  21
ENDBRANCH  19  20
ENDBRANCH   1  19
BRANCH   3  23
HETATM   23  O1  UNL     1      29.522  -5.297  26.562  1.00  0.00    -0.391 OA
ATOM     24  H1  UNL     1      29.247  -6.128  26.931  1.00  0.00     0.210 HD
ENDBRANCH   3  23
BRANCH   6  25
HETATM   25  O2  UNL     1      24.365  -4.719  24.389  1.00  0.00    -0.359 OA
ATOM     26  H2  UNL     1      23.702  -5.044  23.791  1.00  0.00     0.217 HD
ENDBRANCH   6  25
TORSDOF 5
ENDMDL