MODEL 5
REMARK VINA RESULT: -6.368549496      4.342      6.450
REMARK  5 active torsions:
REMARK  status: ('A' for Active; 'I' for Inactive)
REMARK    1  A    between atoms: O1_1  and  C1_3
REMARK    2  A    between atoms: C4_6  and  C5_7
REMARK    3  A    between atoms: C11_13  and  O2_14
REMARK    4  A    between atoms: C12_16  and  C13_17
REMARK    5  A    between atoms: C13_17  and  N1_18
ROOT
HETATM    1  C1  UNL     1      30.121  -6.504  22.291  1.00  0.00     0.076 A
HETATM    2  C2  UNL     1      30.600  -7.400  21.309  1.00  0.00     0.038 A
HETATM    3  C3  UNL     1      30.443  -7.024  19.966  1.00  0.00     0.013 A
HETATM    4  C4  UNL     1      29.870  -5.855  19.618  1.00  0.00    -0.020 A
HETATM    5  C11 UNL     1      29.394  -4.943  20.633  1.00  0.00     0.083 A
HETATM    6  C12 UNL     1      29.559  -5.376  21.919  1.00  0.00     0.037 A
ENDROOT
BRANCH   6   7
HETATM    7  C13 UNL     1      28.851  -4.598  23.013  1.00  0.00     0.321 C
BRANCH   7   8
HETATM    8  N1  UNL     1      27.391  -4.589  22.979  1.00  0.00     0.132 N
HETATM    9  C14 UNL     1      27.097  -3.149  23.047  1.00  0.00     0.277 C
HETATM   10  C15 UNL     1      25.647  -2.865  23.412  1.00  0.00     0.030 C
HETATM   11  C16 UNL     1      25.544  -3.301  24.883  1.00  0.00     0.007 C
HETATM   12  C17 UNL     1      25.681  -4.810  24.795  1.00  0.00     0.076 C
HETATM   13  C18 UNL     1      26.984  -5.241  24.222  1.00  0.00     0.311 C
HETATM   14 CL1  UNL     1      28.240  -4.981  25.454  1.00  0.00    -0.068 Cl
HETATM   15 CL2  UNL     1      26.866  -7.024  23.913  1.00  0.00    -0.068 Cl
ENDBRANCH   7   8
ENDBRANCH   6   7
BRANCH   1  16
HETATM   16  O1  UNL     1      30.320  -6.896  23.646  1.00  0.00    -0.360 OA
ATOM     17  H1  UNL     1      30.309  -6.196  24.289  1.00  0.00     0.217 HD
ENDBRANCH   1  16
BRANCH   5  18
HETATM   18  O2  UNL     1      28.824  -3.754  20.222  1.00  0.00    -0.359 OA
ATOM     19  H2  UNL     1      27.881  -3.724  20.116  1.00  0.00     0.217 HD
ENDBRANCH   5  18
BRANCH   4  20
HETATM   20  C5  UNL     1      29.539  -5.447  18.219  1.00  0.00     0.021 C
HETATM   21  C6  UNL     1      30.288  -6.396  17.238  1.00  0.00     0.009 C
HETATM   22  C7  UNL     1      31.773  -6.251  17.263  1.00  0.00     0.001 C
HETATM   23  C8  UNL     1      32.307  -4.900  17.359  1.00  0.00     0.000 C
HETATM   24  C9  UNL     1      31.339  -3.787  17.460  1.00  0.00     0.001 C
HETATM   25  C10 UNL     1      29.945  -4.072  17.808  1.00  0.00     0.009 C
ENDBRANCH   4  20
TORSDOF 5
ENDMDL