MODEL 2
REMARK VINA RESULT: -6.432614915      0.946      1.147
REMARK  4 active torsions:
REMARK  status: ('A' for Active; 'I' for Inactive)
REMARK    1  A    between atoms: C2_2  and  S1_3
REMARK    2  A    between atoms: S1_3  and  C3_4
REMARK    3  A    between atoms: C11_14  and  C12_15
REMARK    4  A    between atoms: C13_21  and  O1_23
ROOT
HETATM    1  C3  UNL     1      28.917  -6.922  24.203  1.00  0.00     0.086 A
HETATM    2  N1  UNL     1      29.554  -6.911  23.047  1.00  0.00    -0.349 N
ATOM      3  H1  UNL     1      30.243  -7.603  22.750  1.00  0.00     0.166 HD
HETATM    4  C4  UNL     1      29.159  -5.851  22.318  1.00  0.00     0.053 A
HETATM    5  C5  UNL     1      29.511  -5.413  21.062  1.00  0.00    -0.004 A
HETATM    6  C6  UNL     1      28.932  -4.304  20.548  1.00  0.00     0.039 A
HETATM    7  C7  UNL     1      27.998  -3.622  21.283  1.00  0.00     0.037 A
HETATM    8  C8  UNL     1      27.607  -4.032  22.572  1.00  0.00    -0.046 A
HETATM    9  C9  UNL     1      26.551  -3.314  23.281  1.00  0.00     0.049 C
HETATM   10  C10 UNL     1      28.202  -5.159  23.092  1.00  0.00     0.015 A
HETATM   11  C11 UNL     1      28.030  -5.814  24.297  1.00  0.00     0.094 A
HETATM   12  N2  UNL     1      29.310  -3.868  19.255  1.00  0.00    -0.358 N
ATOM     13  H2  UNL     1      29.100  -2.913  18.965  1.00  0.00     0.162 HD
HETATM   14  C13 UNL     1      29.998  -4.768  18.330  1.00  0.00     0.130 C
HETATM   15  C14 UNL     1      28.893  -5.616  17.700  1.00  0.00     0.071 C
HETATM   16  C16 UNL     1      30.998  -5.596  19.063  1.00  0.00     0.065 C
HETATM   17  C17 UNL     1      30.525  -6.204  20.326  1.00  0.00     0.048 C
ENDROOT
BRANCH  11  18
HETATM   18  C12 UNL     1      27.157  -5.514  25.415  1.00  0.00     0.421 C
HETATM   19  F1  UNL     1      27.500  -6.041  26.640  1.00  0.00    -0.166 F
HETATM   20  F2  UNL     1      27.649  -4.137  25.752  1.00  0.00    -0.166 F
HETATM   21  F3  UNL     1      25.883  -5.119  25.233  1.00  0.00    -0.166 F
ENDBRANCH  11  18
BRANCH   1  22
HETATM   22  S1  UNL     1      29.054  -8.109  25.546  1.00  0.00    -0.112 SA
BRANCH  22  23
HETATM   23  C2  UNL     1      27.916  -9.471  25.207  1.00  0.00     0.076 C
HETATM   24  C1  UNL     1      26.662  -9.225  26.048  1.00  0.00     0.016 C
ENDBRANCH  22  23
ENDBRANCH   1  22
BRANCH  14  25
HETATM   25  O1  UNL     1      30.606  -3.953  17.391  1.00  0.00    -0.366 OA
HETATM   26  C15 UNL     1      31.854  -3.515  17.752  1.00  0.00     0.204 C
ENDBRANCH  14  25
TORSDOF 4
ENDMDL