MODEL 1
REMARK VINA RESULT: -6.399899574      0.000      0.000
REMARK  4 active torsions:
REMARK  status: ('A' for Active; 'I' for Inactive)
REMARK    1  A    between atoms: C4_4  and  N1_5
REMARK    2  A    between atoms: N2_7  and  C5_9
REMARK    3  A    between atoms: N4_14  and  C8_15
REMARK    4  A    between atoms: C11_18  and  N5_19
ROOT
HETATM    1  C5  UNL     1      30.156  -6.435  27.072  1.00  0.00     0.117 A
HETATM    2  C6  UNL     1      29.580  -7.279  28.000  1.00  0.00     0.054 A
HETATM    3  C7  UNL     1      28.145  -7.376  28.321  1.00  0.00     0.072 C
HETATM    4  N3  UNL     1      30.623  -7.978  28.532  1.00  0.00    -0.299 N
ATOM      5  H3  UNL     1      30.544  -8.694  29.254  1.00  0.00     0.187 HD
HETATM    6  N4  UNL     1      31.757  -7.585  27.964  1.00  0.00    -0.271 N
HETATM    7  C11 UNL     1      31.521  -6.629  27.049  1.00  0.00     0.146 A
ENDROOT
BRANCH   1   8
HETATM    8  N2  UNL     1      29.459  -5.496  26.247  1.00  0.00    -0.295 N
HETATM    9  N1  UNL     1      29.012  -5.943  25.148  1.00  0.00    -0.299 N
ATOM     10  H1  UNL     1      29.154  -6.920  24.892  1.00  0.00     0.187 HD
ATOM     11  H2  UNL     1      29.331  -4.523  26.527  1.00  0.00     0.187 HD
BRANCH   9  12
HETATM   12  C4  UNL     1      28.310  -5.068  24.278  1.00  0.00     0.066 A
HETATM   13  C3  UNL     1      27.226  -4.336  24.727  1.00  0.00     0.042 A
HETATM   14  C2  UNL     1      26.536  -3.482  23.889  1.00  0.00    -0.021 A
HETATM   15  C1  UNL     1      25.387  -2.730  24.437  1.00  0.00     0.051 C
HETATM   16  C14 UNL     1      26.927  -3.347  22.570  1.00  0.00     0.123 A
HETATM   17  C13 UNL     1      28.003  -4.081  22.145  1.00  0.00     0.064 A
HETATM   18  F1  UNL     1      26.249  -2.505  21.742  1.00  0.00    -0.206 F
HETATM   19  C12 UNL     1      28.718  -4.943  22.947  1.00  0.00     0.042 A
HETATM   20 BR1  UNL     1      30.208  -5.942  22.306  1.00  0.00    -0.049 Br
ENDBRANCH   9  12
ENDBRANCH   1   8
BRANCH   7  21
HETATM   21  N5  UNL     1      32.384  -6.020  26.309  1.00  0.00    -0.382 N
ATOM     22  H52 UNL     1      33.045  -5.297  26.592  1.00  0.00     0.157 HD
ATOM     23  H51 UNL     1      32.550  -6.160  25.312  1.00  0.00     0.157 HD
ENDBRANCH   7  21
BRANCH   6  24
HETATM   24  C8  UNL     1      33.069  -8.147  28.317  1.00  0.00     0.102 C
HETATM   25  C9  UNL     1      33.693  -7.328  29.447  1.00  0.00     0.034 C
HETATM   26  C10 UNL     1      32.877  -9.549  28.858  1.00  0.00     0.034 C
ENDBRANCH   6  24
TORSDOF 4
ENDMDL