MODEL 1
REMARK VINA RESULT: -7.124306052      0.000      0.000
REMARK  6 active torsions:
REMARK  status: ('A' for Active; 'I' for Inactive)
REMARK    1  A    between atoms: C9_9  and  O1_10
REMARK    2  A    between atoms: O1_10  and  C10_11
REMARK    3  A    between atoms: C10_11  and  C11_12
REMARK    4  A    between atoms: C11_12  and  O2_13
REMARK    5  A    between atoms: C18_21  and  O3_23
REMARK    6  A    between atoms: C20_25  and  O4_26
ROOT
HETATM    1  C1  UNL     1      26.765  -3.077  21.779  1.00  0.00     0.010 C
HETATM    2  C2  UNL     1      26.966  -3.511  23.187  1.00  0.00    -0.013 C
HETATM    3  C3  UNL     1      25.518  -3.693  23.685  1.00  0.00     0.005 C
HETATM    4  C4  UNL     1      25.327  -4.352  24.971  1.00  0.00     0.001 C
HETATM    5  C5  UNL     1      26.306  -5.429  25.340  1.00  0.00     0.010 C
HETATM    6  C6  UNL     1      27.708  -4.973  24.903  1.00  0.00    -0.037 C
HETATM    7  C7  UNL     1      27.950  -3.690  25.667  1.00  0.00     0.015 C
HETATM    8  C8  UNL     1      28.643  -6.002  25.431  1.00  0.00     0.042 C
HETATM    9  C9  UNL     1      29.971  -5.753  24.791  1.00  0.00     0.127 C
HETATM   10  C12 UNL     1      29.888  -6.003  23.313  1.00  0.00     0.032 C
HETATM   11  C13 UNL     1      28.931  -5.065  22.661  1.00  0.00    -0.033 C
HETATM   12  C14 UNL     1      29.663  -3.725  22.471  1.00  0.00     0.016 C
HETATM   13  C15 UNL     1      28.609  -5.580  21.292  1.00  0.00     0.010 C
HETATM   14  C16 UNL     1      29.545  -6.476  20.607  1.00  0.00     0.009 C
HETATM   15  C17 UNL     1      30.472  -7.313  21.410  1.00  0.00     0.031 C
HETATM   16  C18 UNL     1      30.920  -8.562  20.787  1.00  0.00     0.084 C
HETATM   17  C19 UNL     1      32.253  -8.291  20.046  1.00  0.00     0.049 C
HETATM   18  C20 UNL     1      31.066  -9.776  21.594  1.00  0.00     0.152 C
HETATM   19  C21 UNL     1      31.048  -9.627  23.070  1.00  0.00     0.035 C
HETATM   20  C22 UNL     1      30.828  -8.255  23.612  1.00  0.00     0.012 C
HETATM   21  C23 UNL     1      29.873  -7.404  22.824  1.00  0.00    -0.031 C
HETATM   22  C24 UNL     1      28.595  -8.117  22.714  1.00  0.00     0.016 C
HETATM   23  C25 UNL     1      27.662  -4.799  23.424  1.00  0.00     0.006 C
ENDROOT
BRANCH   9  24
HETATM   24  O1  UNL     1      31.053  -6.241  25.447  1.00  0.00    -0.383 OA
BRANCH  24  25
HETATM   25  C10 UNL     1      30.854  -6.520  26.797  1.00  0.00     0.194 C
BRANCH  25  26
HETATM   26  C11 UNL     1      32.116  -6.448  27.589  1.00  0.00     0.190 C
BRANCH  26  27
HETATM   27  O2  UNL     1      32.979  -5.554  26.964  1.00  0.00    -0.399 OA
ATOM     28  H2  UNL     1      33.842  -5.647  27.351  1.00  0.00     0.209 HD
ENDBRANCH  26  27
ENDBRANCH  25  26
ENDBRANCH  24  25
ENDBRANCH   9  24
BRANCH  16  29
HETATM   29  O3  UNL     1      30.053  -8.834  19.696  1.00  0.00    -0.387 OA
ATOM     30  H3  UNL     1      30.561  -8.758  18.898  1.00  0.00     0.210 HD
ENDBRANCH  16  29
BRANCH  18  31
HETATM   31  O4  UNL     1      30.165 -10.789  21.159  1.00  0.00    -0.393 OA
ATOM     32  H4  UNL     1      29.727 -11.194  21.899  1.00  0.00     0.210 HD
ENDBRANCH  18  31
TORSDOF 6
ENDMDL