MODEL 1
REMARK VINA RESULT: -7.063030670      0.000      0.000
REMARK  5 active torsions:
REMARK  status: ('A' for Active; 'I' for Inactive)
REMARK    1  A    between atoms: C2_2  and  C3_3
REMARK    2  A    between atoms: C2_2  and  C6_8
REMARK    3  A    between atoms: C4_4  and  C5_5
REMARK    4  A    between atoms: C5_5  and  O1_6
REMARK    5  A    between atoms: C16_19  and  O3_20
ROOT
HETATM    1  C6  UNL     1      23.380  -8.318  26.076  1.00  0.00     0.001 C
HETATM    2  C7  UNL     1      22.171  -7.721  25.398  1.00  0.00     0.006 C
HETATM    3  C8  UNL     1      22.743  -6.948  24.180  1.00  0.00     0.006 C
HETATM    4  C9  UNL     1      24.030  -6.495  24.816  1.00  0.00    -0.001 C
HETATM    5  C10 UNL     1      24.979  -5.760  23.988  1.00  0.00    -0.001 C
HETATM    6  C11 UNL     1      24.307  -4.421  23.621  1.00  0.00     0.033 C
HETATM    7  C12 UNL     1      25.296  -3.750  22.736  1.00  0.00    -0.022 C
HETATM    8  C13 UNL     1      26.577  -3.916  22.941  1.00  0.00    -0.068 C
HETATM    9  C14 UNL     1      27.508  -3.194  21.990  1.00  0.00     0.117 C
HETATM   10  C15 UNL     1      28.310  -4.312  21.369  1.00  0.00     0.179 C
HETATM   11  O2  UNL     1      28.375  -4.452  20.163  1.00  0.00    -0.293 OA
HETATM   12  C16 UNL     1      28.998  -5.209  22.291  1.00  0.00     0.208 C
HETATM   13  C17 UNL     1      29.452  -6.393  21.522  1.00  0.00     0.106 C
HETATM   14  N1  UNL     1      29.791  -7.318  20.913  1.00  0.00    -0.194 NA
HETATM   15  C18 UNL     1      28.236  -5.689  23.469  1.00  0.00     0.076 C
HETATM   16  C19 UNL     1      27.211  -4.731  24.005  1.00  0.00    -0.012 C
HETATM   17  C20 UNL     1      27.976  -3.728  24.884  1.00  0.00     0.021 C
HETATM   18  C21 UNL     1      26.167  -5.403  24.856  1.00  0.00     0.003 C
HETATM   19  C22 UNL     1      26.671  -6.497  25.713  1.00  0.00     0.007 C
HETATM   20  C23 UNL     1      25.773  -7.578  26.114  1.00  0.00     0.010 C
HETATM   21  C24 UNL     1      24.550  -7.832  25.298  1.00  0.00    -0.036 C
HETATM   22  C25 UNL     1      24.774  -8.732  24.122  1.00  0.00     0.016 C
ENDROOT
BRANCH  12  23
HETATM   23  O3  UNL     1      30.197  -4.567  22.681  1.00  0.00    -0.369 OA
ATOM     24  H3  UNL     1      30.451  -4.933  23.521  1.00  0.00     0.212 HD
ENDBRANCH  12  23
BRANCH   1  25
HETATM   25  C2  UNL     1      23.216  -9.750  26.274  1.00  0.00     0.008 C
HETATM   26  C1  UNL     1      23.713 -10.269  27.628  1.00  0.00     0.014 C
BRANCH  25  27
HETATM   27  C3  UNL     1      21.785 -10.143  26.304  1.00  0.00    -0.024 C
HETATM   28  C4  UNL     1      21.189 -10.803  27.253  1.00  0.00    -0.005 C
BRANCH  28  29
HETATM   29  C5  UNL     1      19.716 -11.147  27.180  1.00  0.00     0.191 C
BRANCH  29  30
HETATM   30  O1  UNL     1      19.314 -11.520  28.468  1.00  0.00    -0.397 OA
ATOM     31  H1  UNL     1      18.369 -11.433  28.503  1.00  0.00     0.209 HD
ENDBRANCH  29  30
ENDBRANCH  28  29
ENDBRANCH  25  27
ENDBRANCH   1  25
TORSDOF 5
ENDMDL