MODEL 2
REMARK VINA RESULT: -7.906143303      1.829      2.436
REMARK  4 active torsions:
REMARK  status: ('A' for Active; 'I' for Inactive)
REMARK    1  A    between atoms: O1_1  and  C1_3
REMARK    2  A    between atoms: C7_9  and  C8_10
REMARK    3  A    between atoms: C9_15  and  C10_16
REMARK    4  A    between atoms: C16_22  and  C17_23
ROOT
HETATM    1  C8  UNL     1      27.993  -4.548  21.659  1.00  0.00     0.106 A
HETATM    2  N1  UNL     1      28.336  -5.858  21.522  1.00  0.00    -0.287 N
ATOM      3  H1  UNL     1      28.026  -6.612  22.134  1.00  0.00     0.188 HD
HETATM    4  N2  UNL     1      29.113  -6.005  20.498  1.00  0.00    -0.287 N
ATOM      5  H2  UNL     1      29.513  -6.887  20.177  1.00  0.00     0.188 HD
HETATM    6  C9  UNL     1      29.307  -4.797  19.923  1.00  0.00     0.101 A
HETATM    7  N5  UNL     1      28.608  -3.926  20.659  1.00  0.00    -0.333 N
ATOM      8  H5  UNL     1      28.554  -2.923  20.477  1.00  0.00     0.168 HD
ENDROOT
BRANCH   6   9
HETATM    9  C10 UNL     1      30.147  -4.597  18.713  1.00  0.00     0.055 C
HETATM   10  C11 UNL     1      30.954  -5.757  18.289  1.00  0.00     0.015 C
HETATM   11  C12 UNL     1      30.849  -6.239  16.892  1.00  0.00     0.031 C
HETATM   12  C13 UNL     1      30.511  -5.297  15.810  1.00  0.00     0.030 C
HETATM   13  C14 UNL     1      29.368  -5.868  15.000  1.00  0.00     0.037 C
HETATM   14  N4  UNL     1      31.525  -5.044  14.832  1.00  0.00    -0.383 N
HETATM   15  C21 UNL     1      30.114  -3.926  16.360  1.00  0.00     0.031 C
HETATM   16  C15 UNL     1      29.784  -5.694  13.574  1.00  0.00     0.060 C
HETATM   17  C16 UNL     1      31.183  -5.237  13.633  1.00  0.00     0.017 C
ATOM     18  H4  UNL     1      32.461  -4.729  15.088  1.00  0.00     0.160 HD
HETATM   19  C22 UNL     1      29.262  -4.162  17.551  1.00  0.00     0.015 C
BRANCH  17  20
HETATM   20  C17 UNL     1      31.989  -4.996  12.406  1.00  0.00     0.003 A
HETATM   21  C18 UNL     1      31.798  -5.580  11.184  1.00  0.00     0.031 A
HETATM   22  C19 UNL     1      32.731  -5.018  10.308  1.00  0.00     0.088 A
HETATM   23  N3  UNL     1      33.476  -4.105  10.994  1.00  0.00    -0.374 N
HETATM   24  C20 UNL     1      33.015  -4.106  12.257  1.00  0.00     0.101 A
ATOM     25  H3  UNL     1      34.235  -3.534  10.621  1.00  0.00     0.164 HD
ENDBRANCH  17  20
ENDBRANCH   6   9
BRANCH   1  26
HETATM   26  C7  UNL     1      27.125  -4.070  22.731  1.00  0.00     0.026 C
HETATM   27  C5  UNL     1      26.320  -5.119  23.414  1.00  0.00     0.005 C
HETATM   28  C4  UNL     1      24.857  -4.665  23.273  1.00  0.00     0.010 C
HETATM   29  C6  UNL     1      26.608  -4.972  24.909  1.00  0.00     0.043 C
HETATM   30  C3  UNL     1      25.058  -3.161  23.284  1.00  0.00    -0.010 C
HETATM   31  C2  UNL     1      25.652  -2.666  24.578  1.00  0.00     0.042 C
HETATM   32  C23 UNL     1      26.137  -3.038  22.216  1.00  0.00     0.022 C
HETATM   33  C1  UNL     1      26.879  -3.461  24.966  1.00  0.00     0.060 C
HETATM   34  C24 UNL     1      27.894  -3.338  23.840  1.00  0.00     0.055 C
BRANCH  33  35
HETATM   35  O1  UNL     1      27.379  -3.055  26.179  1.00  0.00    -0.390 OA
ATOM     36  H1  UNL     1      27.017  -3.566  26.893  1.00  0.00     0.210 HD
ENDBRANCH  33  35
ENDBRANCH   1  26
TORSDOF 4
ENDMDL