MODEL 3
REMARK VINA RESULT: -6.513805346      2.854      7.236
REMARK  6 active torsions:
REMARK  status: ('A' for Active; 'I' for Inactive)
REMARK    1  A    between atoms: C2_2  and  C4_4
REMARK    2  A    between atoms: C11_11  and  O1_12
REMARK    3  A    between atoms: C15_17  and  O2_18
REMARK    4  A    between atoms: C15_17  and  C16_20
REMARK    5  A    between atoms: C16_20  and  O3_21
REMARK    6  A    between atoms: C22_29  and  C24_31
ROOT
HETATM    1  C4  UNL     1      27.617  -4.969  23.274  1.00  0.00     0.024 C
HETATM    2  C5  UNL     1      26.919  -6.307  22.967  1.00  0.00     0.011 C
HETATM    3  C6  UNL     1      27.427  -7.332  23.925  1.00  0.00     0.013 C
HETATM    4  C7  UNL     1      27.086  -6.932  25.298  1.00  0.00    -0.011 C
HETATM    5  C8  UNL     1      25.644  -7.381  25.574  1.00  0.00     0.018 C
HETATM    6  C9  UNL     1      27.930  -7.661  26.356  1.00  0.00     0.028 C
HETATM    7  C10 UNL     1      29.267  -8.094  25.765  1.00  0.00     0.040 C
HETATM    8  C11 UNL     1      30.149  -8.556  26.880  1.00  0.00     0.127 C
HETATM    9  C12 UNL     1      30.485  -7.458  27.873  1.00  0.00    -0.009 C
HETATM   10  C13 UNL     1      31.373  -6.469  27.101  1.00  0.00     0.018 C
HETATM   11  C14 UNL     1      31.335  -8.008  28.960  1.00  0.00     0.052 C
HETATM   12  C15 UNL     1      30.715  -8.255  30.272  1.00  0.00     0.080 C
HETATM   13  C17 UNL     1      29.505  -7.421  30.585  1.00  0.00     0.040 C
HETATM   14  C18 UNL     1      28.572  -7.522  29.426  1.00  0.00     0.011 C
HETATM   15  C19 UNL     1      29.260  -6.750  28.287  1.00  0.00     0.026 C
HETATM   16  C20 UNL     1      28.236  -6.510  27.273  1.00  0.00     0.132 C
HETATM   17  O4  UNL     1      28.437  -5.494  26.376  1.00  0.00    -0.378 OA
HETATM   18  C21 UNL     1      27.216  -5.531  25.670  1.00  0.00     0.139 C
HETATM   19  C22 UNL     1      27.143  -4.474  24.598  1.00  0.00    -0.010 C
HETATM   20  C23 UNL     1      25.703  -4.054  24.489  1.00  0.00     0.018 C
ENDROOT
BRANCH  12  21
HETATM   21  O2  UNL     1      31.630  -8.024  31.330  1.00  0.00    -0.388 OA
ATOM     22  H2  UNL     1      31.603  -7.121  31.623  1.00  0.00     0.210 HD
ENDBRANCH  12  21
BRANCH  12  23
HETATM   23  C16 UNL     1      30.301  -9.717  30.429  1.00  0.00     0.201 C
BRANCH  23  24
HETATM   24  O3  UNL     1      29.831  -9.956  31.728  1.00  0.00    -0.398 OA
ATOM     25  H3  UNL     1      29.268 -10.721  31.742  1.00  0.00     0.209 HD
ENDBRANCH  23  24
ENDBRANCH  12  23
BRANCH   8  26
HETATM   26  O1  UNL     1      31.365  -8.982  26.323  1.00  0.00    -0.395 OA
ATOM     27  H1  UNL     1      31.710  -8.272  25.793  1.00  0.00     0.210 HD
ENDBRANCH   8  26
BRANCH  19  28
HETATM   28  C24 UNL     1      27.925  -3.253  25.049  1.00  0.00     0.008 C
HETATM   29  C25 UNL     1      27.310  -2.544  26.208  1.00  0.00     0.006 C
ENDBRANCH  19  28
BRANCH   1  30
HETATM   30  C2  UNL     1      27.434  -4.165  22.083  1.00  0.00    -0.088 C
HETATM   31  C1  UNL     1      26.636  -3.184  21.780  1.00  0.00     0.014 C
HETATM   32  C3  UNL     1      28.379  -4.526  20.927  1.00  0.00     0.043 C
ENDBRANCH   1  30
TORSDOF 6
ENDMDL