MODEL 3
REMARK VINA RESULT: -6.758191223      1.040      1.097
REMARK  6 active torsions:
REMARK  status: ('A' for Active; 'I' for Inactive)
REMARK    1  A    between atoms: C5_5  and  O1_6
REMARK    2  A    between atoms: C8_10  and  O2_11
REMARK    3  A    between atoms: C13_17  and  C14_18
REMARK    4  A    between atoms: C14_18  and  C16_20
REMARK    5  A    between atoms: C16_20  and  C17_21
REMARK    6  A    between atoms: C17_21  and  C18_22
ROOT
HETATM    1  C1  UNL     1      28.535 -10.222  30.298  1.00  0.00     0.043 C
HETATM    2  C2  UNL     1      28.295  -9.582  28.958  1.00  0.00    -0.087 C
HETATM    3  C3  UNL     1      27.269  -9.961  28.203  1.00  0.00    -0.021 C
HETATM    4  C4  UNL     1      27.087  -9.276  26.869  1.00  0.00     0.066 C
HETATM    5  C5  UNL     1      28.412  -9.363  26.188  1.00  0.00     0.071 C
HETATM    6  C6  UNL     1      29.555  -8.862  27.023  1.00  0.00     0.054 C
HETATM    7  C7  UNL     1      29.179  -8.510  28.425  1.00  0.00     0.043 C
HETATM    8  C8  UNL     1      30.150  -7.649  26.282  1.00  0.00     0.130 C
HETATM    9  C9  UNL     1      28.967  -7.215  25.496  1.00  0.00     0.026 C
HETATM   10  C10 UNL     1      29.000  -6.106  24.597  1.00  0.00     0.001 C
HETATM   11  C11 UNL     1      30.223  -5.366  24.241  1.00  0.00     0.006 C
HETATM   12  C12 UNL     1      29.767  -4.507  23.048  1.00  0.00     0.006 C
HETATM   13  C13 UNL     1      28.359  -4.977  22.751  1.00  0.00    -0.002 C
HETATM   14  C21 UNL     1      28.429  -6.376  23.167  1.00  0.00    -0.036 C
HETATM   15  C22 UNL     1      29.392  -7.205  22.412  1.00  0.00     0.016 C
HETATM   16  C23 UNL     1      27.116  -7.039  23.473  1.00  0.00     0.010 C
HETATM   17  C24 UNL     1      27.264  -8.348  24.179  1.00  0.00     0.009 C
HETATM   18  C25 UNL     1      28.527  -8.569  24.912  1.00  0.00     0.028 C
ENDROOT
BRANCH  13  19
HETATM   19  C14 UNL     1      27.734  -4.511  21.519  1.00  0.00    -0.014 C
HETATM   20  C15 UNL     1      28.609  -4.244  20.339  1.00  0.00     0.010 C
BRANCH  19  21
HETATM   21  C16 UNL     1      26.890  -3.311  21.853  1.00  0.00     0.009 C
BRANCH  21  22
HETATM   22  C17 UNL     1      25.749  -3.472  22.757  1.00  0.00     0.061 C
BRANCH  22  23
HETATM   23  C18 UNL     1      25.761  -2.650  24.019  1.00  0.00     0.259 C
HETATM   24  O3  UNL     1      27.001  -2.252  24.462  1.00  0.00    -0.359 OA
HETATM   25  C19 UNL     1      27.333  -2.963  25.600  1.00  0.00     0.197 C
HETATM   26  C20 UNL     1      26.242  -4.033  25.678  1.00  0.00     0.197 C
HETATM   27  O4  UNL     1      25.188  -3.337  25.089  1.00  0.00    -0.359 OA
ENDBRANCH  22  23
ENDBRANCH  21  22
ENDBRANCH  19  21
ENDBRANCH  13  19
BRANCH   8  28
HETATM   28  O2  UNL     1      31.242  -8.091  25.606  1.00  0.00    -0.395 OA
ATOM     29  H2  UNL     1      31.308  -7.573  24.813  1.00  0.00     0.210 HD
ENDBRANCH   8  28
BRANCH   5  30
HETATM   30  O1  UNL     1      28.596 -10.723  25.841  1.00  0.00    -0.389 OA
ATOM     31  H1  UNL     1      29.534 -10.858  25.770  1.00  0.00     0.210 HD
ENDBRANCH   5  30
TORSDOF 6
ENDMDL