MODEL 5
REMARK VINA RESULT: -6.508731210      5.533      8.387
REMARK  6 active torsions:
REMARK  status: ('A' for Active; 'I' for Inactive)
REMARK    1  A    between atoms: C2_2  and  C4_4
REMARK    2  A    between atoms: C12_12  and  O1_13
REMARK    3  A    between atoms: O1_13  and  C13_14
REMARK    4  A    between atoms: C13_14  and  C14_16
REMARK    5  A    between atoms: C14_16  and  C15_17
REMARK    6  A    between atoms: C16_20  and  O5_21
ROOT
HETATM    1  C4  UNL     1      33.092  -6.867  17.930  1.00  0.00    -0.003 C
HETATM    2  C5  UNL     1      33.148  -5.360  18.092  1.00  0.00     0.006 C
HETATM    3  C6  UNL     1      31.751  -4.836  17.871  1.00  0.00     0.006 C
HETATM    4  C7  UNL     1      30.868  -5.956  18.304  1.00  0.00    -0.002 C
HETATM    5  C8  UNL     1      30.243  -5.621  19.631  1.00  0.00    -0.005 C
HETATM    6  C9  UNL     1      29.133  -4.596  19.363  1.00  0.00     0.006 C
HETATM    7  C10 UNL     1      28.483  -4.166  20.647  1.00  0.00     0.008 C
HETATM    8  C11 UNL     1      28.069  -5.272  21.538  1.00  0.00     0.026 C
HETATM    9  C12 UNL     1      28.194  -4.773  22.985  1.00  0.00     0.165 C
HETATM   10  C16 UNL     1      29.654  -4.868  23.235  1.00  0.00     0.148 C
HETATM   11  C17 UNL     1      29.995  -6.219  22.599  1.00  0.00     0.044 C
HETATM   12  C18 UNL     1      28.950  -6.465  21.549  1.00  0.00    -0.032 C
HETATM   13  C19 UNL     1      28.109  -7.657  22.019  1.00  0.00     0.016 C
HETATM   14  C20 UNL     1      29.525  -6.833  20.211  1.00  0.00    -0.001 C
HETATM   15  C21 UNL     1      30.440  -8.004  20.349  1.00  0.00     0.006 C
HETATM   16  C22 UNL     1      31.796  -7.702  19.796  1.00  0.00     0.010 C
HETATM   17  C23 UNL     1      31.718  -7.206  18.345  1.00  0.00    -0.036 C
HETATM   18  C24 UNL     1      31.016  -8.256  17.551  1.00  0.00     0.016 C
ENDROOT
BRANCH   9  19
HETATM   19  O1  UNL     1      27.606  -3.531  23.120  1.00  0.00    -0.309 OA
BRANCH  19  20
HETATM   20  C13 UNL     1      26.409  -3.272  23.777  1.00  0.00     0.289 C
HETATM   21  O2  UNL     1      25.513  -2.811  23.035  1.00  0.00    -0.260 OA
BRANCH  20  22
HETATM   22  C14 UNL     1      26.198  -3.504  25.181  1.00  0.00     0.166 C
BRANCH  22  23
HETATM   23  C15 UNL     1      27.232  -3.434  26.002  1.00  0.00     0.204 C
HETATM   24  O3  UNL     1      27.908  -2.239  26.205  1.00  0.00    -0.644 OA
HETATM   25  O4  UNL     1      27.704  -4.535  26.703  1.00  0.00    -0.644 OA
ENDBRANCH  22  23
ENDBRANCH  20  22
ENDBRANCH  19  20
ENDBRANCH   9  19
BRANCH  10  26
HETATM   26  O5  UNL     1      29.993  -4.989  24.583  1.00  0.00    -0.393 OA
ATOM     27  H5  UNL     1      29.248  -4.967  25.172  1.00  0.00     0.210 HD
ENDBRANCH  10  26
BRANCH   1  28
HETATM   28  C2  UNL     1      33.492  -7.191  16.532  1.00  0.00    -0.018 C
HETATM   29  C1  UNL     1      34.409  -6.041  16.080  1.00  0.00     0.010 C
HETATM   30  C3  UNL     1      34.343  -8.438  16.419  1.00  0.00     0.010 C
ENDBRANCH   1  28
TORSDOF 6
ENDMDL