MODEL 3
REMARK VINA RESULT: -6.331687527      1.717      2.365
REMARK  7 active torsions:
REMARK  status: ('A' for Active; 'I' for Inactive)
REMARK    1  A    between atoms: C2_2  and  C4_4
REMARK    2  A    between atoms: C10_10  and  O1_11
REMARK    3  A    between atoms: C11_13  and  C12_14
REMARK    4  A    between atoms: C12_14  and  O2_15
REMARK    5  A    between atoms: O2_15  and  C13_16
REMARK    6  A    between atoms: C14_19  and  O5_20
REMARK    7  A    between atoms: C18_25  and  C19_26
ROOT
HETATM    1  C4  UNL     1      27.365  -3.099  23.748  1.00  0.00     0.022 C
HETATM    2  C5  UNL     1      27.346  -2.594  25.182  1.00  0.00     0.010 C
HETATM    3  C6  UNL     1      27.724  -3.760  26.075  1.00  0.00     0.006 C
HETATM    4  C7  UNL     1      27.744  -4.913  25.164  1.00  0.00    -0.001 C
HETATM    5  C8  UNL     1      28.637  -6.064  25.632  1.00  0.00     0.002 C
HETATM    6  C9  UNL     1      28.110  -6.512  26.936  1.00  0.00     0.038 C
HETATM    7  C10 UNL     1      27.626  -7.903  27.096  1.00  0.00     0.132 C
HETATM    8  C11 UNL     1      27.209  -8.609  25.861  1.00  0.00     0.038 C
HETATM    9  C14 UNL     1      27.606 -10.094  26.049  1.00  0.00     0.131 C
HETATM   10  C15 UNL     1      27.587 -10.612  24.644  1.00  0.00     0.033 C
HETATM   11  C16 UNL     1      28.348  -9.478  23.937  1.00  0.00     0.009 C
HETATM   12  C17 UNL     1      27.862  -8.220  24.606  1.00  0.00     0.010 C
HETATM   13  C18 UNL     1      28.876  -7.108  24.604  1.00  0.00    -0.032 C
HETATM   14  C21 UNL     1      28.860  -6.567  23.164  1.00  0.00     0.011 C
HETATM   15  C22 UNL     1      27.957  -5.418  22.900  1.00  0.00     0.011 C
HETATM   16  C23 UNL     1      28.202  -4.315  23.862  1.00  0.00    -0.033 C
HETATM   17  C24 UNL     1      29.634  -3.848  23.915  1.00  0.00     0.016 C
ENDROOT
BRANCH   8  18
HETATM   18  C12 UNL     1      25.698  -8.732  25.760  1.00  0.00     0.197 C
BRANCH  18  19
HETATM   19  O2  UNL     1      25.073  -7.521  25.362  1.00  0.00    -0.295 OA
BRANCH  19  20
HETATM   20  C13 UNL     1      23.731  -7.531  24.973  1.00  0.00     0.332 C
HETATM   21  O3  UNL     1      23.265  -8.634  24.588  1.00  0.00    -0.624 OA
HETATM   22  O4  UNL     1      22.912  -6.425  24.990  1.00  0.00    -0.624 OA
ENDBRANCH  19  20
ENDBRANCH  18  19
ENDBRANCH   8  18
BRANCH   7  23
HETATM   23  O1  UNL     1      26.500  -7.921  27.967  1.00  0.00    -0.395 OA
ATOM     24  H1  UNL     1      26.687  -8.470  28.720  1.00  0.00     0.210 HD
ENDBRANCH   7  23
BRANCH   9  25
HETATM   25  O5  UNL     1      26.654 -10.766  26.834  1.00  0.00    -0.395 OA
ATOM     26  H5  UNL     1      26.346 -11.548  26.392  1.00  0.00     0.210 HD
ENDBRANCH   9  25
BRANCH  13  27
HETATM   27  C19 UNL     1      30.320  -7.566  24.675  1.00  0.00     0.006 C
HETATM   28  C20 UNL     1      31.311  -6.833  25.422  1.00  0.00     0.006 C
ENDBRANCH  13  27
BRANCH   1  29
HETATM   29  C2  UNL     1      26.039  -3.203  23.161  1.00  0.00    -0.088 C
HETATM   30  C1  UNL     1      25.893  -2.691  21.911  1.00  0.00     0.014 C
HETATM   31  C3  UNL     1      24.813  -3.756  23.749  1.00  0.00     0.043 C
ENDBRANCH   1  29
TORSDOF 7
ENDMDL