MODEL 3
REMARK VINA RESULT: -7.140469936      6.165      9.985
REMARK  5 active torsions:
REMARK  status: ('A' for Active; 'I' for Inactive)
REMARK    1  A    between atoms: C4_4  and  C5_5
REMARK    2  A    between atoms: C12_14  and  C13_15
REMARK    3  A    between atoms: C13_15  and  O1_16
REMARK    4  A    between atoms: N2_20  and  C16_21
REMARK    5  A    between atoms: C21_26  and  O2_27
ROOT
HETATM    1  C1  UNL     1      27.853  -8.979  22.438  1.00  0.00     0.068 C
HETATM    2  C2  UNL     1      28.125  -7.628  21.902  1.00  0.00     0.007 A
HETATM    3  C3  UNL     1      27.545  -6.486  22.472  1.00  0.00     0.034 A
HETATM    4  C4  UNL     1      27.799  -5.224  21.992  1.00  0.00    -0.022 A
HETATM    5  C11 UNL     1      28.664  -5.167  20.907  1.00  0.00     0.085 A
HETATM    6  N1  UNL     1      28.993  -4.105  20.127  1.00  0.00    -0.340 N
ATOM      7  H1  UNL     1      28.724  -3.135  20.291  1.00  0.00     0.167 HD
HETATM    8  C12 UNL     1      29.716  -4.545  19.126  1.00  0.00     0.118 A
HETATM    9  N3  UNL     1      29.887  -5.892  19.235  1.00  0.00    -0.328 N
ATOM     10  H3  UNL     1      30.414  -6.494  18.602  1.00  0.00     0.169 HD
HETATM   11  C24 UNL     1      29.216  -6.277  20.358  1.00  0.00     0.134 A
HETATM   12  N4  UNL     1      28.948  -7.491  20.859  1.00  0.00    -0.344 N
ATOM     13  H4  UNL     1      29.376  -8.317  20.440  1.00  0.00     0.167 HD
ENDROOT
BRANCH   8  14
HETATM   14  C13 UNL     1      30.160  -3.871  17.863  1.00  0.00     0.119 C
HETATM   15  C14 UNL     1      29.505  -4.478  16.666  1.00  0.00     0.076 C
HETATM   16  C15 UNL     1      30.192  -3.889  15.442  1.00  0.00     0.276 C
HETATM   17  N2  UNL     1      31.507  -4.486  15.267  1.00  0.00     0.095 N
HETATM   18  C22 UNL     1      32.023  -4.951  16.529  1.00  0.00     0.276 C
HETATM   19  C23 UNL     1      31.666  -4.146  17.722  1.00  0.00     0.076 C
BRANCH  14  20
HETATM   20  O1  UNL     1      29.962  -2.518  17.904  1.00  0.00    -0.382 OA
ATOM     21  H1  UNL     1      30.545  -2.053  17.316  1.00  0.00     0.211 HD
ENDBRANCH  14  20
BRANCH  17  22
HETATM   22  C16 UNL     1      32.445  -3.653  14.566  1.00  0.00     0.251 C
HETATM   23  C17 UNL     1      33.875  -4.023  14.650  1.00  0.00     0.038 C
HETATM   24  C18 UNL     1      34.687  -2.869  14.019  1.00  0.00     0.002 C
HETATM   25  C19 UNL     1      34.275  -2.605  12.609  1.00  0.00     0.003 C
HETATM   26  C20 UNL     1      32.784  -2.446  12.433  1.00  0.00     0.034 C
HETATM   27  C21 UNL     1      32.025  -3.549  13.127  1.00  0.00     0.151 C
BRANCH  27  28
HETATM   28  O2  UNL     1      32.282  -4.755  12.503  1.00  0.00    -0.393 OA
ATOM     29  H2  UNL     1      32.991  -4.630  11.884  1.00  0.00     0.210 HD
ENDBRANCH  27  28
ENDBRANCH  17  22
ENDBRANCH   8  14
BRANCH   4  30
HETATM   30  C5  UNL     1      27.358  -3.969  22.659  1.00  0.00     0.021 C
HETATM   31  C6  UNL     1      25.857  -4.008  22.831  1.00  0.00     0.009 C
HETATM   32  C7  UNL     1      25.339  -2.860  23.607  1.00  0.00     0.001 C
HETATM   33  C8  UNL     1      26.019  -2.642  24.928  1.00  0.00     0.000 C
HETATM   34  C9  UNL     1      27.475  -2.995  24.909  1.00  0.00     0.001 C
HETATM   35  C10 UNL     1      27.814  -4.233  24.153  1.00  0.00     0.009 C
ENDBRANCH   4  30
TORSDOF 5
ENDMDL