MODEL 1
REMARK VINA RESULT: -7.443862218      0.000      0.000
REMARK  6 active torsions:
REMARK  status: ('A' for Active; 'I' for Inactive)
REMARK    1  A    between atoms: C2_2  and  C3_3
REMARK    2  A    between atoms: C2_2  and  C4_6
REMARK    3  A    between atoms: C3_3  and  O1_4
REMARK    4  A    between atoms: C7_9  and  C8_10
REMARK    5  A    between atoms: C13_15  and  O2_17
REMARK    6  A    between atoms: C15_19  and  O3_20
ROOT
HETATM    1  C8  UNL     1      25.149  -7.761  25.322  1.00  0.00    -0.018 C
HETATM    2  C9  UNL     1      25.977  -6.714  25.002  1.00  0.00    -0.066 C
HETATM    3  C10 UNL     1      27.185  -6.595  25.809  1.00  0.00     0.036 C
HETATM    4  C11 UNL     1      27.916  -5.303  25.698  1.00  0.00     0.013 C
HETATM    5  C12 UNL     1      27.901  -4.680  24.340  1.00  0.00     0.031 C
HETATM    6  C13 UNL     1      28.832  -5.338  23.344  1.00  0.00     0.084 C
HETATM    7  C14 UNL     1      30.194  -5.559  23.967  1.00  0.00     0.049 C
HETATM    8  C15 UNL     1      29.053  -4.313  22.223  1.00  0.00     0.152 C
HETATM    9  C16 UNL     1      27.825  -3.495  21.952  1.00  0.00     0.035 C
HETATM   10  C17 UNL     1      26.564  -4.218  22.308  1.00  0.00     0.013 C
HETATM   11  C18 UNL     1      26.512  -4.577  23.786  1.00  0.00    -0.030 C
HETATM   12  C19 UNL     1      25.864  -3.360  24.468  1.00  0.00     0.016 C
HETATM   13  C20 UNL     1      25.680  -5.805  23.902  1.00  0.00     0.024 C
HETATM   14  C21 UNL     1      24.219  -5.446  23.819  1.00  0.00     0.011 C
HETATM   15  C22 UNL     1      23.278  -6.433  24.391  1.00  0.00     0.014 C
HETATM   16  C23 UNL     1      23.902  -7.822  24.511  1.00  0.00    -0.018 C
HETATM   17  C24 UNL     1      24.159  -8.392  23.130  1.00  0.00     0.020 C
HETATM   18  C25 UNL     1      22.833  -8.681  25.127  1.00  0.00     0.020 C
ENDROOT
BRANCH   1  19
HETATM   19  C7  UNL     1      25.426  -8.705  26.380  1.00  0.00     0.054 C
HETATM   20  C6  UNL     1      25.490 -10.157  26.047  1.00  0.00     0.068 C
HETATM   21  C5  UNL     1      25.673 -10.750  27.460  1.00  0.00     0.039 C
HETATM   22  C4  UNL     1      24.924  -9.763  28.280  1.00  0.00     0.134 C
HETATM   23  O4  UNL     1      24.763  -8.602  27.570  1.00  0.00    -0.349 OA
BRANCH  22  24
HETATM   24  C2  UNL     1      25.491  -9.547  29.659  1.00  0.00     0.035 C
HETATM   25  C1  UNL     1      26.681  -8.615  29.618  1.00  0.00     0.015 C
BRANCH  24  26
HETATM   26  C3  UNL     1      24.495  -9.041  30.647  1.00  0.00     0.170 C
BRANCH  26  27
HETATM   27  O1  UNL     1      25.182  -8.673  31.802  1.00  0.00    -0.400 OA
ATOM     28  H1  UNL     1      26.034  -8.341  31.545  1.00  0.00     0.209 HD
ENDBRANCH  26  27
ENDBRANCH  24  26
ENDBRANCH  22  24
ENDBRANCH   1  19
BRANCH   6  29
HETATM   29  O2  UNL     1      28.345  -6.533  22.844  1.00  0.00    -0.387 OA
ATOM     30  H2  UNL     1      29.027  -7.123  22.543  1.00  0.00     0.210 HD
ENDBRANCH   6  29
BRANCH   8  31
HETATM   31  O3  UNL     1      30.013  -3.410  22.736  1.00  0.00    -0.393 OA
ATOM     32  H3  UNL     1      29.512  -2.657  23.028  1.00  0.00     0.210 HD
ENDBRANCH   8  31
TORSDOF 6
ENDMDL