MODEL 3
REMARK VINA RESULT: -6.875963627      2.261      6.669
REMARK  5 active torsions:
REMARK  status: ('A' for Active; 'I' for Inactive)
REMARK    1  A    between atoms: C11_11  and  C13_13
REMARK    2  A    between atoms: C13_13  and  C14_14
REMARK    3  A    between atoms: C14_14  and  C15_15
REMARK    4  A    between atoms: C24_26  and  O3_27
REMARK    5  A    between atoms: C25_29  and  O4_30
ROOT
HETATM    1  C1  UNL     1      22.591  -8.277  25.333  1.00  0.00     0.018 C
HETATM    2  C2  UNL     1      23.286  -8.293  24.018  1.00  0.00    -0.008 C
HETATM    3  C3  UNL     1      23.277  -6.987  23.283  1.00  0.00     0.017 C
HETATM    4  C4  UNL     1      23.785  -5.930  24.232  1.00  0.00     0.036 C
HETATM    5  C5  UNL     1      25.122  -6.179  24.853  1.00  0.00    -0.068 C
HETATM    6  C6  UNL     1      25.425  -7.598  25.046  1.00  0.00    -0.072 C
HETATM    7  C7  UNL     1      26.869  -7.917  25.299  1.00  0.00     0.036 C
HETATM    8  C8  UNL     1      27.842  -7.187  24.486  1.00  0.00     0.015 C
HETATM    9  C9  UNL     1      27.582  -5.730  24.221  1.00  0.00    -0.025 C
HETATM   10  C10 UNL     1      27.956  -5.570  22.724  1.00  0.00     0.017 C
HETATM   11  C11 UNL     1      28.710  -4.988  24.921  1.00  0.00    -0.035 C
HETATM   12  C12 UNL     1      30.067  -5.292  24.276  1.00  0.00     0.016 C
HETATM   13  C16 UNL     1      28.579  -3.493  24.772  1.00  0.00     0.010 C
HETATM   14  C17 UNL     1      27.291  -3.091  25.370  1.00  0.00     0.002 C
HETATM   15  C18 UNL     1      26.198  -4.048  25.400  1.00  0.00     0.014 C
HETATM   16  C19 UNL     1      26.223  -5.214  24.420  1.00  0.00    -0.012 C
HETATM   17  C20 UNL     1      25.728  -4.516  23.131  1.00  0.00     0.021 C
HETATM   18  C21 UNL     1      24.763  -8.615  24.134  1.00  0.00     0.025 C
HETATM   19  C22 UNL     1      25.431  -8.833  22.839  1.00  0.00     0.012 C
HETATM   20  C23 UNL     1      24.691  -9.558  21.802  1.00  0.00     0.035 C
HETATM   21  C24 UNL     1      23.219  -9.621  21.884  1.00  0.00     0.147 C
HETATM   22  C25 UNL     1      22.629  -9.406  23.222  1.00  0.00     0.155 C
ENDROOT
BRANCH  11  23
HETATM   23  C13 UNL     1      28.890  -5.326  26.359  1.00  0.00     0.020 C
BRANCH  23  24
HETATM   24  C14 UNL     1      30.122  -6.137  26.697  1.00  0.00     0.114 C
BRANCH  24  25
HETATM   25  C15 UNL     1      29.811  -6.849  27.997  1.00  0.00     0.172 C
HETATM   26  O1  UNL     1      28.743  -6.495  28.556  1.00  0.00    -0.648 OA
HETATM   27  O2  UNL     1      30.627  -7.807  28.528  1.00  0.00    -0.648 OA
ENDBRANCH  24  25
ENDBRANCH  23  24
ENDBRANCH  11  23
BRANCH  22  28
HETATM   28  O4  UNL     1      21.261  -9.124  23.055  1.00  0.00    -0.392 OA
ATOM     29  H4  UNL     1      20.768  -9.936  23.029  1.00  0.00     0.210 HD
ENDBRANCH  22  28
BRANCH  21  30
HETATM   30  O3  UNL     1      22.614  -8.722  20.972  1.00  0.00    -0.393 OA
ATOM     31  H3  UNL     1      22.727  -7.821  21.248  1.00  0.00     0.210 HD
ENDBRANCH  21  30
TORSDOF 5
ENDMDL