MODEL 4
REMARK VINA RESULT: -6.840802982      1.114      1.585
REMARK  5 active torsions:
REMARK  status: ('A' for Active; 'I' for Inactive)
REMARK    1  A    between atoms: N2_5  and  N3_7
REMARK    2  A    between atoms: N3_7  and  C4_9
REMARK    3  A    between atoms: C4_9  and  N4_11
REMARK    4  A    between atoms: N4_11  and  N5_13
REMARK       I    between atoms: N5_13  and  C5_15
REMARK    5  A    between atoms: C5_15  and  C6_17
ROOT
HETATM    1  C1  UNL     1     -42.958  -3.667   4.888  1.00  0.00     0.082 C
HETATM    2  C2  UNL     1     -44.372  -3.260   4.867  1.00  0.00     0.101 C
HETATM    3  C3  UNL     1     -45.188  -3.473   6.017  1.00  0.00     0.114 C
HETATM    4  N1  UNL     1     -45.865  -3.642   6.941  1.00  0.00    -0.190 NA
HETATM    5  N2  UNL     1     -44.877  -2.721   3.834  1.00  0.00    -0.293 N
ATOM      6  H2  UNL     1     -45.861  -2.450   3.847  1.00  0.00     0.187 HD
ENDROOT
BRANCH   5   7
HETATM    7  N3  UNL     1     -44.126  -2.487   2.679  1.00  0.00    -0.274 N
ATOM      8  H3  UNL     1     -43.237  -2.971   2.559  1.00  0.00     0.189 HD
BRANCH   7   9
HETATM    9  C4  UNL     1     -44.563  -1.604   1.681  1.00  0.00     0.205 C
HETATM   10  S1  UNL     1     -46.155  -1.416   1.369  1.00  0.00    -0.038 SA
BRANCH   9  11
HETATM   11  N4  UNL     1     -43.634  -0.839   0.902  1.00  0.00    -0.272 N
ATOM     12  H4  UNL     1     -43.445   0.128   1.166  1.00  0.00     0.189 HD
BRANCH  11  13
HETATM   13  N5  UNL     1     -42.981  -1.376  -0.203  1.00  0.00    -0.264 N
HETATM   14  C5  UNL     1     -41.769  -2.089  -0.066  1.00  0.00     0.270 C
HETATM   15  O1  UNL     1     -41.290  -2.227   1.092  1.00  0.00    -0.266 OA
ATOM     16  H5  UNL     1     -43.387  -1.253  -1.131  1.00  0.00     0.190 HD
BRANCH  14  17
HETATM   17  C6  UNL     1     -41.077  -2.657  -1.228  1.00  0.00     0.033 A
HETATM   18  C7  UNL     1     -39.747  -3.007  -1.097  1.00  0.00     0.018 A
HETATM   19  C8  UNL     1     -39.033  -3.551  -2.154  1.00  0.00     0.020 A
HETATM   20  C9  UNL     1     -39.634  -3.758  -3.374  1.00  0.00     0.011 A
HETATM   21 BR1  UNL     1     -38.671  -4.507  -4.853  1.00  0.00    -0.051 Br
HETATM   22  C10 UNL     1     -40.962  -3.406  -3.498  1.00  0.00     0.020 A
HETATM   23  C11 UNL     1     -41.685  -2.857  -2.431  1.00  0.00     0.018 A
ENDBRANCH  14  17
ENDBRANCH  11  13
ENDBRANCH   9  11
ENDBRANCH   7   9
ENDBRANCH   5   7
TORSDOF 5
ENDMDL