MODEL 4
REMARK VINA RESULT: -6.167514503      2.901      4.224
REMARK  4 active torsions:
REMARK  status: ('A' for Active; 'I' for Inactive)
REMARK    1  A    between atoms: C2_2  and  N1_5
REMARK       I    between atoms: N1_5  and  C5_7
REMARK    2  A    between atoms: C5_7  and  C6_9
REMARK    3  A    between atoms: C11_17  and  C12_18
REMARK       I    between atoms: C12_18  and  N3_20
REMARK    4  A    between atoms: N3_20  and  N4_22
ROOT
HETATM    1  C6  UNL     1     -40.532  -2.499   1.982  1.00  0.00     0.102 C
HETATM    2 BR1  UNL     1     -42.153  -1.739   2.672  1.00  0.00    -0.043 Br
HETATM    3  C7  UNL     1     -39.672  -3.119   2.761  1.00  0.00     0.045 C
HETATM    4  N2  UNL     1     -38.486  -3.660   2.205  1.00  0.00    -0.371 N
ATOM      5  H2  UNL     1     -38.113  -3.233   1.357  1.00  0.00     0.164 HD
HETATM    6  C8  UNL     1     -37.855  -4.656   2.707  1.00  0.00     0.061 C
HETATM    7  C9  UNL     1     -38.404  -5.274   3.939  1.00  0.00     0.046 C
HETATM    8  C10 UNL     1     -38.859  -4.169   4.852  1.00  0.00     0.025 C
HETATM    9  C11 UNL     1     -39.888  -3.279   4.213  1.00  0.00     0.131 C
ENDROOT
BRANCH   1  10
HETATM   10  C5  UNL     1     -40.315  -2.341   0.551  1.00  0.00     0.261 C
HETATM   11  N1  UNL     1     -41.281  -2.672  -0.403  1.00  0.00    -0.348 N
ATOM     12  H1  UNL     1     -42.176  -3.040  -0.081  1.00  0.00     0.163 HD
HETATM   13  O1  UNL     1     -39.210  -1.887   0.168  1.00  0.00    -0.267 OA
BRANCH  11  14
HETATM   14  C2  UNL     1     -41.073  -2.518  -1.811  1.00  0.00     0.022 C
HETATM   15  C1  UNL     1     -42.404  -2.773  -2.507  1.00  0.00     0.037 C
HETATM   16  C3  UNL     1     -40.672  -1.099  -2.158  1.00  0.00     0.037 C
HETATM   17  C4  UNL     1     -40.015  -3.432  -2.372  1.00  0.00     0.037 C
ENDBRANCH  11  14
ENDBRANCH   1  10
BRANCH   9  18
HETATM   18  C12 UNL     1     -41.228  -3.702   4.613  1.00  0.00     0.245 C
HETATM   19  O2  UNL     1     -41.786  -4.675   3.997  1.00  0.00    -0.271 OA
HETATM   20  N3  UNL     1     -41.977  -3.104   5.648  1.00  0.00    -0.276 N
ATOM     21  H3  UNL     1     -41.565  -2.325   6.163  1.00  0.00     0.189 HD
BRANCH  20  22
HETATM   22  N4  UNL     1     -43.254  -3.533   5.995  1.00  0.00    -0.343 N
ATOM     23  H42 UNL     1     -43.560  -4.440   5.643  1.00  0.00     0.176 HD
ATOM     24  H41 UNL     1     -43.881  -2.979   6.579  1.00  0.00     0.176 HD
ENDBRANCH  20  22
ENDBRANCH   9  18
TORSDOF 4
ENDMDL