MODEL 3
REMARK VINA RESULT: -6.050661728      1.636      1.978
REMARK  5 active torsions:
REMARK  status: ('A' for Active; 'I' for Inactive)
REMARK    1  A    between atoms: C2_2  and  N1_4
REMARK    2  A    between atoms: N1_4  and  C4_6
REMARK    3  A    between atoms: C4_6  and  N2_8
REMARK    4  A    between atoms: N2_8  and  N3_10
REMARK       I    between atoms: N3_10  and  C5_12
REMARK    5  A    between atoms: C5_12  and  C6_14
ROOT
HETATM    1  C6  UNL     1     -40.618  -2.449   0.844  1.00  0.00     0.106 A
HETATM    2  C7  UNL     1     -41.772  -2.320   0.027  1.00  0.00     0.057 A
HETATM    3  C8  UNL     1     -41.392  -2.640  -1.250  1.00  0.00     0.051 A
HETATM    4 BR1  UNL     1     -42.475  -2.675  -2.842  1.00  0.00    -0.048 Br
HETATM    5  C9  UNL     1     -40.053  -2.954  -1.231  1.00  0.00     0.134 A
HETATM    6  C10 UNL     1     -39.252  -3.349  -2.364  1.00  0.00     0.119 C
HETATM    7  N4  UNL     1     -38.601  -3.673  -3.266  1.00  0.00    -0.190 NA
HETATM    8  N5  UNL     1     -39.606  -2.828   0.061  1.00  0.00    -0.337 N
HETATM    9  C11 UNL     1     -38.226  -3.077   0.412  1.00  0.00     0.157 C
ENDROOT
BRANCH   1  10
HETATM   10  C5  UNL     1     -40.636  -2.170   2.252  1.00  0.00     0.286 C
HETATM   11  N3  UNL     1     -40.270  -3.049   3.282  1.00  0.00    -0.262 N
ATOM     12  H3  UNL     1     -39.958  -3.993   3.053  1.00  0.00     0.190 HD
HETATM   13  O1  UNL     1     -41.032  -0.988   2.610  1.00  0.00    -0.264 OA
BRANCH  11  14
HETATM   14  N2  UNL     1     -40.329  -2.638   4.635  1.00  0.00    -0.274 N
ATOM     15  H2  UNL     1     -39.997  -1.715   4.915  1.00  0.00     0.189 HD
BRANCH  14  16
HETATM   16  C4  UNL     1     -40.855  -3.533   5.587  1.00  0.00     0.186 C
HETATM   17  S1  UNL     1     -39.882  -4.075   6.798  1.00  0.00    -0.040 SA
BRANCH  16  18
HETATM   18  N1  UNL     1     -42.204  -3.968   5.511  1.00  0.00    -0.362 N
ATOM     19  H1  UNL     1     -42.431  -4.962   5.500  1.00  0.00     0.162 HD
BRANCH  18  20
HETATM   20  C2  UNL     1     -43.263  -2.958   5.448  1.00  0.00     0.076 C
HETATM   21  C1  UNL     1     -44.315  -3.257   6.483  1.00  0.00     0.032 C
HETATM   22  C3  UNL     1     -43.920  -2.953   4.083  1.00  0.00     0.032 C
ENDBRANCH  18  20
ENDBRANCH  16  18
ENDBRANCH  14  16
ENDBRANCH  11  14
ENDBRANCH   1  10
TORSDOF 5
ENDMDL