MODEL 2
REMARK VINA RESULT: -6.387890665      2.232      3.558
REMARK  4 active torsions:
REMARK  status: ('A' for Active; 'I' for Inactive)
REMARK    1  A    between atoms: C8_9  and  O2_10
REMARK    2  A    between atoms: O2_10  and  C9_11
REMARK    3  A    between atoms: C13_16  and  O3_17
REMARK    4  A    between atoms: C14_19  and  O4_20
ROOT
HETATM    1  C1  UNL     1     -43.339  -1.274   2.119  1.00  0.00     0.020 C
HETATM    2  C2  UNL     1     -42.837  -2.111   3.271  1.00  0.00     0.011 C
HETATM    3  C3  UNL     1     -43.922  -2.959   3.826  1.00  0.00     0.016 C
HETATM    4  C4  UNL     1     -43.706  -3.430   5.224  1.00  0.00     0.027 C
HETATM    5  C5  UNL     1     -42.898  -2.480   6.064  1.00  0.00     0.168 C
HETATM    6  O1  UNL     1     -41.811  -1.953   5.370  1.00  0.00    -0.385 OA
HETATM    7  C6  UNL     1     -42.229  -1.195   4.293  1.00  0.00     0.134 C
HETATM    8  C7  UNL     1     -40.991  -0.725   3.555  1.00  0.00     0.067 C
HETATM    9  C8  UNL     1     -40.427  -1.999   3.018  1.00  0.00     0.154 C
HETATM   10  C14 UNL     1     -41.641  -2.889   2.781  1.00  0.00     0.158 C
ENDROOT
BRANCH   9  11
HETATM   11  O2  UNL     1     -39.854  -1.753   1.794  1.00  0.00    -0.375 OA
BRANCH  11  12
HETATM   12  C9  UNL     1     -39.998  -2.699   0.842  1.00  0.00     0.159 C
HETATM   13  C10 UNL     1     -40.660  -2.284  -0.429  1.00  0.00     0.081 C
HETATM   14  C11 UNL     1     -40.074  -3.124  -1.496  1.00  0.00    -0.010 C
HETATM   15 BR1  UNL     1     -40.886  -3.267  -3.240  1.00  0.00    -0.056 Br
HETATM   16  C12 UNL     1     -38.995  -3.695  -1.053  1.00  0.00     0.022 C
HETATM   17  C13 UNL     1     -38.723  -3.316   0.346  1.00  0.00     0.171 C
BRANCH  17  18
HETATM   18  O3  UNL     1     -37.662  -2.414   0.339  1.00  0.00    -0.389 OA
ATOM     19  H3  UNL     1     -37.936  -1.532   0.118  1.00  0.00     0.210 HD
ENDBRANCH  17  18
ENDBRANCH  11  12
ENDBRANCH   9  11
BRANCH  10  20
HETATM   20  O4  UNL     1     -41.544  -4.098   3.452  1.00  0.00    -0.392 OA
ATOM     21  H4  UNL     1     -41.916  -4.798   2.929  1.00  0.00     0.210 HD
ENDBRANCH  10  20
TORSDOF 4
ENDMDL