MODEL 4
REMARK VINA RESULT: -6.793724728      2.383      4.072
REMARK  5 active torsions:
REMARK  status: ('A' for Active; 'I' for Inactive)
REMARK    1  A    between atoms: N1_4  and  N2_6
REMARK    2  A    between atoms: N2_6  and  C4_8
REMARK    3  A    between atoms: C4_8  and  N3_10
REMARK    4  A    between atoms: N3_10  and  N4_12
REMARK       I    between atoms: N4_12  and  C5_14
REMARK    5  A    between atoms: C5_14  and  C6_16
ROOT
HETATM    1  N3  UNL     1     -41.852  -2.183   2.999  1.00  0.00    -0.272 N
ATOM      2  H3  UNL     1     -41.156  -1.628   3.497  1.00  0.00     0.189 HD
ENDROOT
BRANCH   1   3
HETATM    3  C4  UNL     1     -43.092  -2.403   3.637  1.00  0.00     0.205 C
HETATM    4  S1  UNL     1     -43.223  -3.475   4.845  1.00  0.00    -0.038 SA
BRANCH   3   5
HETATM    5  N2  UNL     1     -44.248  -1.693   3.206  1.00  0.00    -0.275 N
ATOM      6  H2  UNL     1     -44.581  -0.905   3.762  1.00  0.00     0.189 HD
BRANCH   5   7
HETATM    7  N1  UNL     1     -44.933  -2.039   2.055  1.00  0.00    -0.307 N
HETATM    8  C2  UNL     1     -45.991  -1.466   1.665  1.00  0.00    -0.004 C
HETATM    9  C1  UNL     1     -46.604  -0.354   2.414  1.00  0.00     0.064 C
HETATM   10  C3  UNL     1     -46.644  -1.941   0.406  1.00  0.00     0.064 C
ATOM     11  H1  UNL     1     -44.562  -2.800   1.488  1.00  0.00     0.186 HD
ENDBRANCH   5   7
ENDBRANCH   3   5
ENDBRANCH   1   3
BRANCH   1  12
HETATM   12  N4  UNL     1     -41.511  -2.668   1.745  1.00  0.00    -0.264 N
HETATM   13  C5  UNL     1     -41.870  -2.054   0.551  1.00  0.00     0.271 C
HETATM   14  O1  UNL     1     -42.548  -0.966   0.528  1.00  0.00    -0.266 OA
ATOM     15  H4  UNL     1     -40.963  -3.527   1.695  1.00  0.00     0.190 HD
BRANCH  13  16
HETATM   16  C6  UNL     1     -41.522  -2.557  -0.776  1.00  0.00     0.051 A
HETATM   17  C7  UNL     1     -42.529  -2.680  -1.747  1.00  0.00     0.018 A
HETATM   18  C8  UNL     1     -42.289  -3.071  -3.041  1.00  0.00     0.001 A
HETATM   19  C9  UNL     1     -40.986  -3.362  -3.409  1.00  0.00     0.001 A
HETATM   20  C10 UNL     1     -39.953  -3.260  -2.497  1.00  0.00     0.020 A
HETATM   21  C11 UNL     1     -40.256  -2.859  -1.197  1.00  0.00     0.026 A
HETATM   22 BR1  UNL     1     -38.793  -2.814   0.028  1.00  0.00    -0.050 Br
ENDBRANCH  13  16
ENDBRANCH   1  12
TORSDOF 5
ENDMDL