MODEL 2
REMARK VINA RESULT: -7.055133046      3.750      7.174
REMARK  4 active torsions:
REMARK  status: ('A' for Active; 'I' for Inactive)
REMARK       I    between atoms: N1_2  and  C2_4
REMARK    1  A    between atoms: C2_4  and  C3_6
REMARK    2  A    between atoms: C4_7  and  C5_8
REMARK       I    between atoms: N2_13  and  C8_14
REMARK    3  A    between atoms: C8_14  and  O5_16
REMARK    4  A    between atoms: O5_16  and  C9_17
ROOT
HETATM    1  C3  UNL     1     -41.956  -2.475   0.310  1.00  0.00     0.102 C
HETATM    2  C4  UNL     1     -40.978  -2.693  -0.790  1.00  0.00     0.106 C
HETATM    3  C6  UNL     1     -39.863  -2.071   0.069  1.00  0.00     0.029 C
HETATM    4  C7  UNL     1     -39.044  -3.072   0.850  1.00  0.00     0.137 C
HETATM    5  N2  UNL     1     -39.272  -2.727   2.243  1.00  0.00    -0.291 N
HETATM    6  C8  UNL     1     -38.370  -2.934   3.289  1.00  0.00     0.366 C
HETATM    7  O4  UNL     1     -37.230  -3.455   3.151  1.00  0.00    -0.238 OA
HETATM    8  C13 UNL     1     -40.593  -2.128   2.377  1.00  0.00     0.183 C
HETATM    9  C14 UNL     1     -40.604  -0.963   3.325  1.00  0.00     0.077 C
HETATM   10  F1  UNL     1     -41.446  -3.146   2.760  1.00  0.00    -0.219 F
HETATM   11  C15 UNL     1     -40.955  -1.598   1.003  1.00  0.00     0.067 C
ENDROOT
BRANCH   6  12
HETATM   12  O5  UNL     1     -38.688  -2.563   4.606  1.00  0.00    -0.294 OA
BRANCH  12  13
HETATM   13  C9  UNL     1     -39.035  -3.502   5.575  1.00  0.00     0.061 C
HETATM   14  C10 UNL     1     -37.854  -3.897   6.454  1.00  0.00     0.046 C
HETATM   15  C11 UNL     1     -40.043  -2.836   6.511  1.00  0.00     0.046 C
HETATM   16  C12 UNL     1     -39.667  -4.754   4.991  1.00  0.00     0.046 C
ENDBRANCH  12  13
ENDBRANCH   6  12
BRANCH   2  17
HETATM   17  C5  UNL     1     -41.120  -1.908  -2.029  1.00  0.00     0.178 C
HETATM   18  O2  UNL     1     -40.453  -0.849  -2.148  1.00  0.00    -0.648 OA
HETATM   19  O3  UNL     1     -41.945  -2.262  -3.082  1.00  0.00    -0.648 OA
ENDBRANCH   2  17
BRANCH   1  20
HETATM   20  C2  UNL     1     -43.201  -1.755   0.016  1.00  0.00     0.222 C
HETATM   21  N1  UNL     1     -44.120  -2.311  -0.900  1.00  0.00    -0.365 N
HETATM   22  C1  UNL     1     -45.348  -1.571  -1.171  1.00  0.00     0.149 C
ATOM     23  H1  UNL     1     -43.932  -3.202  -1.358  1.00  0.00     0.161 HD
HETATM   24  O1  UNL     1     -43.471  -0.661   0.554  1.00  0.00    -0.273 OA
ENDBRANCH   1  20
TORSDOF 4
ENDMDL