MODEL 2
REMARK VINA RESULT: -7.379143791      3.106      7.021
REMARK  4 active torsions:
REMARK  status: ('A' for Active; 'I' for Inactive)
REMARK    1  A    between atoms: O1_2  and  C2_3
REMARK       I    between atoms: C2_3  and  N1_5
REMARK    2  A    between atoms: N1_5  and  C3_7
REMARK    3  A    between atoms: C5_9  and  C6_10
REMARK    4  A    between atoms: C9_13  and  N2_14
REMARK       I    between atoms: N2_14  and  C10_16
ROOT
HETATM    1  C6  UNL     1     -43.153  -2.114   1.706  1.00  0.00     0.104 C
HETATM    2  C7  UNL     1     -42.514  -0.762   1.957  1.00  0.00     0.053 C
HETATM    3  C8  UNL     1     -42.521  -2.831   0.538  1.00  0.00     0.072 C
HETATM    4  C9  UNL     1     -42.822  -2.132  -0.735  1.00  0.00     0.124 C
HETATM    5  C12 UNL     1     -44.268  -1.677  -0.855  1.00  0.00     0.226 C
HETATM    6  F1  UNL     1     -44.889  -2.631  -1.672  1.00  0.00    -0.244 F
HETATM    7  C13 UNL     1     -45.011  -1.532   0.399  1.00  0.00     0.088 C
HETATM    8  C14 UNL     1     -46.391  -2.192   0.203  1.00  0.00     0.049 C
HETATM    9  C15 UNL     1     -45.370  -0.053   0.616  1.00  0.00     0.049 C
HETATM   10  O4  UNL     1     -44.512  -2.041   1.545  1.00  0.00    -0.361 OA
ENDROOT
BRANCH   1  11
HETATM   11  C5  UNL     1     -42.913  -2.919   2.933  1.00  0.00     0.063 A
HETATM   12  C4  UNL     1     -41.812  -3.705   3.215  1.00  0.00     0.079 A
HETATM   13  C3  UNL     1     -41.954  -4.276   4.484  1.00  0.00     0.126 A
HETATM   14  N4  UNL     1     -43.130  -3.820   4.923  1.00  0.00    -0.285 N
HETATM   15  N3  UNL     1     -43.703  -3.018   4.012  1.00  0.00    -0.300 N
ATOM     16  H4  UNL     1     -43.538  -4.050   5.829  1.00  0.00     0.188 HD
ATOM     17  H3  UNL     1     -44.604  -2.553   4.124  1.00  0.00     0.186 HD
BRANCH  13  18
HETATM   18  N1  UNL     1     -41.120  -5.072   5.021  1.00  0.00    -0.287 N
HETATM   19  C2  UNL     1     -40.186  -4.822   6.025  1.00  0.00     0.365 C
HETATM   20  O2  UNL     1     -40.338  -4.018   6.986  1.00  0.00    -0.238 OA
ATOM     21  H1  UNL     1     -41.136  -6.029   4.666  1.00  0.00     0.172 HD
BRANCH  19  22
HETATM   22  O1  UNL     1     -38.938  -5.505   6.014  1.00  0.00    -0.309 OA
HETATM   23  C1  UNL     1     -37.981  -5.278   4.997  1.00  0.00     0.215 C
ENDBRANCH  19  22
ENDBRANCH  13  18
ENDBRANCH   1  11
BRANCH   4  24
HETATM   24  N2  UNL     1     -42.463  -2.977  -1.868  1.00  0.00    -0.354 N
HETATM   25  C10 UNL     1     -41.213  -2.839  -2.524  1.00  0.00     0.214 C
HETATM   26  C11 UNL     1     -40.842  -3.680  -3.660  1.00  0.00     0.117 C
HETATM   27  O3  UNL     1     -40.412  -1.969  -2.106  1.00  0.00    -0.274 OA
ATOM     28  H2  UNL     1     -43.124  -3.681  -2.194  1.00  0.00     0.162 HD
ENDBRANCH   4  24
TORSDOF 4
ENDMDL