MODEL 1
REMARK VINA RESULT: -7.154748571      0.000      0.000
REMARK  1 active torsions:
REMARK  status: ('A' for Active; 'I' for Inactive)
REMARK    1  A    between atoms: C2_2  and  N1_4
REMARK       I    between atoms: C4_6  and  N3_8
REMARK       I    between atoms: N3_8  and  C5_10
REMARK       I    between atoms: C5_10  and  N5_14
ROOT
HETATM    1  N1  UNL     1     -40.787  -3.199   3.329  1.00  0.00    -0.360 N
ATOM      2  H1  UNL     1     -41.380  -3.763   2.720  1.00  0.00     0.162 HD
HETATM    3  C4  UNL     1     -40.185  -2.192   2.821  1.00  0.00     0.203 C
HETATM    4  N2  UNL     1     -39.359  -1.395   3.651  1.00  0.00    -0.063 NA
HETATM    5  N3  UNL     1     -40.306  -1.833   1.452  1.00  0.00    -0.164 N
ATOM      6  H3  UNL     1     -39.452  -1.658   0.922  1.00  0.00     0.187 HD
HETATM    7  C5  UNL     1     -41.543  -1.704   0.786  1.00  0.00     0.676 C
HETATM    8  N4  UNL     1     -42.582  -1.406   1.521  1.00  0.00    -0.234 N
ATOM      9  H41 UNL     1     -43.477  -1.312   1.040  1.00  0.00     0.174 HD
ATOM     10  H42 UNL     1     -42.479  -1.276   2.527  1.00  0.00     0.174 HD
HETATM   11  N5  UNL     1     -41.687  -1.885  -0.617  1.00  0.00    -0.211 N
HETATM   12  C6  UNL     1     -42.806  -2.662  -1.131  1.00  0.00     0.148 C
HETATM   13  C7  UNL     1     -42.689  -2.858  -2.611  1.00  0.00     0.080 C
HETATM   14  C8  UNL     1     -41.290  -3.115  -3.047  1.00  0.00     0.044 A
HETATM   15  N6  UNL     1     -40.682  -3.956  -3.887  1.00  0.00    -0.332 N
ATOM     16  H6  UNL     1     -41.142  -4.668  -4.454  1.00  0.00     0.168 HD
HETATM   17  C9  UNL     1     -39.368  -3.709  -3.861  1.00  0.00     0.196 A
HETATM   18 BR1  UNL     1     -37.976  -4.593  -4.856  1.00  0.00    -0.002 Br
HETATM   19  O1  UNL     1     -39.182  -2.731  -3.017  1.00  0.00    -0.288 OA
HETATM   20  C10 UNL     1     -40.297  -2.328  -2.493  1.00  0.00     0.097 A
HETATM   21  C11 UNL     1     -40.721  -1.296  -1.510  1.00  0.00     0.208 C
ENDROOT
BRANCH   1  22
HETATM   22  C2  UNL     1     -40.677  -3.580   4.713  1.00  0.00     0.076 C
HETATM   23  C1  UNL     1     -39.804  -4.781   4.876  1.00  0.00     0.032 C
HETATM   24  C3  UNL     1     -42.066  -3.939   5.249  1.00  0.00     0.032 C
ENDBRANCH   1  22
TORSDOF 1
ENDMDL