MODEL 4
REMARK VINA RESULT: -7.013561669      1.493      1.679
REMARK  4 active torsions:
REMARK  status: ('A' for Active; 'I' for Inactive)
REMARK    1  A    between atoms: C3_3  and  C4_4
REMARK    2  A    between atoms: C5_6  and  N1_8
REMARK       I    between atoms: N1_8  and  C7_10
REMARK       I    between atoms: C7_10  and  N2_12
REMARK    3  A    between atoms: N2_12  and  N3_14
REMARK       I    between atoms: N3_14  and  C8_16
REMARK    4  A    between atoms: C8_16  and  C9_18
ROOT
HETATM    1  C1  UNL     1     -37.563  -2.567   1.100  1.00  0.00     0.112 C
HETATM    2  C2  UNL     1     -38.518  -2.670  -0.005  1.00  0.00    -0.105 C
HETATM    3  C3  UNL     1     -39.317  -2.769  -0.902  1.00  0.00    -0.053 C
ENDROOT
BRANCH   3   4
HETATM    4  C4  UNL     1     -40.286  -2.890  -1.948  1.00  0.00     0.109 C
HETATM    5 CL1  UNL     1     -39.888  -3.881  -3.326  1.00  0.00    -0.072 Cl
HETATM    6  C5  UNL     1     -41.474  -2.283  -1.922  1.00  0.00     0.040 C
HETATM    7  C6  UNL     1     -42.417  -2.446  -3.020  1.00  0.00     0.070 C
BRANCH   6   8
HETATM    8  N1  UNL     1     -41.765  -1.490  -0.797  1.00  0.00    -0.309 N
HETATM    9  C7  UNL     1     -42.542  -1.961   0.278  1.00  0.00     0.339 C
HETATM   10  O1  UNL     1     -43.004  -3.129   0.254  1.00  0.00    -0.245 OA
HETATM   11  N2  UNL     1     -42.800  -1.102   1.391  1.00  0.00    -0.249 N
ATOM     12  H2  UNL     1     -42.420  -0.156   1.404  1.00  0.00     0.192 HD
ATOM     13  H1  UNL     1     -41.400  -0.539  -0.758  1.00  0.00     0.170 HD
BRANCH  11  14
HETATM   14  N3  UNL     1     -43.571  -1.557   2.459  1.00  0.00    -0.264 N
HETATM   15  C8  UNL     1     -42.952  -1.888   3.679  1.00  0.00     0.265 C
HETATM   16  O2  UNL     1     -41.711  -1.762   3.785  1.00  0.00    -0.269 OA
ATOM     17  H3  UNL     1     -44.581  -1.651   2.356  1.00  0.00     0.190 HD
BRANCH  15  18
HETATM   18  C9  UNL     1     -43.760  -2.381   4.835  1.00  0.00     0.220 C
HETATM   19  O3  UNL     1     -43.013  -3.191   5.640  1.00  0.00    -0.376 OA
HETATM   20  C10 UNL     1     -43.325  -3.025   6.955  1.00  0.00     0.174 C
HETATM   21  C11 UNL     1     -44.176  -1.777   7.068  1.00  0.00     0.026 C
HETATM   22  C12 UNL     1     -45.547  -2.227   7.485  1.00  0.00     0.081 C
HETATM   23  C14 UNL     1     -44.159  -1.232   5.714  1.00  0.00     0.040 C
HETATM   24  S1  UNL     1     -46.512  -0.806   6.822  1.00  0.00    -0.168 SA
HETATM   25  C13 UNL     1     -45.463  -0.605   5.322  1.00  0.00     0.082 C
ENDBRANCH  15  18
ENDBRANCH  11  14
ENDBRANCH   6   8
ENDBRANCH   3   4
TORSDOF 4
ENDMDL