MODEL 5
REMARK VINA RESULT: -5.781095103      2.031      2.420
REMARK  6 active torsions:
REMARK  status: ('A' for Active; 'I' for Inactive)
REMARK    1  A    between atoms: C1_2  and  C2_4
REMARK    2  A    between atoms: N2_8  and  C6_9
REMARK    3  A    between atoms: C6_9  and  N3_11
REMARK    4  A    between atoms: C9_14  and  C10_15
REMARK    5  A    between atoms: C10_15  and  O2_16
REMARK    6  A    between atoms: N4_18  and  O3_20
ROOT
HETATM    1  N3  UNL     1     -38.543  -2.468   3.602  1.00  0.00    -0.355 N
HETATM    2  C7  UNL     1     -37.677  -1.908   4.640  1.00  0.00     0.126 C
HETATM    3  C8  UNL     1     -37.538  -2.855   5.803  1.00  0.00     0.033 C
HETATM    4  C9  UNL     1     -38.357  -4.111   5.604  1.00  0.00     0.066 C
HETATM    5  C11 UNL     1     -37.649  -5.090   4.711  1.00  0.00     0.051 C
HETATM    6  C12 UNL     1     -37.202  -4.542   3.403  1.00  0.00     0.189 C
HETATM    7  F1  UNL     1     -35.959  -3.992   3.383  1.00  0.00    -0.248 F
HETATM    8  C13 UNL     1     -38.287  -3.654   2.805  1.00  0.00     0.162 C
ENDROOT
BRANCH   1   9
HETATM    9  C6  UNL     1     -39.743  -1.800   3.391  1.00  0.00     0.172 C
HETATM   10  S1  UNL     1     -39.812  -0.290   4.165  1.00  0.00    -0.041 SA
BRANCH   9  11
HETATM   11  N2  UNL     1     -40.876  -2.165   2.641  1.00  0.00    -0.345 N
HETATM   12  C2  UNL     1     -42.152  -2.442   3.295  1.00  0.00     0.176 C
HETATM   13  C3  UNL     1     -43.107  -2.823   2.196  1.00  0.00     0.036 C
HETATM   14  C4  UNL     1     -42.578  -2.085   1.007  1.00  0.00     0.022 C
HETATM   15  C5  UNL     1     -41.060  -2.296   1.238  1.00  0.00     0.126 C
BRANCH  12  16
HETATM   16  C1  UNL     1     -42.048  -3.644   4.174  1.00  0.00     0.254 C
HETATM   17  N1  UNL     1     -42.258  -3.436   5.563  1.00  0.00    -0.060 NA
HETATM   18  O1  UNL     1     -41.793  -4.802   3.781  1.00  0.00    -0.275 OA
ENDBRANCH  12  16
ENDBRANCH   9  11
ENDBRANCH   1   9
BRANCH   4  19
HETATM   19  C10 UNL     1     -38.561  -4.755   6.928  1.00  0.00     0.139 C
HETATM   20  N4  UNL     1     -39.537  -5.545   7.148  1.00  0.00    -0.251 N
ATOM     21  H4  UNL     1     -39.623  -5.954   8.079  1.00  0.00     0.196 HD
BRANCH  19  22
HETATM   22  O2  UNL     1     -37.667  -4.484   7.937  1.00  0.00    -0.348 OA
ATOM     23  H2  UNL     1     -37.689  -5.020   8.721  1.00  0.00     0.219 HD
ENDBRANCH  19  22
BRANCH  20  24
HETATM   24  O3  UNL     1     -40.481  -5.878   6.205  1.00  0.00    -0.288 OA
ATOM     25  H3  UNL     1     -40.787  -6.764   6.053  1.00  0.00     0.244 HD
ENDBRANCH  20  24
ENDBRANCH   4  19
TORSDOF 6
ENDMDL