MODEL 5
REMARK VINA RESULT: -7.106518130      3.385      5.401
REMARK  0 active torsions:
REMARK  status: ('A' for Active; 'I' for Inactive)
ROOT
HETATM    1  C1  UNL     1       9.928  80.204  -0.936  1.00  0.00     0.011 C
HETATM    2  C2  UNL     1       9.791  81.658  -0.636  1.00  0.00    -0.001 C
HETATM    3  C3  UNL     1       8.712  82.282  -1.484  1.00  0.00     0.008 C
HETATM    4  C4  UNL     1       7.357  81.766  -1.009  1.00  0.00     0.026 C
HETATM    5  C5  UNL     1       7.147  82.307   0.379  1.00  0.00     0.089 C
HETATM    6  C6  UNL     1       5.766  81.922   0.833  1.00  0.00     0.067 C
HETATM    7  C7  UNL     1       5.441  82.472   2.206  1.00  0.00     0.119 C
HETATM    8 CL1  UNL     1       3.745  83.000   2.280  1.00  0.00    -0.101 Cl
HETATM    9 CL2  UNL     1       6.558  83.779   2.593  1.00  0.00    -0.101 Cl
HETATM   10  C8  UNL     1       5.644  81.351   3.194  1.00  0.00     0.086 C
HETATM   11  C9  UNL     1       7.057  80.970   3.336  1.00  0.00     0.015 A
HETATM   12  C10 UNL     1       7.523  80.296   4.431  1.00  0.00     0.178 A
HETATM   13  O1  UNL     1       8.795  80.110   4.258  1.00  0.00    -0.248 OA
HETATM   14  N1  UNL     1       9.182  80.624   3.112  1.00  0.00    -0.245 N
ATOM     15  H1  UNL     1      10.135  80.606   2.749  1.00  0.00     0.196 HD
HETATM   16  C11 UNL     1       8.118  81.180   2.491  1.00  0.00     0.132 A
HETATM   17  N2  UNL     1       8.190  81.824   1.226  1.00  0.00    -0.360 N
HETATM   18  C12 UNL     1       9.557  81.974   0.809  1.00  0.00     0.129 C
ENDROOT
TORSDOF 0
ENDMDL