MODEL 4
REMARK VINA RESULT: -6.812334651      2.641      4.740
REMARK  1 active torsions:
REMARK  status: ('A' for Active; 'I' for Inactive)
REMARK    1  A    between atoms: N1_12  and  O2_14
ROOT
HETATM    1  C1  UNL     1       2.087  81.362   4.895  1.00  0.00     0.025 C
HETATM    2  C2  UNL     1       3.395  81.377   4.659  1.00  0.00     0.013 C
HETATM    3  C3  UNL     1       4.371  81.516   5.726  1.00  0.00     0.160 C
HETATM    4  O1  UNL     1       4.098  81.101   6.880  1.00  0.00    -0.292 OA
HETATM    5  C4  UNL     1       5.663  82.129   5.480  1.00  0.00     0.129 C
HETATM    6  C5  UNL     1       6.080  82.312   4.079  1.00  0.00     0.132 C
HETATM    7  F1  UNL     1       6.663  83.575   3.992  1.00  0.00    -0.240 F
HETATM    8  C6  UNL     1       7.210  81.372   3.734  1.00  0.00     0.030 C
HETATM    9  C7  UNL     1       8.424  81.802   4.559  1.00  0.00     0.025 C
HETATM   10  C8  UNL     1       6.939  79.946   4.023  1.00  0.00     0.025 C
HETATM   11  C9  UNL     1       7.604  81.493   2.300  1.00  0.00     0.021 C
HETATM   12  N1  UNL     1       8.803  81.756   1.928  1.00  0.00    -0.277 N
ATOM     13  H1  UNL     1       9.549  81.895   2.609  1.00  0.00     0.193 HD
HETATM   14  C10 UNL     1       6.478  81.282   1.343  1.00  0.00     0.056 C
HETATM   15  C11 UNL     1       5.414  82.264   1.665  1.00  0.00     0.021 C
HETATM   16  C12 UNL     1       4.967  82.306   3.075  1.00  0.00     0.029 C
HETATM   17  C13 UNL     1       4.226  83.642   3.247  1.00  0.00     0.022 C
HETATM   18  C14 UNL     1       3.934  81.254   3.290  1.00  0.00     0.217 C
HETATM   19  F2  UNL     1       2.885  81.518   2.411  1.00  0.00    -0.243 F
ENDROOT
BRANCH  12  20
HETATM   20  O2  UNL     1       9.045  81.843   0.581  1.00  0.00    -0.290 OA
ATOM     21  H2  UNL     1       8.307  82.026   0.011  1.00  0.00     0.244 HD
ENDBRANCH  12  20
TORSDOF 1
ENDMDL