MODEL 5
REMARK VINA RESULT: -6.527532992      2.725      4.260
REMARK  0 active torsions:
REMARK  status: ('A' for Active; 'I' for Inactive)
ROOT
HETATM    1  N1  UNL     1       2.406  82.465  -0.624  1.00  0.00    -0.195 NA
HETATM    2  C1  UNL     1       2.993  82.726   0.341  1.00  0.00     0.091 C
HETATM    3  C2  UNL     1       3.716  83.051   1.573  1.00  0.00     0.121 C
HETATM    4  C3  UNL     1       5.033  83.680   1.298  1.00  0.00     0.047 C
HETATM    5  C4  UNL     1       6.200  82.737   1.150  1.00  0.00     0.008 C
HETATM    6  C5  UNL     1       6.925  82.520   2.435  1.00  0.00    -0.010 A
HETATM    7  C6  UNL     1       7.973  81.567   2.726  1.00  0.00     0.010 A
HETATM    8  C7  UNL     1       6.626  81.139   2.886  1.00  0.00    -0.010 A
HETATM    9  C8  UNL     1       5.684  81.249   4.050  1.00  0.00     0.013 C
HETATM   10  C9  UNL     1       4.587  82.110   3.561  1.00  0.00     0.035 C
HETATM   11  C10 UNL     1       3.939  81.702   2.286  1.00  0.00     0.054 C
HETATM   12  C11 UNL     1       3.425  82.397   4.495  1.00  0.00     0.172 C
HETATM   13 CL1  UNL     1       4.059  82.863   6.051  1.00  0.00    -0.093 Cl
HETATM   14 CL2  UNL     1       2.324  81.015   4.632  1.00  0.00    -0.093 Cl
HETATM   15  C12 UNL     1       2.744  83.501   3.761  1.00  0.00     0.130 C
HETATM   16  N2  UNL     1       1.875  84.327   4.498  1.00  0.00    -0.084 NA
HETATM   17  N3  UNL     1       2.876  83.771   2.514  1.00  0.00    -0.358 N
ATOM     18  H3  UNL     1       2.343  84.561   2.151  1.00  0.00     0.162 HD
ENDROOT
TORSDOF 0
ENDMDL