MODEL 1
REMARK VINA RESULT: -5.005945301      0.000      0.000
REMARK  1 active torsions:
REMARK  status: ('A' for Active; 'I' for Inactive)
REMARK    1  A    between atoms: O1_1  and  C1_3
ROOT
HETATM    1  C1  UNL     1       7.533  82.544   2.506  1.00  0.00     0.143 C
HETATM    2  C2  UNL     1       6.305  82.028   1.886  1.00  0.00     0.046 C
HETATM    3  C3  UNL     1       5.397  83.221   1.566  1.00  0.00     0.076 C
HETATM    4  S1  UNL     1       3.665  82.849   2.023  1.00  0.00    -0.169 SA
HETATM    5  C4  UNL     1       3.483  82.731   3.822  1.00  0.00     0.074 C
HETATM    6  C5  UNL     1       3.460  81.329   4.323  1.00  0.00     0.020 C
HETATM    7  C6  UNL     1       4.364  81.160   5.517  1.00  0.00     0.076 C
HETATM    8  S2  UNL     1       5.788  82.254   5.491  1.00  0.00    -0.143 SA
HETATM    9  C7  UNL     1       7.354  81.480   5.572  1.00  0.00     0.187 C
HETATM   10 CL1  UNL     1       8.575  82.678   6.133  1.00  0.00    -0.107 Cl
HETATM   11  C8  UNL     1       7.902  80.824   4.362  1.00  0.00     0.038 C
HETATM   12 CL2  UNL     1       6.943  79.409   3.838  1.00  0.00    -0.087 Cl
HETATM   13  C9  UNL     1       8.396  81.662   3.276  1.00  0.00     0.026 C
ENDROOT
BRANCH   1  14
HETATM   14  O1  UNL     1       7.331  83.760   3.212  1.00  0.00    -0.392 OA
ATOM     15  H1  UNL     1       6.696  83.682   3.915  1.00  0.00     0.210 HD
ENDBRANCH   1  14
TORSDOF 1
ENDMDL