MODEL 5
REMARK VINA RESULT: -7.058201652      3.309      5.119
REMARK  1 active torsions:
REMARK  status: ('A' for Active; 'I' for Inactive)
REMARK    1  A    between atoms: C14_18  and  N2_19
ROOT
HETATM    1  C1  UNL     1       2.525  83.417   6.376  1.00  0.00     0.048 C
HETATM    2  C2  UNL     1       3.043  82.394   5.337  1.00  0.00     0.088 C
HETATM    3  C3  UNL     1       2.034  81.259   5.394  1.00  0.00     0.048 C
HETATM    4  O1  UNL     1       3.059  83.091   4.120  1.00  0.00    -0.338 OA
HETATM    5  C4  UNL     1       3.804  83.014   2.955  1.00  0.00     0.087 A
HETATM    6  C5  UNL     1       2.955  83.091   1.874  1.00  0.00     0.080 A
HETATM    7  C6  UNL     1       3.399  83.036   0.567  1.00  0.00     0.122 A
HETATM    8  F1  UNL     1       2.516  83.118  -0.465  1.00  0.00    -0.206 F
HETATM    9  C7  UNL     1       4.751  82.899   0.379  1.00  0.00     0.085 A
HETATM   10  C8  UNL     1       5.672  82.816   1.431  1.00  0.00     0.133 A
HETATM   11  F2  UNL     1       6.970  82.643   1.161  1.00  0.00    -0.205 F
HETATM   12  C9  UNL     1       5.202  82.875   2.696  1.00  0.00     0.053 A
HETATM   13  C10 UNL     1       6.308  82.792   3.629  1.00  0.00     0.038 C
HETATM   14  C11 UNL     1       7.590  83.329   3.274  1.00  0.00     0.096 C
HETATM   15  N1  UNL     1       8.653  83.789   3.023  1.00  0.00    -0.192 NA
HETATM   16  C12 UNL     1       6.415  81.437   4.295  1.00  0.00     0.053 C
HETATM   17  C13 UNL     1       5.081  80.988   4.836  1.00  0.00     0.041 C
HETATM   18  C14 UNL     1       4.408  81.910   5.768  1.00  0.00     0.217 C
ENDROOT
BRANCH  18  19
HETATM   19  N2  UNL     1       4.146  81.236   7.070  1.00  0.00    -0.072 N
ATOM     20  H23 UNL     1       3.743  81.841   7.785  1.00  0.00     0.274 HD
ATOM     21  H22 UNL     1       3.377  80.566   7.051  1.00  0.00     0.274 HD
ATOM     22  H21 UNL     1       5.049  80.833   7.318  1.00  0.00     0.274 HD
ENDBRANCH  18  19
TORSDOF 1
ENDMDL