MODEL 3
REMARK VINA RESULT: -6.803746124      3.645      5.324
REMARK  0 active torsions:
REMARK  status: ('A' for Active; 'I' for Inactive)
ROOT
HETATM    1  C1  UNL     1       3.783  81.877   2.549  1.00  0.00     0.018 C
HETATM    2  C2  UNL     1       4.948  82.292   3.479  1.00  0.00    -0.003 C
HETATM    3  C3  UNL     1       5.247  81.089   4.305  1.00  0.00     0.021 C
HETATM    4  C4  UNL     1       5.737  81.307   5.661  1.00  0.00     0.003 C
HETATM    5  C5  UNL     1       5.384  82.367   6.345  1.00  0.00     0.064 C
HETATM    6  C6  UNL     1       5.864  82.598   7.698  1.00  0.00     0.101 C
HETATM    7  N1  UNL     1       6.236  82.786   8.778  1.00  0.00    -0.191 NA
HETATM    8  C7  UNL     1       4.508  83.311   5.715  1.00  0.00     0.042 C
HETATM    9  N2  UNL     1       3.764  84.079   6.437  1.00  0.00    -0.400 N
ATOM     10  H21 UNL     1       3.141  84.750   5.988  1.00  0.00     0.156 HD
ATOM     11  H22 UNL     1       3.832  83.980   7.450  1.00  0.00     0.156 HD
HETATM   12  C8  UNL     1       4.411  83.453   4.254  1.00  0.00     0.153 C
HETATM   13  C9  UNL     1       2.985  83.747   3.960  1.00  0.00     0.071 C
HETATM   14  N3  UNL     1       1.870  83.955   3.733  1.00  0.00    -0.196 NA
HETATM   15  C10 UNL     1       6.169  80.101   3.639  1.00  0.00     0.015 C
HETATM   16  C11 UNL     1       7.416  80.892   3.222  1.00  0.00     0.080 C
HETATM   17  C12 UNL     1       6.953  81.709   2.048  1.00  0.00     0.251 C
HETATM   18  F1  UNL     1       7.989  82.332   1.382  1.00  0.00    -0.205 F
HETATM   19  F2  UNL     1       6.354  80.882   1.108  1.00  0.00    -0.205 F
HETATM   20  C13 UNL     1       6.023  82.774   2.566  1.00  0.00     0.028 C
HETATM   21  C14 UNL     1       5.378  83.353   1.289  1.00  0.00     0.022 C
HETATM   22  C15 UNL     1       6.862  83.904   3.107  1.00  0.00     0.022 C
ENDROOT
TORSDOF 0
ENDMDL