MODEL 2
REMARK VINA RESULT: -5.652201036      4.875      6.279
REMARK  1 active torsions:
REMARK  status: ('A' for Active; 'I' for Inactive)
REMARK    1  A    between atoms: N1_9  and  O2_11
ROOT
HETATM    1  C1  UNL     1      -0.346  82.861   8.102  1.00  0.00     0.016 C
HETATM    2  C2  UNL     1       1.163  82.771   7.997  1.00  0.00    -0.032 C
HETATM    3  C3  UNL     1       1.696  83.203   9.361  1.00  0.00     0.016 C
HETATM    4  C4  UNL     1       1.601  81.379   7.650  1.00  0.00     0.088 C
HETATM    5  C5  UNL     1       2.871  81.311   6.918  1.00  0.00     0.138 C
HETATM    6  O1  UNL     1       3.529  80.305   6.954  1.00  0.00    -0.297 OA
HETATM    7  C6  UNL     1       3.414  82.447   6.104  1.00  0.00     0.112 C
HETATM    8  C7  UNL     1       3.137  83.684   6.905  1.00  0.00     0.027 C
HETATM    9  N1  UNL     1       4.046  84.418   7.395  1.00  0.00    -0.276 N
ATOM     10  H1  UNL     1       5.011  84.134   7.225  1.00  0.00     0.193 HD
HETATM   11  C8  UNL     1       1.661  83.759   6.933  1.00  0.00     0.053 C
HETATM   12  C9  UNL     1       1.250  83.207   5.606  1.00  0.00     0.077 C
HETATM   13  C10 UNL     1       0.735  84.301   4.715  1.00  0.00     0.248 C
HETATM   14  F1  UNL     1       0.955  85.559   5.248  1.00  0.00    -0.206 F
HETATM   15  F2  UNL     1      -0.615  84.177   4.446  1.00  0.00    -0.206 F
HETATM   16  C11 UNL     1       1.575  84.209   3.455  1.00  0.00     0.080 C
HETATM   17  C12 UNL     1       2.909  83.755   4.026  1.00  0.00     0.017 C
HETATM   18  C13 UNL     1       2.486  82.641   4.944  1.00  0.00    -0.018 C
HETATM   19  C14 UNL     1       2.222  81.352   4.228  1.00  0.00     0.017 C
ENDROOT
BRANCH   9  20
HETATM   20  O2  UNL     1       3.857  85.543   8.124  1.00  0.00    -0.290 OA
ATOM     21  H2  UNL     1       4.291  85.761   8.941  1.00  0.00     0.244 HD
ENDBRANCH   9  20
TORSDOF 1
ENDMDL