MODEL 2
REMARK VINA RESULT: -7.818177861      0.999      1.050
REMARK  2 active torsions:
REMARK  status: ('A' for Active; 'I' for Inactive)
REMARK    1  A    between atoms: C3_4  and  C4_5
REMARK    2  A    between atoms: C13_18  and  N3_19
ROOT
HETATM    1  N1  UNL     1       3.834  83.545  -0.117  1.00  0.00    -0.192 NA
HETATM    2  C1  UNL     1       4.871  83.005   0.023  1.00  0.00     0.096 C
HETATM    3  C2  UNL     1       6.134  82.352   0.221  1.00  0.00     0.042 C
HETATM    4  C3  UNL     1       6.760  81.778  -0.784  1.00  0.00     0.043 C
HETATM    5  C5  UNL     1       8.009  81.181  -0.277  1.00  0.00     0.045 C
HETATM    6  C6  UNL     1       8.315  82.041   0.925  1.00  0.00     0.020 C
HETATM    7  C7  UNL     1       6.924  82.223   1.497  1.00  0.00     0.007 C
HETATM    8  C8  UNL     1       6.748  83.483   2.268  1.00  0.00     0.046 C
HETATM    9  C9  UNL     1       6.956  83.383   3.733  1.00  0.00     0.276 C
HETATM   10  N2  UNL     1       6.587  82.132   4.321  1.00  0.00     0.119 N
HETATM   11  C10 UNL     1       5.213  81.780   4.177  1.00  0.00     0.275 C
HETATM   12  C11 UNL     1       5.147  81.056   2.830  1.00  0.00     0.040 C
HETATM   13  C12 UNL     1       6.546  81.045   2.305  1.00  0.00     0.062 C
HETATM   14  C13 UNL     1       7.338  81.091   3.599  1.00  0.00     0.422 C
ENDROOT
BRANCH   4  15
HETATM   15  C4  UNL     1       6.349  81.679  -2.215  1.00  0.00     0.415 C
HETATM   16  F1  UNL     1       7.225  80.902  -2.911  1.00  0.00    -0.166 F
HETATM   17  F2  UNL     1       5.083  81.239  -2.413  1.00  0.00    -0.166 F
HETATM   18  F3  UNL     1       6.429  82.975  -2.733  1.00  0.00    -0.166 F
ENDBRANCH   4  15
BRANCH  14  19
HETATM   19  N3  UNL     1       7.255  79.855   4.329  1.00  0.00    -0.047 N
ATOM     20  H33 UNL     1       7.490  79.048   3.751  1.00  0.00     0.276 HD
ATOM     21  H32 UNL     1       8.001  79.760   5.018  1.00  0.00     0.276 HD
ATOM     22  H31 UNL     1       6.329  79.774   4.747  1.00  0.00     0.276 HD
ENDBRANCH  14  19
TORSDOF 2
ENDMDL