MODEL 5
REMARK VINA RESULT: -6.589124868      2.416      3.096
REMARK  2 active torsions:
REMARK  status: ('A' for Active; 'I' for Inactive)
REMARK    1  A    between atoms: C1_2  and  C2_3
REMARK    2  A    between atoms: C9_14  and  C10_15
ROOT
HETATM    1  C2  UNL     1       6.840  81.660   3.053  1.00  0.00     0.084 A
HETATM    2  N1  UNL     1       6.157  81.616   4.319  1.00  0.00    -0.360 N
ATOM      3  H1  UNL     1       6.558  81.370   5.224  1.00  0.00     0.162 HD
HETATM    4  C3  UNL     1       4.812  81.986   4.052  1.00  0.00     0.104 A
HETATM    5  C4  UNL     1       3.892  80.871   4.481  1.00  0.00     0.053 C
HETATM    6  C5  UNL     1       2.445  81.203   4.296  1.00  0.00     0.004 C
HETATM    7  C6  UNL     1       2.077  82.599   4.650  1.00  0.00     0.000 C
HETATM    8  C7  UNL     1       3.034  83.642   4.171  1.00  0.00     0.004 C
HETATM    9  C8  UNL     1       4.412  83.285   4.745  1.00  0.00     0.053 C
HETATM   10  N2  UNL     1       4.752  82.237   2.636  1.00  0.00    -0.362 N
ATOM     11  H2  UNL     1       3.903  82.524   2.149  1.00  0.00     0.162 HD
HETATM   12  C9  UNL     1       5.888  82.060   2.046  1.00  0.00     0.086 A
ENDROOT
BRANCH  12  13
HETATM   13  C10 UNL     1       6.038  82.274   0.601  1.00  0.00     0.195 C
HETATM   14  F2  UNL     1       7.002  83.211   0.287  1.00  0.00    -0.224 F
HETATM   15  C11 UNL     1       6.258  81.074  -0.239  1.00  0.00     0.062 C
HETATM   16  C12 UNL     1       6.153  81.659  -1.658  1.00  0.00     0.015 C
HETATM   17  C13 UNL     1       4.692  82.102  -1.789  1.00  0.00     0.077 C
HETATM   18  S1  UNL     1       4.481  82.908  -0.147  1.00  0.00    -0.120 SA
ENDBRANCH  12  13
BRANCH   1  19
HETATM   19  C1  UNL     1       8.107  81.384   2.831  1.00  0.00     0.219 C
HETATM   20  F1  UNL     1       8.887  82.333   2.266  1.00  0.00    -0.217 F
ENDBRANCH   1  19
TORSDOF 2
ENDMDL