MODEL 1
REMARK VINA RESULT: -7.076800635      0.000      0.000
REMARK  2 active torsions:
REMARK  status: ('A' for Active; 'I' for Inactive)
REMARK    1  A    between atoms: C3_5  and  O1_6
REMARK    2  A    between atoms: C6_12  and  C7_13
ROOT
HETATM    1  C1  UNL     1       9.823  80.968   1.218  1.00  0.00     0.064 C
HETATM    2  C2  UNL     1       8.679  81.522   0.479  1.00  0.00    -0.009 C
HETATM    3  N1  UNL     1       8.667  81.251  -0.797  1.00  0.00    -0.370 N
ATOM      4  H1  UNL     1       9.422  80.691  -1.196  1.00  0.00     0.161 HD
HETATM    5  C3  UNL     1       7.615  81.723  -1.653  1.00  0.00     0.222 C
HETATM    6  C4  UNL     1       6.310  81.296  -1.038  1.00  0.00     0.106 C
HETATM    7  C5  UNL     1       6.303  81.909   0.355  1.00  0.00    -0.003 C
HETATM    8  N2  UNL     1       5.367  82.170   1.149  1.00  0.00    -0.387 N
ATOM      9  H2  UNL     1       4.385  81.988   0.942  1.00  0.00     0.159 HD
HETATM   10  C6  UNL     1       5.820  82.745   2.366  1.00  0.00     0.128 C
HETATM   11  C9  UNL     1       7.247  82.305   2.430  1.00  0.00    -0.011 C
HETATM   12  C10 UNL     1       7.522  81.067   3.165  1.00  0.00     0.018 C
HETATM   13  C11 UNL     1       8.023  83.451   3.054  1.00  0.00     0.018 C
HETATM   14  C12 UNL     1       7.586  82.322   0.969  1.00  0.00     0.086 C
ENDROOT
BRANCH  10  15
HETATM   15  C7  UNL     1       4.869  82.356   3.415  1.00  0.00     0.130 C
HETATM   16  C8  UNL     1       4.415  83.422   4.368  1.00  0.00     0.052 C
HETATM   17 CL1  UNL     1       3.364  81.916   2.484  1.00  0.00    -0.100 Cl
HETATM   18 CL2  UNL     1       5.266  80.847   4.257  1.00  0.00    -0.100 Cl
ENDBRANCH  10  15
BRANCH   5  19
HETATM   19  O1  UNL     1       7.597  83.116  -1.763  1.00  0.00    -0.377 OA
ATOM     20  H1  UNL     1       7.036  83.527  -1.116  1.00  0.00     0.212 HD
ENDBRANCH   5  19
TORSDOF 2
ENDMDL