MODEL 4
REMARK VINA RESULT: -8.789125479      1.146      2.280
REMARK  11 active torsions:
REMARK  status: ('A' for Active; 'I' for Inactive)
REMARK    1  A    between atoms: O1_2  and  C2_3
REMARK    2  A    between atoms: C2_3  and  C3_5
REMARK    3  A    between atoms: C3_5  and  N1_6
REMARK    4  A    between atoms: C3_5  and  C5_14
REMARK    5  A    between atoms: N1_6  and  C4_8
REMARK    6  A    between atoms: C4_8  and  O3_9
REMARK    7  A    between atoms: C4_8  and  N2_11
REMARK    8  A    between atoms: N2_11  and  O4_12
REMARK    9  A    between atoms: C5_14  and  C6_15
REMARK   10  A    between atoms: C5_14  and  N5_22
REMARK   11  A    between atoms: C11_38  and  N11_39
ROOT
HETATM    1  N5  UNL     1     -31.803 -63.952 -13.364  1.00  0.00    -0.255 N
HETATM    2  N6  UNL     1     -32.343 -62.915 -13.965  1.00  0.00    -0.238 N
ATOM      3  H6  UNL     1     -32.879 -62.196 -13.480  1.00  0.00     0.208 HD
HETATM    4  N7  UNL     1     -32.116 -62.906 -15.253  1.00  0.00    -0.279 N
ATOM      5  H7  UNL     1     -32.441 -62.205 -15.919  1.00  0.00     0.189 HD
HETATM    6  C8  UNL     1     -31.369 -64.000 -15.540  1.00  0.00     0.150 A
HETATM    7  C9  UNL     1     -30.850 -64.333 -16.756  1.00  0.00     0.290 C
HETATM    8  O5  UNL     1     -31.380 -63.845 -17.766  1.00  0.00    -0.265 OA
HETATM    9  N8  UNL     1     -29.813 -65.159 -17.018  1.00  0.00    -0.154 N
ATOM     10  H8  UNL     1     -29.258 -64.931 -17.844  1.00  0.00     0.187 HD
HETATM   11  C10 UNL     1     -29.412 -66.272 -16.306  1.00  0.00     0.680 C
HETATM   12  N9  UNL     1     -28.770 -67.171 -16.851  1.00  0.00    -0.234 N
ATOM     13  H91 UNL     1     -28.473 -67.993 -16.325  1.00  0.00     0.174 HD
ATOM     14  H92 UNL     1     -28.576 -67.019 -17.841  1.00  0.00     0.174 HD
HETATM   15  N10 UNL     1     -29.675 -66.478 -14.964  1.00  0.00    -0.175 N
ATOM     16  H10 UNL     1     -29.124 -67.211 -14.516  1.00  0.00     0.186 HD
HETATM   17  C11 UNL     1     -30.552 -65.849 -14.168  1.00  0.00     0.145 C
HETATM   18  C12 UNL     1     -31.183 -64.655 -14.313  1.00  0.00     0.131 A
ENDROOT
BRANCH   1  19
HETATM   19  C5  UNL     1     -31.791 -64.171 -11.934  1.00  0.00     0.217 C
BRANCH  19  20
HETATM   20  C3  UNL     1     -30.949 -63.117 -11.279  1.00  0.00     0.115 C
BRANCH  20  21
HETATM   21  C2  UNL     1     -31.457 -61.883 -10.684  1.00  0.00     0.307 C
HETATM   22  O2  UNL     1     -32.156 -60.996 -11.163  1.00  0.00    -0.258 OA
BRANCH  21  23
HETATM   23  O1  UNL     1     -31.094 -61.680  -9.295  1.00  0.00    -0.322 OA
HETATM   24  C1  UNL     1     -29.858 -61.279  -8.853  1.00  0.00     0.213 C
ENDBRANCH  21  23
ENDBRANCH  20  21
BRANCH  20  25
HETATM   25  N1  UNL     1     -29.561 -63.064 -11.462  1.00  0.00    -0.345 N
ATOM     26  H1  UNL     1     -29.121 -62.251 -11.893  1.00  0.00     0.163 HD
BRANCH  25  27
HETATM   27  C4  UNL     1     -28.790 -64.158 -11.037  1.00  0.00     0.344 C
BRANCH  27  28
HETATM   28  O3  UNL     1     -27.422 -63.862 -11.316  1.00  0.00    -0.361 OA
ATOM     29  H3  UNL     1     -27.374 -63.511 -12.198  1.00  0.00     0.213 HD
ENDBRANCH  27  28
BRANCH  27  30
HETATM   30  N2  UNL     1     -28.905 -64.570  -9.672  1.00  0.00    -0.050 NA
BRANCH  30  31
HETATM   31  O4  UNL     1     -27.631 -64.960  -9.315  1.00  0.00    -0.292 OA
ATOM     32  H4  UNL     1     -27.067 -64.575  -9.975  1.00  0.00     0.238 HD
ENDBRANCH  30  31
ENDBRANCH  27  30
ENDBRANCH  25  27
ENDBRANCH  20  25
ENDBRANCH  19  20
BRANCH  19  33
HETATM   33  C6  UNL     1     -33.281 -63.837 -11.608  1.00  0.00     0.065 A
HETATM   34  C7  UNL     1     -33.754 -64.162 -10.342  1.00  0.00     0.098 A
HETATM   35  S1  UNL     1     -35.369 -63.536 -10.415  1.00  0.00    -0.009 SA
HETATM   36  N3  UNL     1     -35.329 -62.942 -11.990  1.00  0.00    -0.270 N
HETATM   37  N4  UNL     1     -34.122 -63.225 -12.385  1.00  0.00    -0.296 N
ATOM     38  H3  UNL     1     -36.072 -62.474 -12.508  1.00  0.00     0.195 HD
ATOM     39  H4  UNL     1     -33.831 -62.961 -13.327  1.00  0.00     0.187 HD
ENDBRANCH  19  33
ENDBRANCH   1  19
BRANCH  17  40
HETATM   40  N11 UNL     1     -30.873 -66.487 -13.093  1.00  0.00    -0.383 N
ATOM     41 2H11 UNL     1     -30.700 -65.966 -12.234  1.00  0.00     0.157 HD
ATOM     42 1H11 UNL     1     -31.271 -67.414 -13.242  1.00  0.00     0.157 HD
ENDBRANCH  17  40
TORSDOF 11
ENDMDL