MODEL 3
REMARK VINA RESULT: -9.742099296      3.859      8.751
REMARK  11 active torsions:
REMARK  status: ('A' for Active; 'I' for Inactive)
REMARK    1  A    between atoms: N1_2  and  C2_3
REMARK    2  A    between atoms: N1_2  and  C7_23
REMARK    3  A    between atoms: C3_6  and  N3_7
REMARK    4  A    between atoms: C4_12  and  C5_13
REMARK       I    between atoms: C5_13  and  N5_15
REMARK    5  A    between atoms: N5_15  and  N6_17
REMARK    6  A    between atoms: C6_20  and  O2_21
REMARK    7  A    between atoms: C8_26  and  N8_27
REMARK       I    between atoms: N8_27  and  C10_30
REMARK    8  A    between atoms: C10_30  and  C11_32
REMARK    9  A    between atoms: N10_33  and  O4_35
REMARK   10  A    between atoms: C12_39  and  N12_40
REMARK   11  A    between atoms: C13_43  and  N13_44
ROOT
HETATM    1  N8  UNL     1     -32.901 -62.944 -11.230  1.00  0.00    -0.041 N
HETATM    2  C9  UNL     1     -31.981 -62.013 -10.769  1.00  0.00     0.207 C
HETATM    3  N9  UNL     1     -31.207 -61.232 -10.404  1.00  0.00    -0.171 NA
HETATM    4  C10 UNL     1     -33.879 -63.446 -10.347  1.00  0.00     0.293 C
HETATM    5  O3  UNL     1     -34.702 -64.302 -10.824  1.00  0.00    -0.265 OA
ENDROOT
BRANCH   1   6
HETATM    6  C8  UNL     1     -32.845 -63.388 -12.603  1.00  0.00     0.704 A
HETATM    7  N7  UNL     1     -31.928 -64.273 -13.017  1.00  0.00    -0.172 N
HETATM    8  C7  UNL     1     -31.840 -64.714 -14.284  1.00  0.00     0.161 A
ATOM      9  H7  UNL     1     -31.260 -64.631 -12.334  1.00  0.00     0.186 HD
HETATM   10  C13 UNL     1     -32.734 -64.239 -15.225  1.00  0.00     0.191 A
HETATM   11  C12 UNL     1     -33.686 -63.323 -14.801  1.00  0.00     0.152 A
HETATM   12  N11 UNL     1     -33.712 -62.931 -13.521  1.00  0.00    -0.173 N
ATOM     13  H11 UNL     1     -34.420 -62.256 -13.230  1.00  0.00     0.186 HD
BRANCH   8  14
HETATM   14  N1  UNL     1     -30.837 -65.625 -14.614  1.00  0.00    -0.318 N
HETATM   15  C1  UNL     1     -31.147 -67.051 -14.388  1.00  0.00     0.159 C
BRANCH  14  16
HETATM   16  C2  UNL     1     -29.554 -65.356 -15.161  1.00  0.00     0.160 A
HETATM   17  N2  UNL     1     -29.318 -65.498 -16.474  1.00  0.00    -0.174 N
HETATM   18  C3  UNL     1     -28.108 -65.228 -16.986  1.00  0.00     0.678 A
ATOM     19  H2  UNL     1     -30.067 -65.814 -17.090  1.00  0.00     0.186 HD
HETATM   20  N4  UNL     1     -27.108 -64.812 -16.184  1.00  0.00    -0.183 N
HETATM   21  C4  UNL     1     -27.265 -64.643 -14.836  1.00  0.00     0.155 A
ATOM     22  H4  UNL     1     -26.198 -64.616 -16.599  1.00  0.00     0.184 HD
HETATM   23  C6  UNL     1     -28.505 -64.919 -14.313  1.00  0.00     0.144 A
BRANCH  18  24
HETATM   24  N3  UNL     1     -27.885 -65.366 -18.255  1.00  0.00    -0.234 N
ATOM     25  H32 UNL     1     -28.579 -65.839 -18.834  1.00  0.00     0.174 HD
ATOM     26  H31 UNL     1     -27.027 -65.004 -18.673  1.00  0.00     0.174 HD
ENDBRANCH  18  24
BRANCH  21  27
HETATM   27  C5  UNL     1     -26.162 -64.197 -14.015  1.00  0.00     0.289 C
HETATM   28  O1  UNL     1     -25.798 -63.003 -13.997  1.00  0.00    -0.264 OA
HETATM   29  N5  UNL     1     -25.418 -65.073 -13.176  1.00  0.00    -0.271 N
ATOM     30  H5  UNL     1     -25.649 -66.065 -13.131  1.00  0.00     0.189 HD
BRANCH  29  31
HETATM   31  N6  UNL     1     -24.370 -64.556 -12.417  1.00  0.00    -0.342 N
ATOM     32  H62 UNL     1     -24.520 -64.352 -11.429  1.00  0.00     0.176 HD
ATOM     33  H61 UNL     1     -23.469 -64.390 -12.864  1.00  0.00     0.176 HD
ENDBRANCH  29  31
ENDBRANCH  21  27
BRANCH  23  34
HETATM   34  O2  UNL     1     -28.815 -64.802 -13.015  1.00  0.00    -0.355 OA
ATOM     35  H2  UNL     1     -29.355 -65.495 -12.655  1.00  0.00     0.218 HD
ENDBRANCH  23  34
ENDBRANCH  14  16
ENDBRANCH   8  14
BRANCH  10  36
HETATM   36  N13 UNL     1     -32.692 -64.660 -16.584  1.00  0.00    -0.108 N
HETATM   37  O5  UNL     1     -32.034 -64.080 -17.455  1.00  0.00    -0.531 OA
HETATM   38  O6  UNL     1     -33.422 -65.763 -16.936  1.00  0.00    -0.531 OA
ENDBRANCH  10  36
BRANCH  11  39
HETATM   39  N12 UNL     1     -34.523 -62.880 -15.677  1.00  0.00    -0.383 N
ATOM     40 2H12 UNL     1     -34.372 -61.939 -16.041  1.00  0.00     0.157 HD
ATOM     41 1H12 UNL     1     -35.312 -63.435 -16.009  1.00  0.00     0.157 HD
ENDBRANCH  11  39
ENDBRANCH   1   6
BRANCH   4  42
HETATM   42  C11 UNL     1     -34.032 -63.082  -8.960  1.00  0.00     0.189 C
HETATM   43  N10 UNL     1     -35.061 -62.492  -8.448  1.00  0.00    -0.275 N
ATOM     44  H10 UNL     1     -35.833 -62.262  -9.073  1.00  0.00     0.193 HD
BRANCH  43  45
HETATM   45  O4  UNL     1     -35.190 -62.154  -7.139  1.00  0.00    -0.290 OA
ATOM     46  H4  UNL     1     -35.966 -62.308  -6.612  1.00  0.00     0.244 HD
ENDBRANCH  43  45
ENDBRANCH   4  42
TORSDOF 11
ENDMDL