MODEL 2
REMARK VINA RESULT: -9.481042377      3.099      5.854
REMARK  11 active torsions:
REMARK  status: ('A' for Active; 'I' for Inactive)
REMARK    1  A    between atoms: C2_2  and  O1_3
REMARK    2  A    between atoms: C2_2  and  C3_5
REMARK    3  A    between atoms: N1_7  and  C5_8
REMARK    4  A    between atoms: N2_10  and  C7_11
REMARK    5  A    between atoms: C8_12  and  N3_13
REMARK    6  A    between atoms: N3_13  and  C9_15
REMARK    7  A    between atoms: C9_15  and  O2_16
REMARK    8  A    between atoms: C9_15  and  O3_18
REMARK    9  A    between atoms: C11_21  and  C12_22
REMARK   10  A    between atoms: C12_22  and  O4_23
REMARK   11  A    between atoms: C16_36  and  N9_37
ROOT
HETATM    1  C12 UNL     1     -28.881 -63.060 -10.583  1.00  0.00     0.282 C
HETATM    2  C13 UNL     1     -28.002 -63.968  -9.858  1.00  0.00     0.120 C
HETATM    3  N4  UNL     1     -27.290 -64.712  -9.290  1.00  0.00    -0.192 NA
HETATM    4  C14 UNL     1     -29.771 -62.283  -9.736  1.00  0.00     0.120 C
HETATM    5  N5  UNL     1     -30.501 -61.655  -9.069  1.00  0.00    -0.192 NA
ENDROOT
BRANCH   1   6
HETATM    6  C11 UNL     1     -29.415 -63.534 -11.849  1.00  0.00     0.119 A
HETATM    7  C10 UNL     1     -30.801 -63.592 -12.075  1.00  0.00     0.066 A
HETATM    8  C8  UNL     1     -31.393 -64.020 -13.217  1.00  0.00     0.081 A
HETATM    9  C7  UNL     1     -30.573 -64.440 -14.261  1.00  0.00     0.173 A
HETATM   10  N10 UNL     1     -29.266 -64.388 -14.058  1.00  0.00    -0.046 N
HETATM   11  N6  UNL     1     -28.691 -63.957 -12.908  1.00  0.00    -0.062 N
HETATM   12  C16 UNL     1     -28.286 -64.735 -14.934  1.00  0.00     0.714 A
HETATM   13  C15 UNL     1     -27.363 -64.036 -13.064  1.00  0.00     0.713 A
HETATM   14  N7  UNL     1     -26.451 -63.731 -12.231  1.00  0.00    -0.232 N
HETATM   15  N8  UNL     1     -27.120 -64.509 -14.297  1.00  0.00    -0.019 N
ATOM     16  H72 UNL     1     -26.635 -63.372 -11.294  1.00  0.00     0.174 HD
ATOM     17  H71 UNL     1     -25.439 -63.791 -12.349  1.00  0.00     0.174 HD
ATOM     18  H8  UNL     1     -26.194 -64.672 -14.692  1.00  0.00     0.203 HD
BRANCH   8  19
HETATM   19  N3  UNL     1     -32.802 -64.042 -13.404  1.00  0.00    -0.339 N
ATOM     20  H3  UNL     1     -33.289 -64.926 -13.546  1.00  0.00     0.164 HD
BRANCH  19  21
HETATM   21  C9  UNL     1     -33.538 -62.798 -13.390  1.00  0.00     0.365 C
BRANCH  21  22
HETATM   22  O2  UNL     1     -34.892 -63.014 -13.660  1.00  0.00    -0.355 OA
ATOM     23  H2  UNL     1     -35.408 -62.977 -12.864  1.00  0.00     0.214 HD
ENDBRANCH  21  22
BRANCH  21  24
HETATM   24  O3  UNL     1     -33.078 -61.908 -14.355  1.00  0.00    -0.355 OA
ATOM     25  H3  UNL     1     -33.759 -61.313 -14.645  1.00  0.00     0.214 HD
ENDBRANCH  21  24
ENDBRANCH  19  21
ENDBRANCH   8  19
BRANCH   9  26
HETATM   26  N2  UNL     1     -31.241 -64.886 -15.432  1.00  0.00    -0.335 N
HETATM   27  C5  UNL     1     -31.953 -64.632 -16.651  1.00  0.00     0.228 A
HETATM   28  C6  UNL     1     -31.693 -66.054 -16.278  1.00  0.00     0.175 A
BRANCH  27  29
HETATM   29  N1  UNL     1     -33.342 -64.240 -16.675  1.00  0.00    -0.262 N
HETATM   30  C4  UNL     1     -34.429 -65.003 -16.470  1.00  0.00     0.143 A
HETATM   31  C3  UNL     1     -35.577 -64.249 -16.575  1.00  0.00     0.072 A
HETATM   32  N12 UNL     1     -35.134 -62.993 -16.855  1.00  0.00    -0.286 N
HETATM   33  N11 UNL     1     -33.802 -63.028 -16.905  1.00  0.00    -0.239 N
ATOM     34  H12 UNL     1     -35.717 -62.170 -17.000  1.00  0.00     0.188 HD
ATOM     35  H11 UNL     1     -33.213 -62.218 -17.097  1.00  0.00     0.208 HD
BRANCH  31  36
HETATM   36  C2  UNL     1     -36.983 -64.728 -16.415  1.00  0.00     0.166 C
HETATM   37  C1  UNL     1     -37.815 -63.996 -17.443  1.00  0.00     0.046 C
BRANCH  36  38
HETATM   38  O1  UNL     1     -37.422 -64.336 -15.155  1.00  0.00    -0.390 OA
ATOM     39  H1  UNL     1     -37.969 -65.031 -14.807  1.00  0.00     0.210 HD
ENDBRANCH  36  38
ENDBRANCH  31  36
ENDBRANCH  27  29
ENDBRANCH   9  26
BRANCH  12  40
HETATM   40  N9  UNL     1     -28.376 -65.180 -16.139  1.00  0.00    -0.232 N
ATOM     41  H92 UNL     1     -27.891 -65.958 -16.586  1.00  0.00     0.174 HD
ATOM     42  H91 UNL     1     -28.997 -64.789 -16.848  1.00  0.00     0.174 HD
ENDBRANCH  12  40
ENDBRANCH   1   6
BRANCH   1  43
HETATM   43  O4  UNL     1     -27.928 -62.038 -10.945  1.00  0.00    -0.359 OA
ATOM     44  H4  UNL     1     -28.242 -61.250 -10.518  1.00  0.00     0.213 HD
ENDBRANCH   1  43
TORSDOF 11
ENDMDL