MODEL 2
REMARK VINA RESULT: -8.697070625      1.922      3.470
REMARK  11 active torsions:
REMARK  status: ('A' for Active; 'I' for Inactive)
REMARK    1  A    between atoms: C2_2  and  N7_26
REMARK    2  A    between atoms: N1_3  and  O1_5
REMARK    3  A    between atoms: O1_5  and  C3_6
REMARK    4  A    between atoms: C3_6  and  C4_8
REMARK    5  A    between atoms: C5_11  and  N3_12
REMARK    6  A    between atoms: N4_14  and  N5_16
REMARK       I    between atoms: N5_16  and  C6_18
REMARK    7  A    between atoms: C7_23  and  O5_24
REMARK    8  A    between atoms: N7_26  and  N8_28
REMARK    9  A    between atoms: N8_28  and  C8_30
REMARK   10  A    between atoms: C9_33  and  N10_34
REMARK   11  A    between atoms: N11_37  and  N12_38
ROOT
HETATM    1  C1  UNL     1     -31.102 -66.367 -11.651  1.00  0.00     0.092 C
HETATM    2  C2  UNL     1     -31.672 -65.011 -11.449  1.00  0.00     0.112 C
HETATM    3  N1  UNL     1     -31.138 -64.182 -10.621  1.00  0.00    -0.244 N
ATOM      4  H1  UNL     1     -31.542 -63.254 -10.496  1.00  0.00     0.196 HD
ENDROOT
BRANCH   3   5
HETATM    5  O1  UNL     1     -30.025 -64.549  -9.910  1.00  0.00    -0.192 OA
BRANCH   5   6
HETATM    6  C3  UNL     1     -28.893 -63.763 -10.018  1.00  0.00     0.336 C
HETATM    7  O2  UNL     1     -28.324 -63.314  -9.001  1.00  0.00    -0.255 OA
BRANCH   6   8
HETATM    8  C4  UNL     1     -28.367 -63.463 -11.336  1.00  0.00     0.177 A
HETATM    9  N2  UNL     1     -28.301 -64.270 -12.410  1.00  0.00    -0.180 N
HETATM   10  C5  UNL     1     -27.747 -63.612 -13.432  1.00  0.00     0.700 A
ATOM     11  H2  UNL     1     -28.624 -65.237 -12.439  1.00  0.00     0.184 HD
HETATM   12  N6  UNL     1     -27.461 -62.376 -13.001  1.00  0.00    -0.167 N
HETATM   13  C7  UNL     1     -27.834 -62.271 -11.724  1.00  0.00     0.189 A
ATOM     14  H6  UNL     1     -27.029 -61.638 -13.556  1.00  0.00     0.186 HD
BRANCH  10  15
HETATM   15  N3  UNL     1     -27.500 -64.130 -14.761  1.00  0.00    -0.117 N
HETATM   16  N4  UNL     1     -28.304 -63.969 -15.710  1.00  0.00    -0.224 N
ATOM     17  H4  UNL     1     -28.082 -64.355 -16.627  1.00  0.00     0.209 HD
ATOM     18  H3  UNL     1     -26.638 -64.647 -14.932  1.00  0.00     0.207 HD
BRANCH  16  19
HETATM   19  N5  UNL     1     -29.495 -63.271 -15.528  1.00  0.00    -0.229 N
HETATM   20  C6  UNL     1     -30.664 -63.888 -15.005  1.00  0.00     0.304 C
HETATM   21  O3  UNL     1     -30.583 -65.118 -14.703  1.00  0.00    -0.628 OA
HETATM   22  O4  UNL     1     -31.849 -63.221 -14.817  1.00  0.00    -0.628 OA
ATOM     23  H5  UNL     1     -29.531 -62.283 -15.780  1.00  0.00     0.194 HD
ENDBRANCH  16  19
ENDBRANCH  10  15
BRANCH  13  24
HETATM   24  O5  UNL     1     -27.718 -61.150 -10.882  1.00  0.00    -0.344 OA
ATOM     25  H5  UNL     1     -27.886 -60.257 -11.161  1.00  0.00     0.219 HD
ENDBRANCH  13  24
ENDBRANCH   6   8
ENDBRANCH   5   6
ENDBRANCH   3   5
BRANCH   2  26
HETATM   26  N7  UNL     1     -32.819 -64.611 -12.171  1.00  0.00    -0.286 N
ATOM     27  H7  UNL     1     -33.212 -65.263 -12.849  1.00  0.00     0.188 HD
BRANCH  26  28
HETATM   28  N8  UNL     1     -33.440 -63.377 -12.010  1.00  0.00    -0.278 N
ATOM     29  H8  UNL     1     -33.177 -62.574 -12.581  1.00  0.00     0.189 HD
BRANCH  28  30
HETATM   30  C8  UNL     1     -34.372 -63.284 -11.101  1.00  0.00     0.183 A
HETATM   31  N9  UNL     1     -35.647 -63.656 -11.344  1.00  0.00    -0.167 N
HETATM   32  C9  UNL     1     -36.656 -63.598 -10.487  1.00  0.00     0.702 A
ATOM     33  H9  UNL     1     -35.854 -64.015 -12.276  1.00  0.00     0.186 HD
HETATM   34  N11 UNL     1     -36.626 -63.166  -9.220  1.00  0.00    -0.048 N
HETATM   35  C10 UNL     1     -35.540 -62.704  -8.577  1.00  0.00     0.327 A
HETATM   36  O6  UNL     1     -35.592 -62.311  -7.369  1.00  0.00    -0.257 OA
HETATM   37  S1  UNL     1     -34.121 -62.698  -9.522  1.00  0.00     0.011 SA
BRANCH  32  38
HETATM   38  N10 UNL     1     -37.817 -64.014 -10.941  1.00  0.00    -0.233 N
ATOM     39 2H10 UNL     1     -38.374 -63.337 -11.463  1.00  0.00     0.174 HD
ATOM     40 1H10 UNL     1     -38.057 -64.983 -10.727  1.00  0.00     0.174 HD
ENDBRANCH  32  38
BRANCH  34  41
HETATM   41  N12 UNL     1     -37.832 -63.186  -8.461  1.00  0.00    -0.321 N
ATOM     42 2H12 UNL     1     -37.825 -62.629  -7.607  1.00  0.00     0.178 HD
ATOM     43 1H12 UNL     1     -38.617 -63.740  -8.802  1.00  0.00     0.178 HD
ENDBRANCH  34  41
ENDBRANCH  28  30
ENDBRANCH  26  28
ENDBRANCH   2  26
TORSDOF 11
ENDMDL