MODEL 4
REMARK VINA RESULT: -8.401816644      2.720      4.234
REMARK  11 active torsions:
REMARK  status: ('A' for Active; 'I' for Inactive)
REMARK    1  A    between atoms: C5_6  and  N1_7
REMARK    2  A    between atoms: N1_7  and  C6_9
REMARK    3  A    between atoms: C6_9  and  O2_10
REMARK    4  A    between atoms: C6_9  and  C7_12
REMARK    5  A    between atoms: C7_12  and  O3_13
REMARK    6  A    between atoms: C7_12  and  C8_15
REMARK    7  A    between atoms: C8_15  and  O4_17
REMARK    8  A    between atoms: O4_17  and  C10_18
REMARK    9  A    between atoms: C12_25  and  C13_26
REMARK   10  A    between atoms: N8_36  and  N9_37
REMARK   11  A    between atoms: N10_40  and  N11_41
ROOT
HETATM    1  C1  UNL     1     -30.824 -63.568 -17.424  1.00  0.00     0.070 C
HETATM    2  C2  UNL     1     -31.667 -63.540 -16.201  1.00  0.00     0.036 A
HETATM    3  C3  UNL     1     -33.019 -63.509 -16.336  1.00  0.00     0.084 A
HETATM    4  C4  UNL     1     -33.794 -63.482 -15.207  1.00  0.00     0.204 A
HETATM    5  O1  UNL     1     -35.032 -63.455 -15.234  1.00  0.00    -0.286 OA
HETATM    6  C5  UNL     1     -33.158 -63.486 -13.956  1.00  0.00     0.131 A
HETATM    7  C11 UNL     1     -31.783 -63.522 -13.856  1.00  0.00     0.199 A
HETATM    8  N3  UNL     1     -31.040 -63.547 -14.998  1.00  0.00    -0.237 N
HETATM    9  N4  UNL     1     -29.643 -63.607 -14.988  1.00  0.00    -0.271 N
ATOM     10  H4  UNL     1     -29.140 -63.623 -15.875  1.00  0.00     0.189 HD
HETATM   11  C12 UNL     1     -28.963 -63.645 -13.868  1.00  0.00     0.208 A
HETATM   12  N8  UNL     1     -29.644 -63.627 -12.638  1.00  0.00    -0.158 N
HETATM   13  N10 UNL     1     -31.057 -63.566 -12.643  1.00  0.00    -0.159 N
ENDROOT
BRANCH   6  14
HETATM   14  N1  UNL     1     -33.959 -63.437 -12.795  1.00  0.00    -0.355 N
ATOM     15  H1  UNL     1     -34.038 -64.253 -12.188  1.00  0.00     0.162 HD
BRANCH  14  16
HETATM   16  C6  UNL     1     -34.666 -62.216 -12.475  1.00  0.00     0.249 C
BRANCH  16  17
HETATM   17  O2  UNL     1     -33.906 -61.434 -11.642  1.00  0.00    -0.374 OA
ATOM     18  H2  UNL     1     -34.449 -61.063 -10.956  1.00  0.00     0.212 HD
ENDBRANCH  16  17
BRANCH  16  19
HETATM   19  C7  UNL     1     -36.053 -62.461 -11.953  1.00  0.00     0.195 C
BRANCH  19  20
HETATM   20  O3  UNL     1     -36.904 -63.002 -12.874  1.00  0.00    -0.389 OA
ATOM     21  H3  UNL     1     -36.991 -63.945 -12.811  1.00  0.00     0.210 HD
ENDBRANCH  19  20
BRANCH  19  22
HETATM   22  C8  UNL     1     -35.987 -63.169 -10.632  1.00  0.00     0.162 C
HETATM   23  C9  UNL     1     -37.041 -64.223 -10.474  1.00  0.00     0.043 C
BRANCH  22  24
HETATM   24  O4  UNL     1     -36.003 -62.250  -9.545  1.00  0.00    -0.299 OA
BRANCH  24  25
HETATM   25  C10 UNL     1     -35.059 -62.297  -8.529  1.00  0.00     0.373 C
HETATM   26  N2  UNL     1     -35.368 -61.993  -7.180  1.00  0.00    -0.032 NA
HETATM   27  O5  UNL     1     -33.884 -62.635  -8.887  1.00  0.00    -0.242 OA
ENDBRANCH  24  25
ENDBRANCH  22  24
ENDBRANCH  19  22
ENDBRANCH  16  19
ENDBRANCH  14  16
ENDBRANCH   6  14
BRANCH  13  28
HETATM   28  N11 UNL     1     -31.746 -63.608 -11.437  1.00  0.00    -0.321 N
ATOM     29 2H11 UNL     1     -32.741 -63.386 -11.421  1.00  0.00     0.179 HD
ATOM     30 1H11 UNL     1     -31.239 -63.820 -10.577  1.00  0.00     0.179 HD
ENDBRANCH  13  28
BRANCH  12  31
HETATM   31  N9  UNL     1     -28.981 -63.671 -11.438  1.00  0.00    -0.321 N
ATOM     32  H92 UNL     1     -28.289 -62.952 -11.226  1.00  0.00     0.179 HD
ATOM     33  H91 UNL     1     -29.160 -64.401 -10.748  1.00  0.00     0.179 HD
ENDBRANCH  12  31
BRANCH  11  34
HETATM   34  C13 UNL     1     -27.509 -63.707 -13.876  1.00  0.00     0.178 A
HETATM   35  N5  UNL     1     -26.774 -64.448 -13.002  1.00  0.00    -0.302 N
HETATM   36  C14 UNL     1     -25.476 -64.307 -13.262  1.00  0.00     0.242 A
ATOM     37  H5  UNL     1     -27.161 -65.027 -12.257  1.00  0.00     0.171 HD
HETATM   38  N6  UNL     1     -24.454 -64.848 -12.654  1.00  0.00    -0.364 N
HETATM   39  O6  UNL     1     -25.391 -63.485 -14.288  1.00  0.00    -0.199 OA
ATOM     40  H62 UNL     1     -24.520 -65.485 -11.860  1.00  0.00     0.159 HD
ATOM     41  H61 UNL     1     -23.460 -64.739 -12.852  1.00  0.00     0.159 HD
HETATM   42  N7  UNL     1     -26.598 -63.120 -14.665  1.00  0.00    -0.238 N
ATOM     43  H7  UNL     1     -26.808 -62.489 -15.437  1.00  0.00     0.197 HD
ENDBRANCH  11  34
TORSDOF 11
ENDMDL