MODEL 3
REMARK VINA RESULT: -9.635552636      2.238      2.673
REMARK  8 active torsions:
REMARK  status: ('A' for Active; 'I' for Inactive)
REMARK    1  A    between atoms: C3_9  and  C4_10
REMARK    2  A    between atoms: C6_14  and  N5_15
REMARK    3  A    between atoms: C7_20  and  C8_21
REMARK       I    between atoms: C8_21  and  N7_23
REMARK    4  A    between atoms: N7_23  and  C9_25
REMARK    5  A    between atoms: C9_25  and  O2_26
REMARK    6  A    between atoms: C9_25  and  C10_28
REMARK    7  A    between atoms: C11_32  and  C12_33
REMARK    8  A    between atoms: C12_33  and  C13_34
ROOT
HETATM    1  C4  UNL     1     -31.558 -63.645 -14.725  1.00  0.00     0.150 A
HETATM    2  N4  UNL     1     -32.595 -62.852 -15.038  1.00  0.00    -0.321 N
ATOM      3  H4  UNL     1     -32.721 -62.387 -15.936  1.00  0.00     0.169 HD
HETATM    4  C5  UNL     1     -33.453 -62.758 -13.994  1.00  0.00     0.191 A
HETATM    5  C6  UNL     1     -34.647 -62.085 -13.800  1.00  0.00     0.149 A
HETATM    6  N6  UNL     1     -35.283 -62.190 -12.619  1.00  0.00    -0.320 N
ATOM      7  H6  UNL     1     -36.163 -61.698 -12.466  1.00  0.00     0.169 HD
HETATM    8  C7  UNL     1     -34.751 -62.947 -11.642  1.00  0.00     0.192 A
HETATM    9  N10 UNL     1     -33.585 -63.581 -11.886  1.00  0.00    -0.258 N
ATOM     10  H10 UNL     1     -33.192 -64.153 -11.138  1.00  0.00     0.191 HD
HETATM   11  N11 UNL     1     -32.920 -63.515 -13.019  1.00  0.00    -0.173 N
HETATM   12  N12 UNL     1     -31.779 -64.047 -13.462  1.00  0.00    -0.262 N
ATOM     13  H12 UNL     1     -31.170 -64.664 -12.926  1.00  0.00     0.190 HD
ENDROOT
BRANCH   8  14
HETATM   14  C8  UNL     1     -35.424 -63.072 -10.358  1.00  0.00     0.289 C
HETATM   15  O1  UNL     1     -34.712 -62.939  -9.307  1.00  0.00    -0.264 OA
HETATM   16  N7  UNL     1     -36.795 -63.330 -10.174  1.00  0.00    -0.322 N
ATOM     17  H7  UNL     1     -37.386 -63.442 -10.998  1.00  0.00     0.165 HD
BRANCH  16  18
HETATM   18  C9  UNL     1     -37.402 -63.443  -8.867  1.00  0.00     0.291 C
BRANCH  18  19
HETATM   19  O2  UNL     1     -38.413 -64.421  -8.885  1.00  0.00    -0.369 OA
ATOM     20  H2  UNL     1     -38.887 -64.418  -8.061  1.00  0.00     0.212 HD
ENDBRANCH  18  19
BRANCH  18  21
HETATM   21  C10 UNL     1     -38.001 -62.099  -8.557  1.00  0.00     0.153 A
HETATM   22  N8  UNL     1     -39.189 -61.638  -8.986  1.00  0.00    -0.243 N
HETATM   23  O3  UNL     1     -39.365 -60.441  -8.514  1.00  0.00    -0.222 OA
ATOM     24  H8  UNL     1     -39.843 -62.145  -9.583  1.00  0.00     0.196 HD
HETATM   25  C11 UNL     1     -38.332 -60.082  -7.781  1.00  0.00     0.158 A
HETATM   26  N9  UNL     1     -37.483 -61.109  -7.806  1.00  0.00    -0.323 N
ATOM     27  H9  UNL     1     -36.582 -61.140  -7.331  1.00  0.00     0.169 HD
BRANCH  25  28
HETATM   28  C12 UNL     1     -38.246 -58.763  -7.109  1.00  0.00     0.199 C
BRANCH  28  29
HETATM   29  C13 UNL     1     -36.868 -58.523  -6.614  1.00  0.00     0.180 C
HETATM   30  O4  UNL     1     -36.200 -57.558  -7.055  1.00  0.00    -0.648 OA
HETATM   31  O5  UNL     1     -36.370 -59.400  -5.663  1.00  0.00    -0.648 OA
ENDBRANCH  28  29
ENDBRANCH  25  28
ENDBRANCH  18  21
ENDBRANCH  16  18
ENDBRANCH   8  14
BRANCH   5  32
HETATM   32  N5  UNL     1     -35.145 -61.369 -14.733  1.00  0.00    -0.382 N
ATOM     33  H52 UNL     1     -34.537 -60.960 -15.443  1.00  0.00     0.157 HD
ATOM     34  H51 UNL     1     -36.151 -61.200 -14.774  1.00  0.00     0.157 HD
ENDBRANCH   5  32
BRANCH   1  35
HETATM   35  C3  UNL     1     -30.386 -64.015 -15.592  1.00  0.00     0.310 C
HETATM   36  N3  UNL     1     -29.293 -63.191 -15.201  1.00  0.00    -0.304 N
HETATM   37  N2  UNL     1     -28.187 -63.832 -14.712  1.00  0.00    -0.135 NA
ATOM     38  H3  UNL     1     -29.333 -62.176 -15.281  1.00  0.00     0.179 HD
HETATM   39  C2  UNL     1     -27.783 -64.997 -15.462  1.00  0.00     0.218 C
HETATM   40  C1  UNL     1     -28.928 -65.902 -15.739  1.00  0.00     0.131 C
HETATM   41  N1  UNL     1     -28.732 -67.073 -16.235  1.00  0.00    -0.382 N
HETATM   42  O6  UNL     1     -30.182 -65.396 -15.430  1.00  0.00    -0.305 OA
ATOM     43  H12 UNL     1     -27.810 -67.445 -16.462  1.00  0.00     0.158 HD
ATOM     44  H11 UNL     1     -29.518 -67.694 -16.425  1.00  0.00     0.158 HD
ENDBRANCH   1  35
TORSDOF 8
ENDMDL