MODEL 1
REMARK VINA RESULT: -8.000491346      0.000      0.000
REMARK  11 active torsions:
REMARK  status: ('A' for Active; 'I' for Inactive)
REMARK    1  A    between atoms: C3_10  and  N3_11
REMARK    2  A    between atoms: N3_11  and  C4_12
REMARK    3  A    between atoms: N3_11  and  C7_19
REMARK    4  A    between atoms: C4_12  and  C5_13
REMARK    5  A    between atoms: C5_13  and  C6_14
REMARK    6  A    between atoms: C6_14  and  N4_15
REMARK    7  A    between atoms: C8_22  and  O1_23
REMARK    8  A    between atoms: C8_22  and  N6_25
REMARK    9  A    between atoms: N6_25  and  O2_26
REMARK   10  A    between atoms: C9_28  and  N7_29
REMARK   11  A    between atoms: C10_37  and  C11_38
ROOT
HETATM    1  N3  UNL     1     -31.233 -64.763 -11.316  1.00  0.00    -0.303 N
ENDROOT
BRANCH   1   2
HETATM    2  C3  UNL     1     -32.508 -64.188 -11.230  1.00  0.00     0.139 A
HETATM    3  C2  UNL     1     -33.198 -63.506 -12.245  1.00  0.00     0.099 A
HETATM    4  N2  UNL     1     -32.730 -63.319 -13.502  1.00  0.00    -0.317 N
HETATM    5  C12 UNL     1     -34.451 -63.060 -11.720  1.00  0.00     0.058 A
HETATM    6  S2  UNL     1     -33.522 -62.515 -14.742  1.00  0.00     0.027 SA
ATOM      7  H2  UNL     1     -31.810 -63.704 -13.714  1.00  0.00     0.175 HD
HETATM    8  S1  UNL     1     -35.306 -61.888 -13.981  1.00  0.00    -0.017 SA
HETATM    9  C1  UNL     1     -35.450 -62.357 -12.350  1.00  0.00     0.090 A
HETATM   10  N1  UNL     1     -36.539 -62.057 -11.647  1.00  0.00    -0.392 N
ATOM     11  H12 UNL     1     -37.281 -61.535 -12.115  1.00  0.00     0.156 HD
ATOM     12  H11 UNL     1     -36.626 -62.339 -10.671  1.00  0.00     0.156 HD
HETATM   13  C10 UNL     1     -34.457 -63.506 -10.382  1.00  0.00     0.085 A
HETATM   14  N9  UNL     1     -33.306 -64.152 -10.158  1.00  0.00    -0.337 N
ATOM     15  H9  UNL     1     -33.062 -64.574  -9.262  1.00  0.00     0.167 HD
BRANCH  13  16
HETATM   16  C11 UNL     1     -35.479 -63.337  -9.365  1.00  0.00     0.140 C
HETATM   17  N10 UNL     1     -36.684 -64.063  -9.415  1.00  0.00    -0.087 NA
HETATM   18  S3  UNL     1     -35.223 -62.295  -8.151  1.00  0.00    -0.061 SA
ENDBRANCH  13  16
ENDBRANCH   1   2
BRANCH   1  19
HETATM   19  C4  UNL     1     -30.848 -66.045 -11.781  1.00  0.00     0.135 C
BRANCH  19  20
HETATM   20  C5  UNL     1     -30.917 -66.327 -13.228  1.00  0.00     0.047 C
BRANCH  20  21
HETATM   21  C6  UNL     1     -29.924 -65.632 -14.091  1.00  0.00     0.231 C
BRANCH  21  22
HETATM   22  N4  UNL     1     -29.297 -66.511 -15.061  1.00  0.00    -0.079 N
ATOM     23  H43 UNL     1     -28.968 -67.367 -14.617  1.00  0.00     0.274 HD
ATOM     24  H42 UNL     1     -29.992 -66.908 -15.694  1.00  0.00     0.274 HD
ATOM     25  H41 UNL     1     -28.546 -66.061 -15.583  1.00  0.00     0.274 HD
ENDBRANCH  21  22
ENDBRANCH  20  21
ENDBRANCH  19  20
ENDBRANCH   1  19
BRANCH   1  26
HETATM   26  C7  UNL     1     -30.141 -63.951 -10.807  1.00  0.00     0.184 C
HETATM   27  N5  UNL     1     -30.287 -62.708 -10.580  1.00  0.00    -0.311 N
HETATM   28  C8  UNL     1     -29.033 -62.189 -10.084  1.00  0.00     0.283 C
ATOM     29  H5  UNL     1     -31.142 -62.170 -10.724  1.00  0.00     0.167 HD
HETATM   30  C9  UNL     1     -27.994 -63.254 -10.371  1.00  0.00     0.360 C
HETATM   31  N8  UNL     1     -28.841 -64.423 -10.508  1.00  0.00    -0.329 N
ATOM     32  H8  UNL     1     -28.556 -65.397 -10.408  1.00  0.00     0.164 HD
BRANCH  28  33
HETATM   33  O1  UNL     1     -28.740 -61.027 -10.750  1.00  0.00    -0.353 OA
ATOM     34  H1  UNL     1     -28.054 -61.201 -11.383  1.00  0.00     0.214 HD
ENDBRANCH  28  33
BRANCH  28  35
HETATM   35  N6  UNL     1     -29.178 -62.011  -8.649  1.00  0.00    -0.037 NA
BRANCH  35  36
HETATM   36  O2  UNL     1     -30.156 -61.121  -8.398  1.00  0.00    -0.292 OA
ATOM     37  H2  UNL     1     -30.184 -60.928  -7.468  1.00  0.00     0.239 HD
ENDBRANCH  35  36
ENDBRANCH  28  35
BRANCH  30  38
HETATM   38  N7  UNL     1     -27.159 -63.437  -9.198  1.00  0.00    -0.052 N
ATOM     39  H73 UNL     1     -26.214 -63.738  -9.438  1.00  0.00     0.277 HD
ATOM     40  H72 UNL     1     -26.920 -62.551  -8.752  1.00  0.00     0.277 HD
ATOM     41  H71 UNL     1     -27.618 -64.082  -8.556  1.00  0.00     0.277 HD
ENDBRANCH  30  38
ENDBRANCH   1  26
TORSDOF 11
ENDMDL