MODEL 4
REMARK VINA RESULT: -9.567297633      3.644      6.323
REMARK  11 active torsions:
REMARK  status: ('A' for Active; 'I' for Inactive)
REMARK    1  A    between atoms: C2_2  and  C3_3
REMARK    2  A    between atoms: C2_2  and  N4_19
REMARK    3  A    between atoms: C3_3  and  N2_7
REMARK    4  A    between atoms: N2_7  and  C4_9
REMARK    5  A    between atoms: C5_11  and  O2_12
REMARK    6  A    between atoms: C7_16  and  O3_17
REMARK       I    between atoms: N4_19  and  C8_20
REMARK    7  A    between atoms: N4_19  and  C9_23
REMARK    8  A    between atoms: C9_23  and  O5_24
REMARK    9  A    between atoms: C9_23  and  C10_26
REMARK   10  A    between atoms: N8_31  and  C11_32
REMARK   11  A    between atoms: C12_38  and  N11_39
ROOT
HETATM    1  N4  UNL     1     -36.887 -63.705 -10.300  1.00  0.00    -0.268 N
HETATM    2  C8  UNL     1     -37.317 -65.049 -10.026  1.00  0.00     0.337 C
HETATM    3  N5  UNL     1     -38.280 -65.358  -9.051  1.00  0.00    -0.039 NA
HETATM    4  O4  UNL     1     -36.827 -65.997 -10.672  1.00  0.00    -0.250 OA
ENDROOT
BRANCH   1   5
HETATM    5  C2  UNL     1     -35.924 -63.451 -11.337  1.00  0.00     0.159 C
HETATM    6  C1  UNL     1     -36.127 -62.052 -11.847  1.00  0.00     0.041 C
BRANCH   5   7
HETATM    7  C3  UNL     1     -34.502 -63.713 -10.916  1.00  0.00     0.100 C
HETATM    8  N1  UNL     1     -33.931 -64.836 -10.866  1.00  0.00    -0.387 N
ATOM      9  H12 UNL     1     -34.477 -65.671 -11.080  1.00  0.00     0.157 HD
ATOM     10  H11 UNL     1     -32.967 -65.013 -10.581  1.00  0.00     0.157 HD
BRANCH   7  11
HETATM   11  N2  UNL     1     -33.746 -62.558 -10.620  1.00  0.00    -0.323 N
ATOM     12  H2  UNL     1     -34.291 -61.702 -10.525  1.00  0.00     0.169 HD
BRANCH  11  13
HETATM   13  C4  UNL     1     -32.372 -62.400 -10.436  1.00  0.00     0.187 A
HETATM   14  O1  UNL     1     -31.890 -61.822  -9.319  1.00  0.00    -0.266 OA
HETATM   15  C5  UNL     1     -30.610 -61.766  -9.332  1.00  0.00     0.212 A
HETATM   16  C6  UNL     1     -30.135 -62.319 -10.493  1.00  0.00     0.142 A
HETATM   17  N3  UNL     1     -28.807 -62.462 -10.912  1.00  0.00    -0.094 NA
HETATM   18  C7  UNL     1     -31.297 -62.721 -11.190  1.00  0.00     0.147 A
BRANCH  15  19
HETATM   19  O2  UNL     1     -29.860 -61.209  -8.282  1.00  0.00    -0.339 OA
ATOM     20  H2  UNL     1     -29.638 -61.692  -7.495  1.00  0.00     0.220 HD
ENDBRANCH  15  19
BRANCH  18  21
HETATM   21  O3  UNL     1     -31.267 -63.327 -12.411  1.00  0.00    -0.355 OA
ATOM     22  H3  UNL     1     -30.652 -63.193 -13.122  1.00  0.00     0.218 HD
ENDBRANCH  18  21
ENDBRANCH  11  13
ENDBRANCH   7  11
ENDBRANCH   5   7
ENDBRANCH   1   5
BRANCH   1  23
HETATM   23  C9  UNL     1     -37.451 -62.690  -9.535  1.00  0.00     0.195 C
BRANCH  23  24
HETATM   24  O5  UNL     1     -38.671 -62.348  -9.828  1.00  0.00    -0.343 OA
ATOM     25  H5  UNL     1     -39.069 -61.680  -9.283  1.00  0.00     0.219 HD
ENDBRANCH  23  24
BRANCH  23  26
HETATM   26  C10 UNL     1     -36.871 -61.950  -8.451  1.00  0.00     0.190 A
HETATM   27  N6  UNL     1     -35.756 -62.385  -7.755  1.00  0.00    -0.265 N
HETATM   28  N7  UNL     1     -35.437 -61.531  -6.816  1.00  0.00    -0.218 N
ATOM     29  H6  UNL     1     -35.253 -63.251  -7.947  1.00  0.00     0.190 HD
HETATM   30  N8  UNL     1     -36.314 -60.535  -6.870  1.00  0.00    -0.158 N
ATOM     31  H7  UNL     1     -34.658 -61.615  -6.163  1.00  0.00     0.210 HD
HETATM   32  N12 UNL     1     -37.156 -60.802  -7.848  1.00  0.00    -0.256 N
ATOM     33  H12 UNL     1     -37.935 -60.199  -8.110  1.00  0.00     0.191 HD
BRANCH  30  34
HETATM   34  C11 UNL     1     -36.321 -59.398  -6.018  1.00  0.00     0.214 A
HETATM   35  N9  UNL     1     -35.978 -59.355  -4.724  1.00  0.00    -0.219 N
HETATM   36  O6  UNL     1     -36.121 -58.122  -4.300  1.00  0.00    -0.153 OA
ATOM     37  H9  UNL     1     -35.660 -60.146  -4.164  1.00  0.00     0.198 HD
HETATM   38  N10 UNL     1     -36.543 -57.344  -5.252  1.00  0.00    -0.222 N
HETATM   39  C12 UNL     1     -36.682 -58.121  -6.363  1.00  0.00     0.171 A
ATOM     40  H10 UNL     1     -36.733 -56.344  -5.181  1.00  0.00     0.198 HD
BRANCH  39  41
HETATM   41  N11 UNL     1     -37.075 -57.714  -7.496  1.00  0.00    -0.381 N
ATOM     42 2H11 UNL     1     -36.486 -57.262  -8.196  1.00  0.00     0.157 HD
ATOM     43 1H11 UNL     1     -38.018 -57.771  -7.881  1.00  0.00     0.157 HD
ENDBRANCH  39  41
ENDBRANCH  30  34
ENDBRANCH  23  26
ENDBRANCH   1  23
TORSDOF 11
ENDMDL