MODEL 1
REMARK VINA RESULT: -8.696781084      0.000      0.000
REMARK  13 active torsions:
REMARK  status: ('A' for Active; 'I' for Inactive)
REMARK    1  A    between atoms: C2_2  and  C10_31
REMARK    2  A    between atoms: N1_3  and  N2_5
REMARK    3  A    between atoms: N2_5  and  C3_7
REMARK    4  A    between atoms: C3_7  and  O1_8
REMARK    5  A    between atoms: C5_12  and  S1_13
REMARK    6  A    between atoms: S1_13  and  S2_14
REMARK    7  A    between atoms: S2_14  and  C6_15
REMARK    8  A    between atoms: C6_15  and  N4_19
REMARK    9  A    between atoms: N4_19  and  C7_21
REMARK   10  A    between atoms: C7_21  and  C8_22
REMARK   11  A    between atoms: C8_22  and  O3_23
REMARK   12  A    between atoms: C9_27  and  N6_28
REMARK   13  A    between atoms: C11_37  and  N9_38
ROOT
HETATM    1  C3  UNL     1     -31.882 -62.299 -10.928  1.00  0.00     0.259 C
HETATM    2  C4  UNL     1     -31.993 -63.131 -12.192  1.00  0.00     0.243 C
HETATM    3  O2  UNL     1     -32.781 -63.005 -13.149  1.00  0.00    -0.284 OA
HETATM    4  C5  UNL     1     -30.951 -64.129 -12.025  1.00  0.00     0.130 C
HETATM    5  N5  UNL     1     -30.047 -63.659 -11.196  1.00  0.00    -0.350 N
ATOM      6  H5  UNL     1     -29.209 -64.163 -10.908  1.00  0.00     0.162 HD
HETATM    7  C9  UNL     1     -30.400 -62.332 -10.747  1.00  0.00     0.320 C
ENDROOT
BRANCH   1   8
HETATM    8  N2  UNL     1     -32.618 -62.997  -9.914  1.00  0.00    -0.291 N
ATOM      9  H2  UNL     1     -32.276 -62.967  -8.953  1.00  0.00     0.184 HD
BRANCH   8  10
HETATM   10  N1  UNL     1     -33.783 -63.715 -10.187  1.00  0.00    -0.304 N
HETATM   11  C2  UNL     1     -34.835 -63.450  -9.450  1.00  0.00     0.054 C
HETATM   12  C1  UNL     1     -34.757 -62.440  -8.393  1.00  0.00     0.072 C
ATOM     13  H1  UNL     1     -33.815 -64.415 -10.927  1.00  0.00     0.186 HD
BRANCH  11  14
HETATM   14  C10 UNL     1     -36.039 -64.196  -9.737  1.00  0.00     0.125 A
HETATM   15  N7  UNL     1     -36.100 -65.309 -10.542  1.00  0.00    -0.236 N
HETATM   16  O6  UNL     1     -37.308 -65.756 -10.610  1.00  0.00    -0.155 OA
ATOM     17  H7  UNL     1     -35.299 -65.724 -11.018  1.00  0.00     0.197 HD
HETATM   18  N8  UNL     1     -38.071 -65.002  -9.892  1.00  0.00    -0.224 N
HETATM   19  C11 UNL     1     -37.320 -63.997  -9.315  1.00  0.00     0.152 A
ATOM     20  H8  UNL     1     -39.076 -65.130  -9.769  1.00  0.00     0.198 HD
BRANCH  19  21
HETATM   21  N9  UNL     1     -37.818 -63.105  -8.551  1.00  0.00    -0.382 N
ATOM     22  H92 UNL     1     -37.503 -62.135  -8.546  1.00  0.00     0.157 HD
ATOM     23  H91 UNL     1     -38.560 -63.162  -7.853  1.00  0.00     0.157 HD
ENDBRANCH  19  21
ENDBRANCH  11  14
ENDBRANCH   8  10
ENDBRANCH   1   8
BRANCH   1  24
HETATM   24  O1  UNL     1     -32.399 -61.045 -11.228  1.00  0.00    -0.360 OA
ATOM     25  H1  UNL     1     -31.764 -60.454 -11.617  1.00  0.00     0.213 HD
ENDBRANCH   1  24
BRANCH   7  26
HETATM   26  N6  UNL     1     -29.994 -62.059  -9.394  1.00  0.00    -0.125 N
HETATM   27  O4  UNL     1     -30.626 -61.347  -8.602  1.00  0.00    -0.535 OA
HETATM   28  O5  UNL     1     -28.826 -62.624  -8.947  1.00  0.00    -0.535 OA
ENDBRANCH   7  26
BRANCH   4  29
HETATM   29  S1  UNL     1     -30.918 -65.719 -12.828  1.00  0.00    -0.028 SA
BRANCH  29  30
HETATM   30  S2  UNL     1     -29.771 -65.550 -14.602  1.00  0.00    -0.015 SA
BRANCH  30  31
HETATM   31  C6  UNL     1     -29.881 -63.849 -15.151  1.00  0.00     0.144 C
HETATM   32  N3  UNL     1     -30.980 -63.347 -15.649  1.00  0.00    -0.379 N
ATOM     33  H32 UNL     1     -31.822 -63.916 -15.742  1.00  0.00     0.158 HD
ATOM     34  H31 UNL     1     -31.043 -62.378 -15.962  1.00  0.00     0.158 HD
BRANCH  31  35
HETATM   35  N4  UNL     1     -28.719 -63.063 -15.022  1.00  0.00    -0.368 N
ATOM     36  H4  UNL     1     -28.712 -62.102 -15.368  1.00  0.00     0.161 HD
BRANCH  35  37
HETATM   37  C7  UNL     1     -27.545 -63.612 -14.406  1.00  0.00     0.147 C
BRANCH  37  38
HETATM   38  C8  UNL     1     -27.199 -62.971 -13.101  1.00  0.00     0.183 C
BRANCH  38  39
HETATM   39  O3  UNL     1     -27.071 -63.883 -12.072  1.00  0.00    -0.399 OA
ATOM     40  H3  UNL     1     -26.342 -63.688 -11.495  1.00  0.00     0.209 HD
ENDBRANCH  38  39
ENDBRANCH  37  38
ENDBRANCH  35  37
ENDBRANCH  31  35
ENDBRANCH  30  31
ENDBRANCH  29  30
ENDBRANCH   4  29
TORSDOF 13
ENDMDL