MODEL 4
REMARK VINA RESULT: -8.837374150      3.364      7.276
REMARK  11 active torsions:
REMARK  status: ('A' for Active; 'I' for Inactive)
REMARK    1  A    between atoms: S1_2  and  N1_3
REMARK    2  A    between atoms: S1_2  and  C2_7
REMARK    3  A    between atoms: C3_8  and  C4_9
REMARK    4  A    between atoms: C4_9  and  N2_10
REMARK    5  A    between atoms: C5_13  and  N3_14
REMARK    6  A    between atoms: N3_14  and  N4_16
REMARK    7  A    between atoms: N4_16  and  C6_18
REMARK    8  A    between atoms: C8_25  and  N8_26
REMARK    9  A    between atoms: C9_31  and  C10_32
REMARK   10  A    between atoms: C11_35  and  N10_36
REMARK   11  A    between atoms: N11_39  and  O6_40
ROOT
HETATM    1  C2  UNL     1     -28.742 -63.824 -13.388  1.00  0.00     0.151 A
HETATM    2  C3  UNL     1     -30.017 -64.162 -12.855  1.00  0.00     0.054 A
HETATM    3  C5  UNL     1     -30.429 -63.550 -11.707  1.00  0.00     0.082 A
HETATM    4  C9  UNL     1     -29.622 -62.599 -11.058  1.00  0.00     0.104 A
HETATM    5  C11 UNL     1     -28.393 -62.322 -11.637  1.00  0.00     0.145 A
HETATM    6  N11 UNL     1     -27.983 -62.913 -12.750  1.00  0.00    -0.197 N
ENDROOT
BRANCH   3   7
HETATM    7  N3  UNL     1     -31.653 -63.843 -11.007  1.00  0.00    -0.296 N
ATOM      8  H3  UNL     1     -31.696 -64.604 -10.330  1.00  0.00     0.187 HD
BRANCH   7   9
HETATM    9  N4  UNL     1     -32.785 -63.056 -11.279  1.00  0.00    -0.264 N
ATOM     10  H4  UNL     1     -32.718 -62.330 -11.992  1.00  0.00     0.190 HD
BRANCH   9  11
HETATM   11  C6  UNL     1     -34.034 -63.235 -10.590  1.00  0.00     0.244 A
HETATM   12  N5  UNL     1     -34.760 -64.252 -10.794  1.00  0.00    -0.295 N
HETATM   13  C7  UNL     1     -35.992 -64.381 -10.084  1.00  0.00     0.194 A
ATOM     14  H5  UNL     1     -34.469 -64.970 -11.458  1.00  0.00     0.172 HD
HETATM   15  N6  UNL     1     -36.855 -65.490 -10.256  1.00  0.00    -0.063 NA
HETATM   16  N7  UNL     1     -36.374 -63.481  -9.244  1.00  0.00    -0.315 N
HETATM   17  C8  UNL     1     -35.609 -62.313  -8.968  1.00  0.00     0.435 A
ATOM     18  H7  UNL     1     -37.261 -63.611  -8.757  1.00  0.00     0.166 HD
HETATM   19  O4  UNL     1     -34.420 -62.264  -9.700  1.00  0.00    -0.269 OA
BRANCH  17  20
HETATM   20  N8  UNL     1     -35.225 -62.351  -7.555  1.00  0.00    -0.034 N
ATOM     21  H83 UNL     1     -35.464 -61.492  -7.057  1.00  0.00     0.279 HD
ATOM     22  H82 UNL     1     -35.800 -62.990  -7.005  1.00  0.00     0.279 HD
ATOM     23  H81 UNL     1     -34.231 -62.573  -7.507  1.00  0.00     0.279 HD
ENDBRANCH  17  20
ENDBRANCH   9  11
ENDBRANCH   7   9
ENDBRANCH   3   7
BRANCH   2  24
HETATM   24  C4  UNL     1     -30.773 -65.098 -13.637  1.00  0.00     0.184 C
BRANCH  24  25
HETATM   25  N2  UNL     1     -31.908 -64.676 -14.349  1.00  0.00    -0.126 N
HETATM   26  O2  UNL     1     -31.948 -64.516 -15.601  1.00  0.00    -0.532 OA
HETATM   27  O3  UNL     1     -33.126 -64.423 -13.721  1.00  0.00    -0.532 OA
ENDBRANCH  24  25
ENDBRANCH   2  24
BRANCH   4  28
HETATM   28  C10 UNL     1     -30.028 -61.843  -9.886  1.00  0.00     0.271 C
HETATM   29  N9  UNL     1     -29.282 -61.956  -8.682  1.00  0.00    -0.057 NA
HETATM   30  O5  UNL     1     -31.005 -61.097  -9.886  1.00  0.00    -0.271 OA
ENDBRANCH   4  28
BRANCH   1  31
HETATM   31  S1  UNL     1     -28.209 -64.554 -14.847  1.00  0.00     0.065 S
HETATM   32  C1  UNL     1     -28.824 -66.243 -14.889  1.00  0.00     0.143 C
HETATM   33  O1  UNL     1     -26.779 -64.589 -15.145  1.00  0.00    -0.244 OA
BRANCH  31  34
HETATM   34  N1  UNL     1     -28.976 -63.834 -16.059  1.00  0.00    -0.356 N
ATOM     35  H12 UNL     1     -28.578 -63.202 -16.754  1.00  0.00     0.166 HD
ATOM     36  H11 UNL     1     -29.939 -64.157 -15.968  1.00  0.00     0.166 HD
ENDBRANCH  31  34
ENDBRANCH   1  31
BRANCH   5  37
HETATM   37  N10 UNL     1     -27.638 -61.448 -11.049  1.00  0.00    -0.383 N
ATOM     38 2H10 UNL     1     -26.636 -61.425 -11.239  1.00  0.00     0.157 HD
ATOM     39 1H10 UNL     1     -28.086 -60.799 -10.402  1.00  0.00     0.157 HD
ENDBRANCH   5  37
BRANCH   6  40
HETATM   40  O6  UNL     1     -26.752 -62.639 -13.330  1.00  0.00    -0.280 OA
ATOM     41  H6  UNL     1     -25.992 -62.958 -12.857  1.00  0.00     0.245 HD
ENDBRANCH   6  40
TORSDOF 11
ENDMDL