MODEL 3
REMARK VINA RESULT: -7.843856378      3.287      4.494
REMARK  11 active torsions:
REMARK  status: ('A' for Active; 'I' for Inactive)
REMARK    1  A    between atoms: C5_8  and  C6_9
REMARK    2  A    between atoms: C6_9  and  O1_10
REMARK    3  A    between atoms: O1_10  and  C7_11
REMARK    4  A    between atoms: C7_11  and  C8_12
REMARK    5  A    between atoms: C8_12  and  O2_13
REMARK    6  A    between atoms: O2_13  and  C9_14
REMARK    7  A    between atoms: C12_17  and  C13_18
REMARK    8  A    between atoms: N3_19  and  N4_21
REMARK    9  A    between atoms: N4_21  and  C14_23
REMARK   10  A    between atoms: C15_26  and  N6_27
REMARK   11  A    between atoms: C20_35  and  N8_36
ROOT
HETATM    1  N4  UNL     1      -6.190   6.575  13.613  1.00  0.00    -0.131 N
ATOM      2  H4  UNL     1      -5.660   7.267  14.145  1.00  0.00     0.205 HD
ENDROOT
BRANCH   1   3
HETATM    3  N3  UNL     1      -7.382   6.877  13.027  1.00  0.00    -0.297 N
HETATM    4  C13 UNL     1      -7.748   7.358  11.972  1.00  0.00     0.119 C
ATOM      5  H3  UNL     1      -8.170   6.636  13.627  1.00  0.00     0.186 HD
BRANCH   4   6
HETATM    6  C12 UNL     1      -6.974   7.857  10.843  1.00  0.00    -0.019 A
HETATM    7  C11 UNL     1      -6.459   6.974   9.903  1.00  0.00     0.015 A
HETATM    8  C10 UNL     1      -5.740   7.458   8.816  1.00  0.00     0.037 A
HETATM    9  C9  UNL     1      -5.502   8.824   8.603  1.00  0.00     0.068 A
HETATM   10  C26 UNL     1      -6.037   9.690   9.550  1.00  0.00     0.037 A
HETATM   11  C25 UNL     1      -6.762   9.197  10.652  1.00  0.00     0.015 A
BRANCH   9  12
HETATM   12  O2  UNL     1      -4.810   9.222   7.569  1.00  0.00    -0.349 OA
BRANCH  12  13
HETATM   13  C8  UNL     1      -3.790   9.297   6.756  1.00  0.00     0.201 C
BRANCH  13  14
HETATM   14  C7  UNL     1      -2.424   8.896   7.333  1.00  0.00     0.194 C
BRANCH  14  15
HETATM   15  O1  UNL     1      -2.063   9.164   8.477  1.00  0.00    -0.384 OA
BRANCH  15  16
HETATM   16  C6  UNL     1      -1.624   9.433   9.629  1.00  0.00     0.209 C
BRANCH  16  17
HETATM   17  C5  UNL     1      -1.236   8.199  10.425  1.00  0.00     0.006 A
HETATM   18  C2  UNL     1      -1.913   7.684  11.495  1.00  0.00     0.032 A
HETATM   19  C1  UNL     1      -3.332   8.038  11.799  1.00  0.00     0.070 C
HETATM   20  N1  UNL     1      -1.151   6.750  12.065  1.00  0.00    -0.303 N
HETATM   21  N2  UNL     1      -0.006   6.663  11.374  1.00  0.00    -0.307 N
ATOM     22  H1  UNL     1      -1.398   6.197  12.885  1.00  0.00     0.186 HD
HETATM   23  C3  UNL     1       1.080   5.763  11.667  1.00  0.00     0.177 C
HETATM   24  C4  UNL     1      -0.056   7.557  10.362  1.00  0.00     0.120 A
ENDBRANCH  16  17
ENDBRANCH  15  16
ENDBRANCH  14  15
ENDBRANCH  13  14
ENDBRANCH  12  13
ENDBRANCH   9  12
ENDBRANCH   4   6
ENDBRANCH   1   3
BRANCH   1  25
HETATM   25  C14 UNL     1      -5.750   5.315  13.451  1.00  0.00     0.726 A
HETATM   26  N5  UNL     1      -5.196   4.930  12.329  1.00  0.00    -0.020 N
HETATM   27  C15 UNL     1      -4.724   3.654  12.191  1.00  0.00     0.709 A
ATOM     28  H5  UNL     1      -5.118   5.586  11.551  1.00  0.00     0.203 HD
HETATM   29  N7  UNL     1      -4.890   2.857  13.291  1.00  0.00    -0.021 N
HETATM   30  C20 UNL     1      -5.450   3.219  14.443  1.00  0.00     0.709 A
ATOM     31  H7  UNL     1      -4.555   1.896  13.222  1.00  0.00     0.203 HD
HETATM   32  N9  UNL     1      -5.895   4.498  14.522  1.00  0.00    -0.020 N
ATOM     33  H9  UNL     1      -6.334   4.841  15.377  1.00  0.00     0.203 HD
BRANCH  27  34
HETATM   34  N6  UNL     1      -4.010   3.170  11.096  1.00  0.00    -0.213 N
HETATM   35  C16 UNL     1      -4.166   1.852  10.534  1.00  0.00     0.167 C
HETATM   36  C17 UNL     1      -2.902   1.121  11.033  1.00  0.00     0.188 C
HETATM   37  O3  UNL     1      -2.015   1.940  11.676  1.00  0.00    -0.388 OA
HETATM   38  C18 UNL     1      -1.686   3.156  11.172  1.00  0.00     0.188 C
HETATM   39  C19 UNL     1      -2.900   3.899  10.518  1.00  0.00     0.167 C
ENDBRANCH  27  34
BRANCH  30  40
HETATM   40  N8  UNL     1      -5.590   2.387  15.577  1.00  0.00    -0.213 N
HETATM   41  C21 UNL     1      -6.718   2.661  16.460  1.00  0.00     0.167 C
HETATM   42  C22 UNL     1      -7.529   1.402  16.587  1.00  0.00     0.188 C
HETATM   43  O4  UNL     1      -6.759   0.278  16.762  1.00  0.00    -0.388 OA
HETATM   44  C23 UNL     1      -5.432   0.541  17.041  1.00  0.00     0.188 C
HETATM   45  C24 UNL     1      -4.730   1.304  15.898  1.00  0.00     0.167 C
ENDBRANCH  30  40
ENDBRANCH   1  25
TORSDOF 11
ENDMDL