MODEL 5
REMARK VINA RESULT: -7.182152727      3.862      8.605
REMARK  11 active torsions:
REMARK  status: ('A' for Active; 'I' for Inactive)
REMARK    1  A    between atoms: C2_2  and  C3_3
REMARK    2  A    between atoms: C3_3  and  N1_4
REMARK    3  A    between atoms: C6_9  and  C7_10
REMARK    4  A    between atoms: C7_10  and  N3_11
REMARK    5  A    between atoms: N4_14  and  C10_15
REMARK    6  A    between atoms: C10_15  and  C11_16
REMARK    7  A    between atoms: C12_19  and  N6_20
REMARK    8  A    between atoms: N6_20  and  C13_22
REMARK    9  A    between atoms: C13_22  and  C14_23
REMARK   10  A    between atoms: C14_23  and  N7_24
REMARK   11  A    between atoms: N9_34  and  C21_35
ROOT
HETATM    1  C11 UNL     1       0.116   3.724  10.229  1.00  0.00     0.113 A
HETATM    2  N5  UNL     1       1.345   3.714   9.692  1.00  0.00    -0.329 N
ATOM      3  H5  UNL     1       1.566   2.962   9.039  1.00  0.00     0.168 HD
HETATM    4  C12 UNL     1       2.296   4.606   9.945  1.00  0.00     0.133 A
HETATM    5  C19 UNL     1       1.976   5.618  10.834  1.00  0.00     0.122 A
HETATM    6  N8  UNL     1       2.657   6.671  11.322  1.00  0.00    -0.346 N
ATOM      7  H8  UNL     1       3.619   6.912  11.087  1.00  0.00     0.167 HD
HETATM    8  C20 UNL     1       1.866   7.354  12.170  1.00  0.00     0.192 A
HETATM    9  N9  UNL     1       0.660   6.714  12.213  1.00  0.00    -0.276 N
HETATM   10  C25 UNL     1       0.716   5.642  11.394  1.00  0.00     0.146 A
HETATM   11  N12 UNL     1      -0.201   4.700  11.090  1.00  0.00    -0.328 N
ATOM     12  H12 UNL     1      -1.128   4.731  11.513  1.00  0.00     0.169 HD
ENDROOT
BRANCH   1  13
HETATM   13  C10 UNL     1      -0.881   2.704   9.899  1.00  0.00     0.350 C
BRANCH  13  14
HETATM   14  N4  UNL     1      -1.628   2.193  10.997  1.00  0.00     0.125 N
HETATM   15  C9  UNL     1      -1.905   0.815  11.011  1.00  0.00     0.305 C
HETATM   16  C8  UNL     1      -3.412   0.738  10.866  1.00  0.00     0.305 C
HETATM   17  N3  UNL     1      -3.905   1.962  11.483  1.00  0.00     0.125 N
HETATM   18  C26 UNL     1      -2.833   2.925  11.288  1.00  0.00     0.543 C
BRANCH  17  19
HETATM   19  C7  UNL     1      -4.117   1.684  12.891  1.00  0.00     0.350 C
BRANCH  19  20
HETATM   20  C6  UNL     1      -5.047   2.715  13.487  1.00  0.00     0.112 A
HETATM   21  N1  UNL     1      -5.345   2.804  14.785  1.00  0.00    -0.344 N
HETATM   22  C4  UNL     1      -6.196   3.817  14.981  1.00  0.00     0.109 A
HETATM   23  C5  UNL     1      -6.431   4.375  13.743  1.00  0.00     0.106 A
HETATM   24  N2  UNL     1      -5.712   3.676  12.854  1.00  0.00    -0.353 N
ATOM     25  H2  UNL     1      -5.680   3.855  11.850  1.00  0.00     0.166 HD
BRANCH  21  26
HETATM   26  C3  UNL     1      -4.845   1.957  15.853  1.00  0.00     0.129 C
BRANCH  26  27
HETATM   27  C2  UNL     1      -5.785   1.968  17.046  1.00  0.00     0.016 C
HETATM   28  C1  UNL     1      -6.798   0.846  16.957  1.00  0.00     0.006 C
ENDBRANCH  26  27
ENDBRANCH  21  26
ENDBRANCH  19  20
ENDBRANCH  17  19
ENDBRANCH  13  14
ENDBRANCH   1  13
BRANCH   4  29
HETATM   29  N6  UNL     1       3.478   4.573   9.413  1.00  0.00    -0.373 N
ATOM     30  H6  UNL     1       4.220   5.160   9.795  1.00  0.00     0.161 HD
BRANCH  29  31
HETATM   31  C13 UNL     1       3.754   3.721   8.293  1.00  0.00     0.151 C
BRANCH  31  32
HETATM   32  C14 UNL     1       3.929   4.435   6.993  1.00  0.00     0.292 C
BRANCH  32  33
HETATM   33  N7  UNL     1       2.708   4.889   6.392  1.00  0.00     0.094 N
HETATM   34  C15 UNL     1       1.854   3.768   6.143  1.00  0.00     0.298 C
HETATM   35  C16 UNL     1       1.130   4.055   4.822  1.00  0.00     0.198 C
HETATM   36  O1  UNL     1       2.090   3.934   3.829  1.00  0.00    -0.388 OA
HETATM   37  C17 UNL     1       3.128   4.822   4.010  1.00  0.00     0.198 C
HETATM   38  C18 UNL     1       2.977   5.704   5.225  1.00  0.00     0.298 C
ENDBRANCH  32  33
ENDBRANCH  31  32
ENDBRANCH  29  31
ENDBRANCH   4  29
BRANCH   9  39
HETATM   39  C21 UNL     1      -0.466   7.107  12.989  1.00  0.00     0.130 A
HETATM   40  C22 UNL     1      -0.597   8.313  13.630  1.00  0.00     0.069 A
HETATM   41  C23 UNL     1      -1.817   8.326  14.278  1.00  0.00     0.113 A
HETATM   42  N10 UNL     1      -2.390   7.136  14.014  1.00  0.00    -0.306 N
HETATM   43  C24 UNL     1      -3.708   6.738  14.520  1.00  0.00     0.177 C
HETATM   44  N11 UNL     1      -1.593   6.408  13.251  1.00  0.00    -0.284 N
ATOM     45  H11 UNL     1      -1.796   5.467  12.913  1.00  0.00     0.188 HD
ENDBRANCH   9  39
TORSDOF 11
ENDMDL