MODEL 3
REMARK VINA RESULT: -7.033536388      1.570      1.962
REMARK  10 active torsions:
REMARK  status: ('A' for Active; 'I' for Inactive)
REMARK    1  A    between atoms: N1_2  and  C3_4
REMARK    2  A    between atoms: C5_8  and  N3_9
REMARK    3  A    between atoms: C10_17  and  N5_18
REMARK    4  A    between atoms: N6_21  and  C13_22
REMARK    5  A    between atoms: C13_22  and  C14_23
REMARK       I    between atoms: C14_23  and  N7_25
REMARK    6  A    between atoms: N7_25  and  C15_26
REMARK    7  A    between atoms: C15_26  and  C16_27
REMARK    8  A    between atoms: C16_27  and  S1_28
REMARK    9  A    between atoms: N10_36  and  C21_37
REMARK   10  A    between atoms: C21_37  and  C22_38
ROOT
HETATM    1  S1  UNL     1      -5.055   2.259  15.559  1.00  0.00    -0.045 SA
HETATM    2  C17 UNL     1      -5.663   0.888  16.508  1.00  0.00     0.134 C
HETATM    3  N8  UNL     1      -6.066   0.001  17.137  1.00  0.00    -0.184 NA
ENDROOT
BRANCH   1   4
HETATM    4  C16 UNL     1      -6.395   3.415  15.289  1.00  0.00     0.149 C
BRANCH   4   5
HETATM    5  C15 UNL     1      -6.225   4.060  13.930  1.00  0.00     0.170 C
BRANCH   5   6
HETATM    6  N7  UNL     1      -5.707   3.247  12.924  1.00  0.00    -0.386 NA
HETATM    7  C14 UNL     1      -5.211   2.471  11.960  1.00  0.00     0.309 C
HETATM    8  O2  UNL     1      -5.779   2.089  10.897  1.00  0.00    -0.255 OA
BRANCH   7   9
HETATM    9  C13 UNL     1      -3.791   1.937  12.102  1.00  0.00     0.246 C
BRANCH   9  10
HETATM   10  N6  UNL     1      -2.849   2.714  11.332  1.00  0.00    -0.361 N
HETATM   11  C12 UNL     1      -1.929   1.889  10.666  1.00  0.00     0.084 C
HETATM   12  C11 UNL     1      -0.493   1.986  11.071  1.00  0.00     0.186 C
HETATM   13  N5  UNL     1      -0.134   3.379  11.204  1.00  0.00    -0.208 N
HETATM   14  C19 UNL     1      -0.980   4.240  11.946  1.00  0.00     0.186 C
HETATM   15  C18 UNL     1      -2.432   3.918  11.927  1.00  0.00     0.084 C
BRANCH  13  16
HETATM   16  C10 UNL     1       1.041   3.873  10.586  1.00  0.00     0.684 A
HETATM   17  N4  UNL     1       1.893   4.578  11.350  1.00  0.00    -0.174 N
HETATM   18  C5  UNL     1       3.023   5.140  10.883  1.00  0.00     0.150 A
ATOM     19  H4  UNL     1       1.670   4.694  12.338  1.00  0.00     0.186 HD
HETATM   20  C4  UNL     1       3.257   4.939   9.527  1.00  0.00     0.139 A
HETATM   21  N2  UNL     1       4.251   5.344   8.760  1.00  0.00    -0.184 N
HETATM   22  C20 UNL     1       2.403   4.221   8.712  1.00  0.00     0.170 A
HETATM   23  C3  UNL     1       4.035   4.891   7.489  1.00  0.00     0.684 A
ATOM     24  H2  UNL     1       5.049   5.901   9.065  1.00  0.00     0.184 HD
HETATM   25  N10 UNL     1       2.889   4.192   7.455  1.00  0.00    -0.165 N
HETATM   26  N9  UNL     1       1.303   3.702   9.281  1.00  0.00    -0.173 N
ATOM     27  H9  UNL     1       0.652   3.166   8.708  1.00  0.00     0.186 HD
BRANCH  18  28
HETATM   28  N3  UNL     1       3.875   5.862  11.719  1.00  0.00    -0.361 N
HETATM   29  C6  UNL     1       5.128   5.211  12.170  1.00  0.00     0.150 C
HETATM   30  C7  UNL     1       6.197   6.155  11.579  1.00  0.00     0.187 C
HETATM   31  O1  UNL     1       6.108   7.338  12.272  1.00  0.00    -0.388 OA
HETATM   32  C8  UNL     1       4.971   8.024  11.892  1.00  0.00     0.187 C
HETATM   33  C9  UNL     1       3.734   7.182  12.239  1.00  0.00     0.150 C
ENDBRANCH  18  28
BRANCH  23  34
HETATM   34  N1  UNL     1       4.947   5.214   6.457  1.00  0.00    -0.226 N
HETATM   35  C1  UNL     1       6.051   4.370   6.148  1.00  0.00     0.168 C
HETATM   36  C2  UNL     1       4.718   6.443   5.731  1.00  0.00     0.168 C
ENDBRANCH  23  34
BRANCH  25  37
HETATM   37  C21 UNL     1       2.331   3.503   6.278  1.00  0.00     0.154 C
BRANCH  37  38
HETATM   38  C22 UNL     1       1.035   4.124   5.864  1.00  0.00     0.005 A
HETATM   39  C23 UNL     1       0.938   5.508   5.334  1.00  0.00     0.007 A
HETATM   40  C24 UNL     1       0.801   4.361   4.390  1.00  0.00     0.007 A
ENDBRANCH  37  38
ENDBRANCH  25  37
ENDBRANCH  13  16
ENDBRANCH   9  10
ENDBRANCH   7   9
ENDBRANCH   5   6
ENDBRANCH   4   5
ENDBRANCH   1   4
TORSDOF 10
ENDMDL