MODEL 5
REMARK VINA RESULT: -7.576444823      3.321      5.817
REMARK  11 active torsions:
REMARK  status: ('A' for Active; 'I' for Inactive)
REMARK    1  A    between atoms: C3_3  and  C4_4
REMARK    2  A    between atoms: C4_4  and  O1_5
REMARK    3  A    between atoms: O1_5  and  C5_6
REMARK    4  A    between atoms: C8_9  and  C9_10
REMARK    5  A    between atoms: C9_10  and  N1_11
REMARK    6  A    between atoms: N1_11  and  C10_13
REMARK    7  A    between atoms: N4_21  and  C13_22
REMARK    8  A    between atoms: C13_22  and  C14_23
REMARK    9  A    between atoms: N5_25  and  C16_26
REMARK   10  A    between atoms: C16_26  and  C17_27
REMARK   11  A    between atoms: C24_42  and  O5_43
ROOT
HETATM    1  C1  UNL     1      -3.176   7.083  14.416  1.00  0.00     0.012 C
HETATM    2  C2  UNL     1      -4.330   6.761  14.290  1.00  0.00    -0.115 C
HETATM    3  C3  UNL     1      -5.763   6.378  14.155  1.00  0.00     0.119 C
ENDROOT
BRANCH   3   4
HETATM    4  C4  UNL     1      -6.047   5.389  15.239  1.00  0.00     0.188 C
BRANCH   4   5
HETATM    5  O1  UNL     1      -6.301   4.091  14.852  1.00  0.00    -0.347 OA
BRANCH   5   6
HETATM    6  C5  UNL     1      -5.645   3.350  13.916  1.00  0.00     0.102 A
HETATM    7  C6  UNL     1      -5.677   3.527  12.553  1.00  0.00     0.040 A
HETATM    8  C7  UNL     1      -4.958   2.691  11.695  1.00  0.00     0.012 A
HETATM    9  C8  UNL     1      -4.192   1.660  12.192  1.00  0.00    -0.038 A
HETATM   10  C23 UNL     1      -4.152   1.475  13.540  1.00  0.00     0.048 A
HETATM   11  C24 UNL     1      -4.851   2.286  14.398  1.00  0.00     0.102 A
BRANCH   9  12
HETATM   12  C9  UNL     1      -3.466   0.827  11.190  1.00  0.00     0.161 C
BRANCH  12  13
HETATM   13  N1  UNL     1      -2.055   0.953  11.457  1.00  0.00    -0.351 N
ATOM     14  H1  UNL     1      -1.548   0.179  11.884  1.00  0.00     0.163 HD
BRANCH  13  15
HETATM   15  C10 UNL     1      -1.424   2.049  11.154  1.00  0.00     0.231 A
HETATM   16  N2  UNL     1      -0.767   2.241  10.000  1.00  0.00    -0.273 N
HETATM   17  C11 UNL     1      -0.128   3.415   9.745  1.00  0.00     0.341 A
ATOM     18  H2  UNL     1      -0.745   1.495   9.304  1.00  0.00     0.174 HD
HETATM   19  O2  UNL     1       0.478   3.564   8.656  1.00  0.00    -0.246 OA
HETATM   20  N3  UNL     1      -0.141   4.411  10.642  1.00  0.00    -0.175 N
HETATM   21  C12 UNL     1       0.376   5.651  10.690  1.00  0.00     0.355 A
HETATM   22  C22 UNL     1      -0.805   4.194  11.789  1.00  0.00     0.261 A
HETATM   23  O3  UNL     1       1.063   6.167   9.761  1.00  0.00    -0.244 OA
HETATM   24  N4  UNL     1       0.046   6.233  11.864  1.00  0.00    -0.233 N
HETATM   25  N9  UNL     1      -0.665   5.344  12.514  1.00  0.00    -0.257 N
ATOM     26  H9  UNL     1      -1.064   5.491  13.442  1.00  0.00     0.191 HD
HETATM   27  O4  UNL     1      -1.414   3.059  12.019  1.00  0.00    -0.244 OA
BRANCH  24  28
HETATM   28  C13 UNL     1       0.442   7.576  12.242  1.00  0.00     0.213 C
BRANCH  28  29
HETATM   29  C14 UNL     1      -0.657   8.554  11.998  1.00  0.00     0.060 A
HETATM   30  C15 UNL     1      -1.564   8.547  10.958  1.00  0.00     0.136 A
HETATM   31  N5  UNL     1      -2.403   9.600  11.089  1.00  0.00    -0.281 N
HETATM   32  N7  UNL     1      -2.035  10.253  12.182  1.00  0.00    -0.020 NA
HETATM   33  N8  UNL     1      -0.988   9.637  12.738  1.00  0.00    -0.285 N
ATOM     34  H8  UNL     1      -0.512   9.938  13.589  1.00  0.00     0.184 HD
BRANCH  31  35
HETATM   35  C16 UNL     1      -3.499   9.953  10.206  1.00  0.00     0.185 C
BRANCH  35  36
HETATM   36  C17 UNL     1      -4.390   8.809   9.947  1.00  0.00    -0.023 A
HETATM   37  C18 UNL     1      -5.107   8.138  10.895  1.00  0.00     0.011 A
HETATM   38  C19 UNL     1      -5.894   7.089  10.489  1.00  0.00     0.018 A
HETATM   39  C20 UNL     1      -6.011   6.667   9.184  1.00  0.00     0.087 A
HETATM   40  N6  UNL     1      -5.288   7.354   8.270  1.00  0.00    -0.375 N
HETATM   41  C21 UNL     1      -4.511   8.380   8.631  1.00  0.00     0.096 A
ATOM     42  H6  UNL     1      -5.337   7.085   7.288  1.00  0.00     0.164 HD
ENDBRANCH  35  36
ENDBRANCH  31  35
ENDBRANCH  28  29
ENDBRANCH  24  28
ENDBRANCH  13  15
ENDBRANCH  12  13
ENDBRANCH   9  12
BRANCH  11  43
HETATM   43  O5  UNL     1      -4.807   2.094  15.779  1.00  0.00    -0.353 OA
HETATM   44  C25 UNL     1      -5.625   1.084  16.331  1.00  0.00     0.210 C
ENDBRANCH  11  43
ENDBRANCH   5   6
ENDBRANCH   4   5
ENDBRANCH   3   4
TORSDOF 11
ENDMDL