MODEL 2
REMARK VINA RESULT: -7.274723179      2.665      4.814
REMARK  11 active torsions:
REMARK  status: ('A' for Active; 'I' for Inactive)
REMARK    1  A    between atoms: N2_5  and  C4_6
REMARK    2  A    between atoms: N6_15  and  C7_16
REMARK    3  A    between atoms: N8_25  and  C14_26
REMARK    4  A    between atoms: C14_26  and  C15_27
REMARK    5  A    between atoms: C15_27  and  C16_28
REMARK    6  A    between atoms: C16_28  and  C17_29
REMARK    7  A    between atoms: C17_29  and  C18_30
REMARK    8  A    between atoms: C18_30  and  N9_31
REMARK    9  A    between atoms: N10_34  and  C21_35
REMARK   10  A    between atoms: C21_35  and  C22_36
REMARK   11  A    between atoms: C22_36  and  O1_37
ROOT
HETATM    1  C7  UNL     1      -1.902   5.392  10.485  1.00  0.00     0.062 A
HETATM    2  C8  UNL     1      -2.191   6.335  11.445  1.00  0.00     0.034 A
HETATM    3  C9  UNL     1      -3.425   6.943  11.417  1.00  0.00     0.034 A
HETATM    4  C10 UNL     1      -4.365   6.627  10.457  1.00  0.00     0.062 A
HETATM    5  C11 UNL     1      -4.043   5.679   9.514  1.00  0.00     0.062 A
HETATM    6  C12 UNL     1      -2.809   5.046   9.511  1.00  0.00     0.063 A
HETATM    7  N7  UNL     1      -5.130   5.571   8.713  1.00  0.00    -0.350 N
ATOM      8  H7  UNL     1      -5.211   4.947   7.910  1.00  0.00     0.166 HD
HETATM    9  C13 UNL     1      -6.084   6.410   9.138  1.00  0.00     0.183 A
HETATM   10  N8  UNL     1      -5.628   7.060  10.203  1.00  0.00    -0.341 N
ENDROOT
BRANCH   1  11
HETATM   11  N6  UNL     1      -0.636   4.764  10.509  1.00  0.00    -0.223 N
HETATM   12  N5  UNL     1      -0.042   4.202  11.549  1.00  0.00    -0.233 N
HETATM   13  N4  UNL     1       1.130   3.721  11.184  1.00  0.00    -0.281 N
ATOM     14  H5  UNL     1      -0.431   4.150  12.490  1.00  0.00     0.209 HD
HETATM   15  C6  UNL     1       1.324   3.965   9.883  1.00  0.00     0.111 A
ATOM     16  H4  UNL     1       1.787   3.239  11.797  1.00  0.00     0.188 HD
HETATM   17  C5  UNL     1       2.326   3.711   8.976  1.00  0.00     0.141 A
HETATM   18  C25 UNL     1       0.190   4.633   9.457  1.00  0.00     0.173 A
HETATM   19  N3  UNL     1       2.179   4.115   7.705  1.00  0.00    -0.199 N
HETATM   20  C4  UNL     1       1.089   4.763   7.269  1.00  0.00     0.681 A
ATOM     21  H3  UNL     1       2.929   3.921   7.041  1.00  0.00     0.183 HD
HETATM   22  N11 UNL     1       0.109   5.013   8.151  1.00  0.00    -0.172 N
ATOM     23  H11 UNL     1      -0.726   5.506   7.833  1.00  0.00     0.186 HD
BRANCH  20  24
HETATM   24  N2  UNL     1       0.940   5.182   5.936  1.00  0.00    -0.214 N
HETATM   25  C3  UNL     1       1.720   4.606   4.874  1.00  0.00     0.171 C
HETATM   26  C2  UNL     1       0.748   4.137   3.816  1.00  0.00     0.292 C
HETATM   27  N1  UNL     1      -0.158   5.156   3.389  1.00  0.00     0.087 N
HETATM   28  C1  UNL     1      -1.169   4.498   2.545  1.00  0.00     0.310 C
HETATM   29  C27 UNL     1      -0.875   5.801   4.453  1.00  0.00     0.292 C
HETATM   30  C26 UNL     1      -0.010   6.212   5.611  1.00  0.00     0.171 C
ENDBRANCH  20  24
ENDBRANCH   1  11
BRANCH  10  31
HETATM   31  C14 UNL     1      -6.292   8.074  11.016  1.00  0.00     0.130 C
BRANCH  31  32
HETATM   32  C15 UNL     1      -7.349   7.383  11.877  1.00  0.00     0.021 C
BRANCH  32  33
HETATM   33  C16 UNL     1      -6.706   6.766  13.106  1.00  0.00     0.007 C
BRANCH  33  34
HETATM   34  C17 UNL     1      -7.017   5.334  13.298  1.00  0.00     0.044 C
BRANCH  34  35
HETATM   35  C18 UNL     1      -6.011   4.528  14.020  1.00  0.00     0.058 C
BRANCH  35  36
HETATM   36  N9  UNL     1      -5.232   3.642  13.299  1.00  0.00    -0.390 N
HETATM   37  C19 UNL     1      -5.176   3.545  11.923  1.00  0.00     0.152 C
HETATM   38  C20 UNL     1      -5.071   2.085  11.426  1.00  0.00     0.292 C
HETATM   39  N10 UNL     1      -4.047   1.368  12.196  1.00  0.00     0.093 N
HETATM   40  C23 UNL     1      -4.285   1.479  13.600  1.00  0.00     0.292 C
HETATM   41  C24 UNL     1      -4.283   2.914  14.082  1.00  0.00     0.152 C
BRANCH  39  42
HETATM   42  C21 UNL     1      -2.775   1.827  11.737  1.00  0.00     0.298 C
BRANCH  42  43
HETATM   43  C22 UNL     1      -2.191   0.847  10.771  1.00  0.00     0.194 C
BRANCH  43  44
HETATM   44  O1  UNL     1      -1.131   1.516  10.122  1.00  0.00    -0.399 OA
ATOM     45  H1  UNL     1      -1.492   2.332   9.797  1.00  0.00     0.209 HD
ENDBRANCH  43  44
ENDBRANCH  42  43
ENDBRANCH  39  42
ENDBRANCH  35  36
ENDBRANCH  34  35
ENDBRANCH  33  34
ENDBRANCH  32  33
ENDBRANCH  31  32
ENDBRANCH  10  31
TORSDOF 11
ENDMDL