MODEL 3
REMARK VINA RESULT: -7.697037102      1.030      1.166
REMARK  10 active torsions:
REMARK  status: ('A' for Active; 'I' for Inactive)
REMARK    1  A    between atoms: C2_2  and  N1_3
REMARK    2  A    between atoms: N3_8  and  C5_9
REMARK    3  A    between atoms: C5_9  and  C6_10
REMARK    4  A    between atoms: C6_10  and  N4_11
REMARK    5  A    between atoms: C8_13  and  C9_14
REMARK    6  A    between atoms: C9_14  and  N5_15
REMARK    7  A    between atoms: N7_26  and  C18_27
REMARK    8  A    between atoms: C18_27  and  C19_28
REMARK    9  A    between atoms: C19_28  and  C20_29
REMARK   10  A    between atoms: C20_29  and  N8_30
ROOT
HETATM    1  N5  UNL     1      -1.763   7.398  12.145  1.00  0.00    -0.331 N
HETATM    2  C10 UNL     1      -1.645   8.247  11.096  1.00  0.00     0.184 A
HETATM    3  N6  UNL     1      -2.841   8.589  10.621  1.00  0.00    -0.349 N
ATOM      4  H6  UNL     1      -3.040   9.212   9.838  1.00  0.00     0.166 HD
HETATM    5  C11 UNL     1      -3.740   7.932  11.400  1.00  0.00     0.078 A
HETATM    6  C12 UNL     1      -5.117   7.885  11.410  1.00  0.00     0.020 A
HETATM    7  C13 UNL     1      -5.784   8.640  10.441  1.00  0.00     0.016 A
HETATM    8  C14 UNL     1      -7.155   8.629  10.404  1.00  0.00     0.001 A
HETATM    9  C15 UNL     1      -7.842   7.872  11.328  1.00  0.00     0.002 A
HETATM   10  C16 UNL     1      -7.152   7.133  12.280  1.00  0.00     0.031 A
HETATM   11  C17 UNL     1      -5.775   7.124  12.340  1.00  0.00     0.050 A
HETATM   12  N7  UNL     1      -5.102   6.396  13.274  1.00  0.00    -0.312 N
HETATM   13  C24 UNL     1      -3.755   6.424  13.288  1.00  0.00     0.277 A
HETATM   14  O1  UNL     1      -3.083   5.777  14.131  1.00  0.00    -0.265 OA
HETATM   15  C25 UNL     1      -3.049   7.182  12.362  1.00  0.00     0.132 A
ENDROOT
BRANCH   1  16
HETATM   16  C9  UNL     1      -0.634   6.845  12.834  1.00  0.00     0.190 C
BRANCH  16  17
HETATM   17  C8  UNL     1      -0.343   5.502  12.243  1.00  0.00     0.062 A
HETATM   18  C7  UNL     1       0.335   5.233  11.068  1.00  0.00     0.140 A
HETATM   19  N4  UNL     1       0.371   3.893  10.941  1.00  0.00    -0.285 N
HETATM   20  N11 UNL     1      -0.251   3.338  11.977  1.00  0.00    -0.241 N
HETATM   21  N10 UNL     1      -0.673   4.309  12.749  1.00  0.00    -0.287 N
ATOM     22  H11 UNL     1      -0.376   2.340  12.142  1.00  0.00     0.208 HD
ATOM     23  H10 UNL     1      -1.186   4.173  13.621  1.00  0.00     0.188 HD
BRANCH  19  24
HETATM   24  C6  UNL     1       0.960   3.136   9.890  1.00  0.00     0.171 C
BRANCH  24  25
HETATM   25  C5  UNL     1       1.794   3.871   8.909  1.00  0.00     0.176 C
BRANCH  25  26
HETATM   26  N3  UNL     1       1.135   4.147   7.653  1.00  0.00    -0.239 N
HETATM   27  N2  UNL     1       0.036   4.866   7.447  1.00  0.00    -0.283 N
HETATM   28  C3  UNL     1      -0.278   4.919   6.141  1.00  0.00     0.098 A
ATOM     29  H2  UNL     1      -0.500   5.321   8.187  1.00  0.00     0.188 HD
HETATM   30  N1  UNL     1       0.665   4.205   5.529  1.00  0.00    -0.287 N
HETATM   31  C4  UNL     1      -1.447   5.643   5.592  1.00  0.00     0.091 C
HETATM   32  C26 UNL     1       1.535   3.728   6.444  1.00  0.00     0.344 A
HETATM   33  O2  UNL     1       2.558   3.002   6.195  1.00  0.00    -0.245 OA
BRANCH  30  34
HETATM   34  C2  UNL     1       0.756   3.970   4.117  1.00  0.00     0.131 C
HETATM   35  C1  UNL     1       1.605   5.037   3.425  1.00  0.00     0.027 C
ENDBRANCH  30  34
ENDBRANCH  25  26
ENDBRANCH  24  25
ENDBRANCH  19  24
ENDBRANCH  16  17
ENDBRANCH   1  16
BRANCH  12  36
HETATM   36  C18 UNL     1      -5.865   5.655  14.221  1.00  0.00     0.134 C
BRANCH  36  37
HETATM   37  C19 UNL     1      -5.647   4.168  14.228  1.00  0.00     0.050 C
BRANCH  37  38
HETATM   38  C20 UNL     1      -5.665   3.615  12.856  1.00  0.00     0.276 C
BRANCH  38  39
HETATM   39  N8  UNL     1      -4.388   3.070  12.434  1.00  0.00     0.115 N
HETATM   40  C21 UNL     1      -4.354   2.718  11.039  1.00  0.00     0.302 C
HETATM   41  C22 UNL     1      -4.888   1.303  11.016  1.00  0.00     0.264 C
HETATM   42  N9  UNL     1      -4.307   0.742  12.221  1.00  0.00    -0.047 N
HETATM   43  C23 UNL     1      -4.208   1.817  13.158  1.00  0.00     0.502 C
ATOM     44  H92 UNL     1      -4.819  -0.063  12.582  1.00  0.00     0.279 HD
ATOM     45  H91 UNL     1      -3.420   0.264  12.059  1.00  0.00     0.279 HD
ENDBRANCH  38  39
ENDBRANCH  37  38
ENDBRANCH  36  37
ENDBRANCH  12  36
TORSDOF 10
ENDMDL