MODEL 5
REMARK VINA RESULT: -7.954337959      2.940      8.403
REMARK  11 active torsions:
REMARK  status: ('A' for Active; 'I' for Inactive)
REMARK    1  A    between atoms: O1_2  and  C2_3
REMARK    2  A    between atoms: C2_3  and  C3_5
REMARK    3  A    between atoms: N1_9  and  C7_10
REMARK    4  A    between atoms: C7_10  and  C8_11
REMARK       I    between atoms: C8_11  and  N2_13
REMARK    5  A    between atoms: N2_13  and  C9_15
REMARK    6  A    between atoms: C9_15  and  C10_16
REMARK    7  A    between atoms: C10_16  and  N3_17
REMARK    8  A    between atoms: C12_19  and  C13_20
REMARK    9  A    between atoms: C13_20  and  S1_21
REMARK   10  A    between atoms: S1_21  and  C14_22
REMARK   11  A    between atoms: N6_27  and  C15_28
ROOT
HETATM    1  C14 UNL     1      -2.580   3.742  12.102  1.00  0.00     0.126 A
HETATM    2  N4  UNL     1      -1.963   4.236  13.214  1.00  0.00    -0.276 N
ATOM      3  H4  UNL     1      -1.029   4.643  13.244  1.00  0.00     0.189 HD
HETATM    4  N5  UNL     1      -2.764   4.100  14.234  1.00  0.00    -0.234 N
ATOM      5  H5  UNL     1      -2.533   4.395  15.182  1.00  0.00     0.209 HD
HETATM    6  N6  UNL     1      -3.911   3.538  13.897  1.00  0.00    -0.225 N
HETATM    7  C21 UNL     1      -3.807   3.307  12.558  1.00  0.00     0.172 A
HETATM    8  C22 UNL     1      -4.827   2.702  11.750  1.00  0.00     0.122 C
HETATM    9  N9  UNL     1      -5.636   2.205  11.089  1.00  0.00    -0.190 NA
ENDROOT
BRANCH   1  10
HETATM   10  S1  UNL     1      -1.908   3.694  10.449  1.00  0.00    -0.102 SA
BRANCH  10  11
HETATM   11  C13 UNL     1      -0.410   2.713  10.374  1.00  0.00     0.141 C
BRANCH  11  12
HETATM   12  C12 UNL     1       0.781   3.578  10.547  1.00  0.00     0.054 A
HETATM   13  C11 UNL     1       1.754   3.886   9.636  1.00  0.00     0.139 A
HETATM   14  N3  UNL     1       2.633   4.705  10.235  1.00  0.00    -0.286 N
HETATM   15  N11 UNL     1       2.230   4.905  11.477  1.00  0.00    -0.241 N
HETATM   16  N10 UNL     1       1.117   4.231  11.672  1.00  0.00    -0.288 N
ATOM     17  H11 UNL     1       2.703   5.485  12.169  1.00  0.00     0.208 HD
ATOM     18  H10 UNL     1       0.590   4.207  12.545  1.00  0.00     0.188 HD
BRANCH  14  19
HETATM   19  C10 UNL     1       3.828   5.283   9.646  1.00  0.00     0.169 C
BRANCH  19  20
HETATM   20  C9  UNL     1       4.658   6.037  10.661  1.00  0.00     0.144 C
BRANCH  20  21
HETATM   21  N2  UNL     1       4.159   7.388  10.879  1.00  0.00    -0.358 N
HETATM   22  C8  UNL     1       4.213   7.932  12.186  1.00  0.00     0.235 C
HETATM   23  O3  UNL     1       4.679   7.273  13.147  1.00  0.00    -0.272 OA
ATOM     24  H2  UNL     1       3.779   7.932  10.105  1.00  0.00     0.162 HD
BRANCH  22  25
HETATM   25  C7  UNL     1       3.715   9.289  12.423  1.00  0.00     0.230 C
BRANCH  25  26
HETATM   26  N1  UNL     1       2.375   9.312  12.970  1.00  0.00    -0.357 N
HETATM   27  C6  UNL     1       2.060  10.282  13.839  1.00  0.00     0.091 A
HETATM   28  C5  UNL     1       0.787  10.359  14.402  1.00  0.00     0.018 A
HETATM   29  C4  UNL     1      -0.169   9.421  14.060  1.00  0.00     0.020 A
HETATM   30  C3  UNL     1       0.157   8.426  13.166  1.00  0.00     0.055 A
HETATM   31  C23 UNL     1       1.427   8.415  12.654  1.00  0.00     0.108 A
BRANCH  30  32
HETATM   32  C2  UNL     1      -0.805   7.402  12.758  1.00  0.00     0.294 C
HETATM   33  O2  UNL     1      -0.540   6.649  11.788  1.00  0.00    -0.259 OA
BRANCH  32  34
HETATM   34  O1  UNL     1      -2.010   7.215  13.395  1.00  0.00    -0.322 OA
HETATM   35  C1  UNL     1      -3.263   7.478  12.791  1.00  0.00     0.213 C
ENDBRANCH  32  34
ENDBRANCH  30  32
ENDBRANCH  25  26
ENDBRANCH  22  25
ENDBRANCH  20  21
ENDBRANCH  19  20
ENDBRANCH  14  19
ENDBRANCH  11  12
ENDBRANCH  10  11
ENDBRANCH   1  10
BRANCH   6  36
HETATM   36  C15 UNL     1      -5.002   3.248  14.762  1.00  0.00     0.106 A
HETATM   37  C16 UNL     1      -6.096   4.058  15.049  1.00  0.00     0.053 A
HETATM   38  C17 UNL     1      -6.306   5.420  14.466  1.00  0.00     0.072 C
HETATM   39  N7  UNL     1      -6.874   3.391  15.909  1.00  0.00    -0.301 N
HETATM   40  N8  UNL     1      -6.350   2.202  16.195  1.00  0.00    -0.299 N
ATOM     41  H7  UNL     1      -7.749   3.746  16.293  1.00  0.00     0.187 HD
HETATM   42  C18 UNL     1      -6.932   1.222  17.092  1.00  0.00     0.177 C
HETATM   43  C19 UNL     1      -5.220   2.106  15.507  1.00  0.00     0.055 A
HETATM   44  C20 UNL     1      -4.306   0.929  15.532  1.00  0.00     0.072 C
ENDBRANCH   6  36
TORSDOF 11
ENDMDL