MODEL 2
REMARK VINA RESULT: -8.182668551      1.401      1.803
REMARK  11 active torsions:
REMARK  status: ('A' for Active; 'I' for Inactive)
REMARK    1  A    between atoms: C3_4  and  C4_5
REMARK    2  A    between atoms: C4_5  and  N2_6
REMARK    3  A    between atoms: N2_6  and  C5_7
REMARK    4  A    between atoms: N5_12  and  C6_13
REMARK    5  A    between atoms: C6_13  and  N6_14
REMARK    6  A    between atoms: C9_17  and  N7_18
REMARK    7  A    between atoms: N7_18  and  C10_21
REMARK    8  A    between atoms: C10_21  and  C11_22
REMARK    9  A    between atoms: N9_33  and  C19_34
REMARK   10  A    between atoms: C20_35  and  O2_36
REMARK   11  A    between atoms: C20_35  and  C21_38
ROOT
HETATM    1  C5  UNL     1      -2.268   4.001  12.641  1.00  0.00     0.285 A
HETATM    2  N3  UNL     1      -0.959   4.356  12.932  1.00  0.00    -0.243 N
ATOM      3  H3  UNL     1      -0.698   4.443  13.914  1.00  0.00     0.192 HD
HETATM    4  N4  UNL     1      -0.046   4.584  12.042  1.00  0.00    -0.228 N
ATOM      5  H4  UNL     1       0.900   4.842  12.321  1.00  0.00     0.209 HD
HETATM    6  N5  UNL     1      -0.374   4.473  10.731  1.00  0.00    -0.185 N
HETATM    7  C18 UNL     1      -1.602   4.141  10.434  1.00  0.00     0.357 A
HETATM    8  O1  UNL     1      -1.931   4.036   9.196  1.00  0.00    -0.244 OA
HETATM    9  N9  UNL     1      -2.603   3.887  11.345  1.00  0.00    -0.228 N
ENDROOT
BRANCH   6  10
HETATM   10  C6  UNL     1       0.709   4.793   9.828  1.00  0.00     0.215 C
BRANCH  10  11
HETATM   11  N6  UNL     1       0.812   6.179   9.607  1.00  0.00    -0.355 N
HETATM   12  C7  UNL     1       0.175   6.795   8.533  1.00  0.00     0.067 C
HETATM   13  C8  UNL     1       0.017   8.300   8.695  1.00  0.00     0.077 C
HETATM   14  C9  UNL     1       0.010   8.798  10.075  1.00  0.00     0.192 C
HETATM   15  C16 UNL     1       0.988   8.146  11.039  1.00  0.00     0.053 C
HETATM   16  C17 UNL     1       1.665   6.947  10.434  1.00  0.00     0.131 C
BRANCH  14  17
HETATM   17  N7  UNL     1      -1.259   9.035  10.732  1.00  0.00    -0.067 N
ATOM     18  H72 UNL     1      -1.256   9.896  11.279  1.00  0.00     0.277 HD
ATOM     19  H71 UNL     1      -1.996   9.285  10.073  1.00  0.00     0.277 HD
BRANCH  17  20
HETATM   20  C10 UNL     1      -1.608   7.873  11.535  1.00  0.00     0.272 C
BRANCH  20  21
HETATM   21  C11 UNL     1      -3.024   7.497  11.256  1.00  0.00    -0.017 A
HETATM   22  C12 UNL     1      -3.869   7.235  12.353  1.00  0.00     0.011 A
HETATM   23  C13 UNL     1      -5.138   6.806  12.129  1.00  0.00     0.018 A
HETATM   24  C14 UNL     1      -5.604   6.625  10.865  1.00  0.00     0.087 A
HETATM   25  N8  UNL     1      -4.787   6.881   9.798  1.00  0.00    -0.375 N
HETATM   26  C15 UNL     1      -3.524   7.309  10.013  1.00  0.00     0.096 A
ATOM     27  H8  UNL     1      -5.129   6.750   8.846  1.00  0.00     0.164 HD
ENDBRANCH  20  21
ENDBRANCH  17  20
ENDBRANCH  14  17
ENDBRANCH  10  11
ENDBRANCH   6  10
BRANCH   9  28
HETATM   28  C19 UNL     1      -3.854   3.481  10.802  1.00  0.00     0.143 C
HETATM   29  C20 UNL     1      -4.362   2.169  10.808  1.00  0.00     0.092 C
BRANCH  29  30
HETATM   30  O2  UNL     1      -5.699   2.152  10.708  1.00  0.00    -0.358 OA
ATOM     31  H2  UNL     1      -5.999   1.492  10.094  1.00  0.00     0.217 HD
ENDBRANCH  29  30
BRANCH  29  32
HETATM   32  C21 UNL     1      -3.851   0.826  10.892  1.00  0.00    -0.002 A
HETATM   33  C22 UNL     1      -2.475   0.548  10.607  1.00  0.00     0.014 A
HETATM   34  C23 UNL     1      -1.985  -0.736  10.728  1.00  0.00     0.001 A
HETATM   35  C24 UNL     1      -2.748  -1.808  11.116  1.00  0.00     0.000 A
HETATM   36  C25 UNL     1      -4.081  -1.570  11.395  1.00  0.00     0.001 A
HETATM   37  C26 UNL     1      -4.560  -0.279  11.271  1.00  0.00     0.014 A
ENDBRANCH  29  32
ENDBRANCH   9  28
BRANCH   1  38
HETATM   38  N2  UNL     1      -3.006   3.874  13.597  1.00  0.00    -0.380 NA
BRANCH  38  39
HETATM   39  C4  UNL     1      -3.990   4.018  14.478  1.00  0.00     0.219 C
BRANCH  39  40
HETATM   40  C3  UNL     1      -4.519   2.782  15.175  1.00  0.00     0.095 A
HETATM   41  C2  UNL     1      -5.745   2.614  15.722  1.00  0.00     0.144 A
HETATM   42  N1  UNL     1      -5.759   1.380  16.276  1.00  0.00    -0.291 N
HETATM   43  C1  UNL     1      -6.848   0.757  17.025  1.00  0.00     0.178 C
HETATM   44  N11 UNL     1      -4.598   0.832  16.069  1.00  0.00    -0.241 N
HETATM   45  N10 UNL     1      -3.819   1.663  15.398  1.00  0.00    -0.283 N
ATOM     46  H11 UNL     1      -4.328  -0.103  16.379  1.00  0.00     0.208 HD
ATOM     47  H10 UNL     1      -2.859   1.484  15.104  1.00  0.00     0.188 HD
ENDBRANCH  39  40
ENDBRANCH  38  39
ENDBRANCH   1  38
TORSDOF 11
ENDMDL