MODEL 4
REMARK VINA RESULT: -7.950859783      5.950      9.944
REMARK  10 active torsions:
REMARK  status: ('A' for Active; 'I' for Inactive)
REMARK    1  A    between atoms: N1_2  and  C3_4
REMARK    2  A    between atoms: C4_7  and  N3_8
REMARK    3  A    between atoms: N3_8  and  C6_10
REMARK    4  A    between atoms: C6_10  and  C7_11
REMARK    5  A    between atoms: C7_11  and  C8_12
REMARK    6  A    between atoms: C8_12  and  N4_13
REMARK       I    between atoms: N4_13  and  C9_14
REMARK    7  A    between atoms: C9_14  and  C10_16
REMARK    8  A    between atoms: C13_19  and  C14_20
REMARK    9  A    between atoms: C14_20  and  N5_21
REMARK   10  A    between atoms: C22_35  and  N9_36
ROOT
HETATM    1  N5  UNL     1      -4.732   3.402  12.355  1.00  0.00    -0.252 N
HETATM    2  N6  UNL     1      -4.385   2.528  13.265  1.00  0.00    -0.285 N
ATOM      3  H6  UNL     1      -3.699   1.822  12.996  1.00  0.00     0.188 HD
HETATM    4  C15 UNL     1      -4.854   2.479  14.526  1.00  0.00     0.128 A
HETATM    5  C16 UNL     1      -4.460   1.502  15.492  1.00  0.00     0.119 C
HETATM    6  N7  UNL     1      -4.144   0.708  16.308  1.00  0.00    -0.190 NA
HETATM    7  C17 UNL     1      -5.774   3.450  14.844  1.00  0.00     0.048 A
HETATM    8  C18 UNL     1      -6.178   4.410  13.903  1.00  0.00     0.079 A
HETATM    9  C19 UNL     1      -5.630   4.362  12.636  1.00  0.00     0.262 A
HETATM   10  O2  UNL     1      -6.026   5.239  11.819  1.00  0.00    -0.267 OA
ENDROOT
BRANCH   1  11
HETATM   11  C14 UNL     1      -4.187   3.354  11.032  1.00  0.00     0.191 C
BRANCH  11  12
HETATM   12  C13 UNL     1      -2.710   3.528  10.936  1.00  0.00    -0.038 A
HETATM   13  C12 UNL     1      -1.889   2.411  10.743  1.00  0.00     0.010 A
HETATM   14  C11 UNL     1      -0.517   2.559  10.598  1.00  0.00     0.019 A
HETATM   15  C10 UNL     1       0.009   3.817  10.648  1.00  0.00     0.046 A
HETATM   16  C21 UNL     1      -0.771   4.903  10.836  1.00  0.00     0.019 A
HETATM   17  C20 UNL     1      -2.140   4.772  10.982  1.00  0.00     0.010 A
BRANCH  15  18
HETATM   18  C9  UNL     1       1.506   3.971  10.426  1.00  0.00     0.321 C
HETATM   19  N4  UNL     1       2.102   4.925  11.097  1.00  0.00    -0.411 NA
HETATM   20  O1  UNL     1       1.963   3.118   9.590  1.00  0.00    -0.251 OA
BRANCH  19  21
HETATM   21  C8  UNL     1       2.746   5.953  11.818  1.00  0.00     0.227 C
BRANCH  21  22
HETATM   22  C7  UNL     1       4.088   5.383  12.331  1.00  0.00     0.079 C
BRANCH  22  23
HETATM   23  C6  UNL     1       4.956   4.894  11.287  1.00  0.00     0.084 C
BRANCH  23  24
HETATM   24  N3  UNL     1       5.230   5.613  10.107  1.00  0.00    -0.200 N
HETATM   25  C5  UNL     1       5.991   6.868  10.091  1.00  0.00     0.174 C
BRANCH  24  26
HETATM   26  C4  UNL     1       4.855   5.099   8.836  1.00  0.00     0.712 A
HETATM   27  N2  UNL     1       5.642   4.269   8.150  1.00  0.00    -0.021 N
HETATM   28  C3  UNL     1       5.280   3.793   6.937  1.00  0.00     0.708 A
ATOM     29  H2  UNL     1       6.537   3.988   8.548  1.00  0.00     0.203 HD
HETATM   30  N10 UNL     1       4.104   4.184   6.442  1.00  0.00    -0.021 N
HETATM   31  C22 UNL     1       3.270   5.013   7.077  1.00  0.00     0.709 A
ATOM     32  H10 UNL     1       3.825   3.829   5.528  1.00  0.00     0.203 HD
HETATM   33  N8  UNL     1       3.682   5.464   8.302  1.00  0.00    -0.021 N
ATOM     34  H8  UNL     1       3.076   6.098   8.825  1.00  0.00     0.203 HD
BRANCH  28  35
HETATM   35  N1  UNL     1       6.036   2.865   6.184  1.00  0.00    -0.225 N
HETATM   36  C1  UNL     1       5.651   1.443   6.258  1.00  0.00     0.168 C
HETATM   37  C2  UNL     1       7.152   3.185   5.337  1.00  0.00     0.168 C
ENDBRANCH  28  35
BRANCH  31  38
HETATM   38  N9  UNL     1       2.022   5.403   6.538  1.00  0.00    -0.213 N
HETATM   39  C23 UNL     1       1.772   5.289   5.122  1.00  0.00     0.167 C
HETATM   40  C24 UNL     1       0.427   4.620   4.865  1.00  0.00     0.188 C
HETATM   41  O3  UNL     1      -0.557   5.055   5.718  1.00  0.00    -0.388 OA
HETATM   42  C25 UNL     1      -0.249   5.019   7.051  1.00  0.00     0.188 C
HETATM   43  C26 UNL     1       0.970   5.887   7.390  1.00  0.00     0.167 C
ENDBRANCH  31  38
ENDBRANCH  24  26
ENDBRANCH  23  24
ENDBRANCH  22  23
ENDBRANCH  21  22
ENDBRANCH  19  21
ENDBRANCH  15  18
ENDBRANCH  11  12
ENDBRANCH   1  11
TORSDOF 10
ENDMDL