MODEL 3
REMARK VINA RESULT: -8.774612048      1.548      1.894
REMARK  8 active torsions:
REMARK  status: ('A' for Active; 'I' for Inactive)
REMARK    1  A    between atoms: N2_12  and  C9_13
REMARK    2  A    between atoms: C9_13  and  C10_14
REMARK    3  A    between atoms: C10_14  and  N3_15
REMARK    4  A    between atoms: N3_15  and  C11_17
REMARK    5  A    between atoms: C18_26  and  S1_27
REMARK    6  A    between atoms: N6_33  and  C19_34
REMARK    7  A    between atoms: C19_34  and  C20_35
REMARK    8  A    between atoms: C20_35  and  N7_36
ROOT
HETATM    1  C11 UNL     1      -1.516   6.455  11.829  1.00  0.00     0.696 A
HETATM    2  N4  UNL     1      -0.409   7.164  12.092  1.00  0.00    -0.173 N
ATOM      3  H4  UNL     1      -0.386   8.045  12.605  1.00  0.00     0.186 HD
HETATM    4  C12 UNL     1       0.685   6.532  11.570  1.00  0.00     0.148 A
HETATM    5  C13 UNL     1       2.004   7.090  11.708  1.00  0.00     0.034 A
HETATM    6  C14 UNL     1       2.216   8.307  12.377  1.00  0.00     0.017 A
HETATM    7  C15 UNL     1       3.451   8.885  12.527  1.00  0.00     0.001 A
HETATM    8  C16 UNL     1       4.547   8.258  12.002  1.00  0.00     0.002 A
HETATM    9  C17 UNL     1       4.373   7.068  11.344  1.00  0.00     0.027 A
HETATM   10  C18 UNL     1       3.101   6.480  11.195  1.00  0.00     0.094 A
HETATM   11  N5  UNL     1       0.192   5.459  11.009  1.00  0.00    -0.268 N
ATOM     12  H5  UNL     1       0.756   4.763  10.522  1.00  0.00     0.189 HD
HETATM   13  N6  UNL     1      -1.105   5.382  11.142  1.00  0.00    -0.121 N
ENDROOT
BRANCH   1  14
HETATM   14  N3  UNL     1      -2.868   6.788  12.213  1.00  0.00    -0.223 N
ATOM     15  H3  UNL     1      -3.458   7.353  11.602  1.00  0.00     0.177 HD
BRANCH  14  16
HETATM   16  C10 UNL     1      -3.360   6.310  13.461  1.00  0.00     0.158 C
BRANCH  16  17
HETATM   17  C9  UNL     1      -4.694   5.627  13.360  1.00  0.00     0.153 C
BRANCH  17  18
HETATM   18  N2  UNL     1      -4.756   4.411  14.128  1.00  0.00    -0.308 N
HETATM   19  C1  UNL     1      -5.838   4.125  14.839  1.00  0.00     0.261 A
HETATM   20  O1  UNL     1      -6.826   4.902  14.858  1.00  0.00    -0.267 OA
HETATM   21  C2  UNL     1      -5.907   2.945  15.590  1.00  0.00     0.059 A
HETATM   22  C3  UNL     1      -7.017   2.625  16.336  1.00  0.00     0.019 A
HETATM   23  C7  UNL     1      -4.825   2.111  15.559  1.00  0.00     0.048 A
HETATM   24  C4  UNL     1      -7.035   1.446  17.064  1.00  0.00     0.001 A
HETATM   25  C5  UNL     1      -5.950   0.586  17.045  1.00  0.00     0.002 A
HETATM   26  C6  UNL     1      -4.862   0.935  16.292  1.00  0.00     0.030 A
HETATM   27  N1  UNL     1      -3.716   2.414  14.824  1.00  0.00    -0.351 N
HETATM   28  C8  UNL     1      -3.725   3.568  14.129  1.00  0.00     0.186 A
ATOM     29  H1  UNL     1      -2.909   1.790  14.802  1.00  0.00     0.166 HD
ENDBRANCH  17  18
ENDBRANCH  16  17
ENDBRANCH  14  16
ENDBRANCH   1  14
BRANCH  13  30
HETATM   30  C19 UNL     1      -1.997   4.327  10.631  1.00  0.00     0.198 C
BRANCH  30  31
HETATM   31  C20 UNL     1      -1.464   2.968  10.985  1.00  0.00     0.295 C
BRANCH  31  32
HETATM   32  N7  UNL     1      -2.561   2.066  11.237  1.00  0.00     0.094 N
HETATM   33  C21 UNL     1      -2.289   0.766  10.611  1.00  0.00     0.298 C
HETATM   34  C22 UNL     1      -3.454  -0.138  10.801  1.00  0.00     0.198 C
HETATM   35  O5  UNL     1      -4.657   0.427  10.374  1.00  0.00    -0.388 OA
HETATM   36  C23 UNL     1      -4.899   1.553  11.141  1.00  0.00     0.198 C
HETATM   37  C24 UNL     1      -3.829   2.588  10.749  1.00  0.00     0.298 C
ENDBRANCH  31  32
ENDBRANCH  30  31
ENDBRANCH  13  30
BRANCH  10  38
HETATM   38  S1  UNL     1       3.058   4.987  10.360  1.00  0.00     0.138 S
HETATM   39  O2  UNL     1       4.489   4.521  10.041  1.00  0.00    -0.591 OA
HETATM   40  O3  UNL     1       2.332   4.986   9.056  1.00  0.00    -0.591 OA
HETATM   41  O4  UNL     1       2.421   3.797  11.357  1.00  0.00    -0.591 OA
ENDBRANCH  10  38
TORSDOF 8
ENDMDL