MODEL 5
REMARK VINA RESULT: -6.904828315      1.681      5.352
REMARK  10 active torsions:
REMARK  status: ('A' for Active; 'I' for Inactive)
REMARK    1  A    between atoms: C3_4  and  C4_5
REMARK    2  A    between atoms: C4_5  and  C5_6
REMARK    3  A    between atoms: C5_6  and  N2_7
REMARK    4  A    between atoms: N2_7  and  C6_9
REMARK    5  A    between atoms: C6_9  and  C7_10
REMARK    6  A    between atoms: C7_10  and  C8_11
REMARK    7  A    between atoms: C8_11  and  C9_12
REMARK    8  A    between atoms: C9_12  and  N3_13
REMARK    9  A    between atoms: N5_21  and  N6_23
REMARK   10  A    between atoms: C15_29  and  N8_30
ROOT
HETATM    1  C6  UNL     1     -15.652 -31.404  13.269  1.00  0.00     0.091 C
HETATM    2  N5  UNL     1     -15.871 -30.834  14.390  1.00  0.00    -0.296 N
ATOM      3  H5  UNL     1     -15.131 -30.814  15.091  1.00  0.00     0.187 HD
ENDROOT
BRANCH   1   4
HETATM    4  N2  UNL     1     -16.694 -31.432  12.285  1.00  0.00    -0.378 N
ATOM      5  H2  UNL     1     -17.640 -31.151  12.543  1.00  0.00     0.160 HD
BRANCH   4   6
HETATM    6  C5  UNL     1     -16.417 -31.854  10.932  1.00  0.00     0.125 C
BRANCH   6   7
HETATM    7  C4  UNL     1     -17.329 -31.208   9.936  1.00  0.00     0.061 C
BRANCH   7   8
HETATM    8  C3  UNL     1     -16.808 -29.958   9.340  1.00  0.00    -0.025 A
HETATM    9  C2  UNL     1     -17.112 -28.685   9.760  1.00  0.00     0.117 A
HETATM   10  N1  UNL     1     -16.604 -27.574   9.155  1.00  0.00    -0.198 N
HETATM   11  C1  UNL     1     -16.974 -26.253   9.657  1.00  0.00     0.174 C
HETATM   12  C15 UNL     1     -15.773 -27.704   8.107  1.00  0.00     0.677 A
HETATM   13  N7  UNL     1     -15.453 -28.934   7.671  1.00  0.00    -0.201 N
HETATM   14  C14 UNL     1     -15.938 -30.047   8.245  1.00  0.00     0.114 A
ATOM     15  H7  UNL     1     -14.821 -29.026   6.875  1.00  0.00     0.183 HD
BRANCH  12  16
HETATM   16  N8  UNL     1     -15.315 -26.626   7.565  1.00  0.00    -0.234 N
ATOM     17  H82 UNL     1     -15.243 -25.741   8.066  1.00  0.00     0.174 HD
ATOM     18  H81 UNL     1     -15.016 -26.674   6.591  1.00  0.00     0.174 HD
ENDBRANCH  12  16
ENDBRANCH   7   8
ENDBRANCH   6   7
ENDBRANCH   4   6
ENDBRANCH   1   4
BRANCH   1  19
HETATM   19  C7  UNL     1     -14.329 -32.017  13.021  1.00  0.00     0.079 C
BRANCH  19  20
HETATM   20  C8  UNL     1     -13.218 -30.993  13.057  1.00  0.00     0.027 C
BRANCH  20  21
HETATM   21  C9  UNL     1     -13.450 -29.947  11.983  1.00  0.00     0.128 C
BRANCH  21  22
HETATM   22  N3  UNL     1     -13.296 -28.612  12.470  1.00  0.00    -0.334 N
HETATM   23  C10 UNL     1     -12.008 -27.958  12.575  1.00  0.00     0.129 C
HETATM   24  C11 UNL     1     -11.956 -27.325  13.955  1.00  0.00     0.040 C
HETATM   25  C12 UNL     1     -12.961 -26.179  13.935  1.00  0.00     0.126 C
HETATM   26  N4  UNL     1     -14.289 -26.655  13.610  1.00  0.00    -0.343 N
HETATM   27  C13 UNL     1     -14.435 -27.867  12.877  1.00  0.00     0.318 C
ATOM     28  H4  UNL     1     -15.112 -26.127  13.902  1.00  0.00     0.164 HD
HETATM   29  O1  UNL     1     -15.572 -28.334  12.557  1.00  0.00    -0.247 OA
ENDBRANCH  21  22
ENDBRANCH  20  21
ENDBRANCH  19  20
ENDBRANCH   1  19
BRANCH   2  30
HETATM   30  N6  UNL     1     -17.100 -30.239  14.678  1.00  0.00    -0.344 N
ATOM     31  H62 UNL     1     -17.150 -29.220  14.697  1.00  0.00     0.176 HD
ATOM     32  H61 UNL     1     -17.933 -30.797  14.866  1.00  0.00     0.176 HD
ENDBRANCH   2  30
TORSDOF 10
ENDMDL