MODEL 3
REMARK VINA RESULT: -6.918229027      0.453      1.611
REMARK  10 active torsions:
REMARK  status: ('A' for Active; 'I' for Inactive)
REMARK    1  A    between atoms: C5_5  and  O1_6
REMARK    2  A    between atoms: N1_9  and  C7_10
REMARK    3  A    between atoms: C7_10  and  C8_11
REMARK    4  A    between atoms: C8_11  and  C9_12
REMARK    5  A    between atoms: C9_12  and  N2_13
REMARK       I    between atoms: N2_13  and  C10_15
REMARK    6  A    between atoms: C10_15  and  C11_17
REMARK    7  A    between atoms: C11_17  and  C12_18
REMARK    8  A    between atoms: C12_18  and  N3_19
REMARK    9  A    between atoms: C14_21  and  N4_22
REMARK   10  A    between atoms: C15_27  and  N6_28
ROOT
HETATM    1  N2  UNL     1     -15.588 -30.564  12.276  1.00  0.00    -0.361 N
ATOM      2  H2  UNL     1     -15.249 -29.692  11.869  1.00  0.00     0.162 HD
HETATM    3  C10 UNL     1     -14.808 -31.171  13.290  1.00  0.00     0.219 C
HETATM    4  O2  UNL     1     -15.228 -32.249  13.786  1.00  0.00    -0.274 OA
ENDROOT
BRANCH   3   5
HETATM    5  C11 UNL     1     -13.524 -30.561  13.762  1.00  0.00     0.124 C
BRANCH   5   6
HETATM    6  C12 UNL     1     -13.833 -29.240  14.407  1.00  0.00     0.158 C
BRANCH   6   7
HETATM    7  N3  UNL     1     -13.339 -28.124  13.664  1.00  0.00    -0.285 N
HETATM    8  C13 UNL     1     -14.224 -27.291  13.043  1.00  0.00     0.159 A
HETATM    9  C14 UNL     1     -13.822 -26.201  12.312  1.00  0.00     0.132 A
HETATM   10  N5  UNL     1     -12.509 -25.955  12.213  1.00  0.00    -0.175 N
HETATM   11  C15 UNL     1     -11.663 -26.790  12.834  1.00  0.00     0.692 A
ATOM     12  H5  UNL     1     -12.163 -25.156  11.681  1.00  0.00     0.186 HD
HETATM   13  N7  UNL     1     -12.054 -27.847  13.543  1.00  0.00    -0.130 N
ATOM     14  H7  UNL     1     -11.360 -28.445  13.992  1.00  0.00     0.206 HD
BRANCH   9  15
HETATM   15  N4  UNL     1     -14.646 -25.403  11.719  1.00  0.00    -0.384 N
ATOM     16  H42 UNL     1     -15.598 -25.727  11.543  1.00  0.00     0.157 HD
ATOM     17  H41 UNL     1     -14.394 -24.463  11.417  1.00  0.00     0.157 HD
ENDBRANCH   9  15
BRANCH  11  18
HETATM   18  N6  UNL     1     -10.407 -26.541  12.729  1.00  0.00    -0.233 N
ATOM     19  H62 UNL     1     -10.112 -25.652  12.324  1.00  0.00     0.174 HD
ATOM     20  H61 UNL     1      -9.760 -27.256  13.061  1.00  0.00     0.174 HD
ENDBRANCH  11  18
ENDBRANCH   6   7
ENDBRANCH   5   6
ENDBRANCH   3   5
BRANCH   1  21
HETATM   21  C9  UNL     1     -16.814 -31.093  11.788  1.00  0.00     0.124 C
BRANCH  21  22
HETATM   22  C8  UNL     1     -17.146 -30.801  10.366  1.00  0.00     0.040 C
BRANCH  22  23
HETATM   23  C7  UNL     1     -16.083 -30.095   9.582  1.00  0.00     0.130 C
BRANCH  23  24
HETATM   24  N1  UNL     1     -16.476 -28.806   9.063  1.00  0.00    -0.358 N
HETATM   25  C2  UNL     1     -16.657 -28.632   7.718  1.00  0.00     0.007 A
HETATM   26  C1  UNL     1     -16.465 -29.729   6.741  1.00  0.00     0.068 C
HETATM   27  C3  UNL     1     -17.040 -27.390   7.203  1.00  0.00     0.027 A
HETATM   28  C4  UNL     1     -17.249 -26.313   7.997  1.00  0.00     0.040 A
HETATM   29  C5  UNL     1     -17.067 -26.491   9.362  1.00  0.00     0.081 A
HETATM   30  C6  UNL     1     -16.689 -27.728   9.839  1.00  0.00     0.127 A
BRANCH  29  31
HETATM   31  O1  UNL     1     -17.270 -25.418  10.220  1.00  0.00    -0.359 OA
ATOM     32  H1  UNL     1     -17.195 -25.552  11.157  1.00  0.00     0.217 HD
ENDBRANCH  29  31
ENDBRANCH  23  24
ENDBRANCH  22  23
ENDBRANCH  21  22
ENDBRANCH   1  21
TORSDOF 10
ENDMDL