MODEL 2
REMARK VINA RESULT: -7.573309586      2.104      2.744
REMARK  7 active torsions:
REMARK  status: ('A' for Active; 'I' for Inactive)
REMARK    1  A    between atoms: C4_9  and  C5_10
REMARK    2  A    between atoms: C10_15  and  C11_16
REMARK    3  A    between atoms: C11_16  and  N3_17
REMARK    4  A    between atoms: N3_17  and  S1_19
REMARK    5  A    between atoms: S1_19  and  N4_22
REMARK    6  A    between atoms: N4_22  and  C12_24
REMARK    7  A    between atoms: C12_24  and  N5_25
ROOT
HETATM    1  C5  UNL     1     -14.030 -28.683  13.437  1.00  0.00    -0.011 A
HETATM    2  C6  UNL     1     -14.147 -29.583  14.477  1.00  0.00     0.013 A
HETATM    3  C7  UNL     1     -15.242 -30.373  14.610  1.00  0.00     0.001 A
HETATM    4  C8  UNL     1     -16.251 -30.270  13.685  1.00  0.00     0.001 A
HETATM    5  C9  UNL     1     -16.141 -29.365  12.633  1.00  0.00     0.010 A
HETATM    6  C10 UNL     1     -15.041 -28.554  12.477  1.00  0.00    -0.029 A
ENDROOT
BRANCH   6   7
HETATM    7  C11 UNL     1     -14.882 -27.574  11.360  1.00  0.00     0.173 C
BRANCH   7   8
HETATM    8  N3  UNL     1     -15.747 -27.994  10.281  1.00  0.00    -0.299 N
ATOM      9  H3  UNL     1     -15.672 -28.887   9.792  1.00  0.00     0.174 HD
BRANCH   8  10
HETATM   10  S1  UNL     1     -16.932 -26.770   9.927  1.00  0.00     0.316 S
HETATM   11  O2  UNL     1     -16.430 -25.461  10.438  1.00  0.00    -0.183 OA
HETATM   12  O3  UNL     1     -18.242 -27.078  10.593  1.00  0.00    -0.183 OA
BRANCH  10  13
HETATM   13  N4  UNL     1     -17.118 -26.738   8.214  1.00  0.00    -0.285 N
ATOM     14  H4  UNL     1     -17.991 -26.565   7.714  1.00  0.00     0.175 HD
BRANCH  13  15
HETATM   15  C12 UNL     1     -15.814 -27.002   7.590  1.00  0.00     0.273 C
BRANCH  15  16
HETATM   16  N5  UNL     1     -14.962 -25.872   7.661  1.00  0.00    -0.324 N
HETATM   17  N6  UNL     1     -14.188 -25.580   6.743  1.00  0.00    -0.348 N
ATOM     18  H62 UNL     1     -14.175 -26.181   5.919  1.00  0.00     0.176 HD
ATOM     19  H61 UNL     1     -13.575 -24.767   6.794  1.00  0.00     0.176 HD
ATOM     20  H5  UNL     1     -14.990 -25.282   8.493  1.00  0.00     0.181 HD
ENDBRANCH  15  16
ENDBRANCH  13  15
ENDBRANCH  10  13
ENDBRANCH   8  10
ENDBRANCH   7   8
ENDBRANCH   6   7
BRANCH   1  21
HETATM   21  C4  UNL     1     -12.866 -27.830  13.279  1.00  0.00     0.068 A
HETATM   22  C2  UNL     1     -12.721 -26.504  13.600  1.00  0.00     0.038 A
HETATM   23  C1  UNL     1     -13.751 -25.615  14.199  1.00  0.00     0.071 C
HETATM   24  N1  UNL     1     -11.451 -26.106  13.279  1.00  0.00    -0.301 N
HETATM   25  N2  UNL     1     -10.834 -27.160  12.774  1.00  0.00    -0.266 N
ATOM     26  H1  UNL     1     -11.057 -25.174  13.405  1.00  0.00     0.186 HD
HETATM   27  C3  UNL     1     -11.665 -28.236  12.756  1.00  0.00     0.272 A
ATOM     28  H2  UNL     1      -9.869 -27.166  12.444  1.00  0.00     0.190 HD
HETATM   29  O1  UNL     1     -11.315 -29.369  12.320  1.00  0.00    -0.266 OA
ENDBRANCH   1  21
TORSDOF 7
ENDMDL