MODEL 1
REMARK VINA RESULT: -6.638144308      0.000      0.000
REMARK  7 active torsions:
REMARK  status: ('A' for Active; 'I' for Inactive)
REMARK    1  A    between atoms: C3_3  and  N1_4
REMARK    2  A    between atoms: C5_6  and  C6_7
REMARK    3  A    between atoms: C7_10  and  C8_11
REMARK    4  A    between atoms: C8_11  and  N3_12
REMARK    5  A    between atoms: N3_12  and  C9_15
REMARK    6  A    between atoms: C9_15  and  C10_16
REMARK    7  A    between atoms: C10_16  and  N4_17
REMARK       I    between atoms: N4_17  and  C11_19
ROOT
HETATM    1  C1  UNL     1     -12.313 -26.157  13.096  1.00  0.00     0.014 C
HETATM    2  C2  UNL     1     -12.249 -27.160  13.771  1.00  0.00    -0.097 C
HETATM    3  C3  UNL     1     -12.157 -28.396  14.577  1.00  0.00     0.225 C
ENDROOT
BRANCH   3   4
HETATM    4  N1  UNL     1     -13.412 -29.143  14.450  1.00  0.00    -0.298 N
HETATM    5  C4  UNL     1     -13.687 -29.726  13.237  1.00  0.00     0.113 A
HETATM    6  C5  UNL     1     -14.839 -30.413  13.102  1.00  0.00     0.039 A
HETATM    7  C14 UNL     1     -15.674 -30.488  14.200  1.00  0.00     0.109 A
HETATM    8  N8  UNL     1     -15.392 -29.922  15.352  1.00  0.00    -0.318 N
HETATM    9  C15 UNL     1     -14.258 -29.246  15.482  1.00  0.00     0.327 A
ATOM     10  H8  UNL     1     -16.038 -30.002  16.137  1.00  0.00     0.170 HD
HETATM   11  O1  UNL     1     -14.010 -28.707  16.609  1.00  0.00    -0.246 OA
BRANCH   6  12
HETATM   12  C6  UNL     1     -15.277 -31.055  11.839  1.00  0.00     0.120 A
HETATM   13  N2  UNL     1     -16.461 -30.773  11.226  1.00  0.00    -0.342 N
HETATM   14  C7  UNL     1     -16.606 -31.461  10.087  1.00  0.00     0.052 A
ATOM     15  H2  UNL     1     -17.152 -30.118  11.591  1.00  0.00     0.167 HD
HETATM   16  C12 UNL     1     -15.472 -32.211   9.965  1.00  0.00     0.118 A
HETATM   17  N7  UNL     1     -14.681 -31.939  11.052  1.00  0.00    -0.345 N
HETATM   18  C13 UNL     1     -13.378 -32.557  11.223  1.00  0.00     0.157 C
BRANCH  14  19
HETATM   19  C8  UNL     1     -17.787 -31.401   9.148  1.00  0.00     0.290 C
BRANCH  19  20
HETATM   20  N3  UNL     1     -18.004 -30.030   8.746  1.00  0.00    -0.068 N
ATOM     21  H32 UNL     1     -18.954 -29.866   8.415  1.00  0.00     0.277 HD
ATOM     22  H31 UNL     1     -18.018 -29.389   9.539  1.00  0.00     0.277 HD
BRANCH  20  23
HETATM   23  C9  UNL     1     -17.010 -29.674   7.766  1.00  0.00     0.252 C
BRANCH  23  24
HETATM   24  C10 UNL     1     -16.543 -28.261   7.914  1.00  0.00     0.150 C
BRANCH  24  25
HETATM   25  N4  UNL     1     -15.785 -28.167   9.138  1.00  0.00    -0.363 N
HETATM   26  C11 UNL     1     -16.287 -27.338  10.165  1.00  0.00     0.181 C
HETATM   27  N5  UNL     1     -15.947 -26.136  10.410  1.00  0.00    -0.374 N
HETATM   28  N6  UNL     1     -17.281 -27.904  11.020  1.00  0.00    -0.064 NA
ATOM     29  H52 UNL     1     -15.237 -25.731   9.799  1.00  0.00     0.158 HD
ATOM     30  H51 UNL     1     -16.310 -25.536  11.151  1.00  0.00     0.158 HD
ATOM     31  H4  UNL     1     -14.914 -28.684   9.259  1.00  0.00     0.162 HD
ENDBRANCH  24  25
ENDBRANCH  23  24
ENDBRANCH  20  23
ENDBRANCH  19  20
ENDBRANCH  14  19
ENDBRANCH   6  12
ENDBRANCH   3   4
TORSDOF 7
ENDMDL