MODEL 1
REMARK VINA RESULT: -7.036907503      0.000      0.000
REMARK  9 active torsions:
REMARK  status: ('A' for Active; 'I' for Inactive)
REMARK    1  A    between atoms: C2_2  and  C3_3
REMARK    2  A    between atoms: C5_10  and  C6_11
REMARK    3  A    between atoms: C6_11  and  C7_12
REMARK    4  A    between atoms: C7_12  and  C8_13
REMARK    5  A    between atoms: C8_13  and  N3_14
REMARK    6  A    between atoms: N3_14  and  S1_16
REMARK    7  A    between atoms: S1_16  and  N4_19
REMARK    8  A    between atoms: N4_19  and  C9_21
REMARK    9  A    between atoms: C9_21  and  C10_22
ROOT
HETATM    1  N3  UNL     1     -12.452 -25.782  11.969  1.00  0.00    -0.303 N
ATOM      2  H3  UNL     1     -12.078 -25.301  11.150  1.00  0.00     0.173 HD
ENDROOT
BRANCH   1   3
HETATM    3  C8  UNL     1     -11.654 -26.176  13.109  1.00  0.00     0.137 C
BRANCH   3   4
HETATM    4  C7  UNL     1     -10.966 -27.470  12.724  1.00  0.00     0.049 C
BRANCH   4   5
HETATM    5  C6  UNL     1     -11.014 -28.449  13.878  1.00  0.00     0.007 C
BRANCH   5   6
HETATM    6  C5  UNL     1     -12.196 -28.712  14.384  1.00  0.00     0.059 A
HETATM    7  C3  UNL     1     -13.098 -29.642  13.933  1.00  0.00     0.057 A
HETATM    8  C4  UNL     1     -14.196 -29.514  14.828  1.00  0.00     0.272 A
HETATM    9  O1  UNL     1     -15.240 -30.199  14.755  1.00  0.00    -0.266 OA
HETATM   10  N1  UNL     1     -13.935 -28.572  15.731  1.00  0.00    -0.265 N
HETATM   11  N2  UNL     1     -12.743 -28.093  15.466  1.00  0.00    -0.297 N
ATOM     12  H1  UNL     1     -14.549 -28.277  16.490  1.00  0.00     0.190 HD
ATOM     13  H2  UNL     1     -12.286 -27.355  16.001  1.00  0.00     0.187 HD
BRANCH   7  14
HETATM   14  C2  UNL     1     -13.073 -30.488  12.945  1.00  0.00    -0.012 C
HETATM   15  C1  UNL     1     -12.868 -31.926  12.997  1.00  0.00     0.037 C
ENDBRANCH   7  14
ENDBRANCH   5   6
ENDBRANCH   4   5
ENDBRANCH   3   4
ENDBRANCH   1   3
BRANCH   1  16
HETATM   16  S1  UNL     1     -14.095 -26.214  12.154  1.00  0.00     0.315 S
HETATM   17  O2  UNL     1     -14.485 -26.261  13.625  1.00  0.00    -0.183 OA
HETATM   18  O3  UNL     1     -14.970 -25.157  11.537  1.00  0.00    -0.183 OA
BRANCH  16  19
HETATM   19  N4  UNL     1     -14.375 -27.760  11.505  1.00  0.00    -0.297 N
ATOM     20  H4  UNL     1     -13.654 -28.481  11.483  1.00  0.00     0.174 HD
BRANCH  19  21
HETATM   21  C9  UNL     1     -15.698 -27.979  10.992  1.00  0.00     0.190 C
BRANCH  21  22
HETATM   22  C10 UNL     1     -15.997 -29.435  11.105  1.00  0.00     0.027 A
HETATM   23  C11 UNL     1     -15.689 -30.424  10.185  1.00  0.00     0.028 A
HETATM   24  C12 UNL     1     -16.124 -31.644  10.640  1.00  0.00     0.019 A
HETATM   25  C13 UNL     1     -16.706 -31.405  11.855  1.00  0.00     0.088 A
HETATM   26  N5  UNL     1     -16.623 -30.073  12.123  1.00  0.00    -0.368 N
ATOM     27  H5  UNL     1     -16.980 -29.622  12.965  1.00  0.00     0.165 HD
ENDBRANCH  21  22
ENDBRANCH  19  21
ENDBRANCH  16  19
ENDBRANCH   1  16
TORSDOF 9
ENDMDL