MODEL 4
REMARK VINA RESULT: -6.395446652      3.873      6.311
REMARK  7 active torsions:
REMARK  status: ('A' for Active; 'I' for Inactive)
REMARK    1  A    between atoms: N2_6  and  C4_8
REMARK    2  A    between atoms: C4_8  and  C5_9
REMARK    3  A    between atoms: C5_9  and  C6_10
REMARK    4  A    between atoms: C6_10  and  N3_11
REMARK       I    between atoms: N3_11  and  C7_13
REMARK       I    between atoms: C7_13  and  N5_17
REMARK    5  A    between atoms: N5_17  and  C8_19
REMARK    6  A    between atoms: C8_19  and  C9_20
REMARK    7  A    between atoms: C9_20  and  O1_21
ROOT
HETATM    1  C1  UNL     1     -15.782 -31.703  10.963  1.00  0.00     0.063 C
HETATM    2  C2  UNL     1     -15.559 -30.416  11.138  1.00  0.00     0.097 A
HETATM    3  N1  UNL     1     -16.333 -29.435  10.647  1.00  0.00    -0.327 N
ATOM      4  H1  UNL     1     -17.172 -29.565  10.081  1.00  0.00     0.169 HD
HETATM    5  C3  UNL     1     -15.822 -28.260  11.021  1.00  0.00     0.134 A
HETATM    6  N2  UNL     1     -16.167 -27.096  10.705  1.00  0.00    -0.354 N
ATOM      7  H2  UNL     1     -15.592 -26.385  11.157  1.00  0.00     0.166 HD
HETATM    8  C11 UNL     1     -14.655 -28.519  11.795  1.00  0.00     0.085 A
HETATM    9  C12 UNL     1     -13.895 -27.540  12.326  1.00  0.00    -0.014 A
HETATM   10  C13 UNL     1     -13.808 -26.137  12.436  1.00  0.00     0.035 A
HETATM   11  C14 UNL     1     -12.839 -26.124  13.240  1.00  0.00     0.015 A
HETATM   12  N6  UNL     1     -11.699 -26.080  14.186  1.00  0.00    -0.391 N
ATOM     13  H6  UNL     1     -11.140 -25.376  14.670  1.00  0.00     0.159 HD
HETATM   14  C15 UNL     1     -11.764 -27.486  14.092  1.00  0.00     0.135 A
HETATM   15  C16 UNL     1     -12.746 -27.628  13.276  1.00  0.00     0.088 A
HETATM   16  N7  UNL     1     -14.545 -29.838  11.831  1.00  0.00    -0.340 N
ATOM     17  H7  UNL     1     -13.804 -30.347  12.313  1.00  0.00     0.167 HD
ENDROOT
BRANCH   6  18
HETATM   18  C4  UNL     1     -17.147 -26.544   9.885  1.00  0.00     0.064 C
BRANCH  18  19
HETATM   19  C5  UNL     1     -17.237 -26.810   8.438  1.00  0.00     0.065 C
BRANCH  19  20
HETATM   20  C6  UNL     1     -16.380 -26.001   7.533  1.00  0.00     0.143 C
BRANCH  20  21
HETATM   21  N3  UNL     1     -14.993 -26.469   7.489  1.00  0.00    -0.227 N
HETATM   22  C7  UNL     1     -14.408 -26.711   6.228  1.00  0.00     0.667 C
HETATM   23  N4  UNL     1     -14.479 -25.778   5.322  1.00  0.00    -0.235 N
HETATM   24  N5  UNL     1     -13.762 -27.893   5.898  1.00  0.00    -0.225 N
ATOM     25  H42 UNL     1     -14.954 -24.909   5.565  1.00  0.00     0.174 HD
ATOM     26  H41 UNL     1     -14.056 -25.953   4.411  1.00  0.00     0.174 HD
ATOM     27  H5  UNL     1     -14.220 -28.797   6.020  1.00  0.00     0.177 HD
ATOM     28  H3  UNL     1     -14.464 -26.617   8.348  1.00  0.00     0.177 HD
BRANCH  24  29
HETATM   29  C8  UNL     1     -12.385 -27.798   5.362  1.00  0.00     0.164 C
BRANCH  29  30
HETATM   30  C9  UNL     1     -11.776 -29.159   5.471  1.00  0.00     0.187 C
BRANCH  30  31
HETATM   31  O1  UNL     1     -10.462 -29.140   5.920  1.00  0.00    -0.394 OA
HETATM   32  C10 UNL     1     -10.113 -30.284   6.594  1.00  0.00     0.201 C
ENDBRANCH  30  31
ENDBRANCH  29  30
ENDBRANCH  24  29
ENDBRANCH  20  21
ENDBRANCH  19  20
ENDBRANCH  18  19
ENDBRANCH   6  18
TORSDOF 7
ENDMDL