MODEL 5
REMARK VINA RESULT: -7.544771272      2.111      5.231
REMARK  7 active torsions:
REMARK  status: ('A' for Active; 'I' for Inactive)
REMARK    1  A    between atoms: N1_1  and  C1_4
REMARK    2  A    between atoms: C3_6  and  C4_7
REMARK    3  A    between atoms: C4_7  and  C5_8
REMARK    4  A    between atoms: C5_8  and  C6_9
REMARK    5  A    between atoms: C9_12  and  C10_13
REMARK    6  A    between atoms: C10_13  and  C11_14
REMARK    7  A    between atoms: C11_14  and  N2_15
ROOT
HETATM    1  C6  UNL     1     -14.574 -31.488  12.432  1.00  0.00     0.023 A
HETATM    2  C7  UNL     1     -15.030 -31.186  11.225  1.00  0.00     0.003 A
HETATM    3  C8  UNL     1     -15.917 -30.178  10.827  1.00  0.00     0.021 A
HETATM    4  C9  UNL     1     -16.265 -30.035   9.501  1.00  0.00    -0.056 A
HETATM    5  C13 UNL     1     -15.744 -30.884   8.546  1.00  0.00     0.009 A
HETATM    6  C14 UNL     1     -14.872 -31.870   8.952  1.00  0.00     0.031 A
HETATM    7  C15 UNL     1     -14.503 -32.040  10.281  1.00  0.00     0.046 A
HETATM    8  N5  UNL     1     -13.700 -32.903  10.859  1.00  0.00    -0.322 N
ATOM      9  H5  UNL     1     -13.180 -33.644  10.389  1.00  0.00     0.169 HD
HETATM   10  C16 UNL     1     -13.684 -32.625  12.249  1.00  0.00     0.253 A
HETATM   11  O1  UNL     1     -13.030 -33.235  13.161  1.00  0.00    -0.268 OA
ENDROOT
BRANCH   1  12
HETATM   12  C5  UNL     1     -14.901 -30.813  13.696  1.00  0.00     0.051 C
BRANCH  12  13
HETATM   13  C4  UNL     1     -13.653 -30.110  14.221  1.00  0.00     0.063 C
BRANCH  13  14
HETATM   14  C3  UNL     1     -13.649 -28.688  13.729  1.00  0.00     0.029 A
HETATM   15  C2  UNL     1     -12.626 -28.034  13.067  1.00  0.00     0.075 A
HETATM   16  C1  UNL     1     -13.024 -26.722  12.783  1.00  0.00     0.115 A
HETATM   17  N7  UNL     1     -14.266 -26.635  13.281  1.00  0.00    -0.286 N
HETATM   18  N6  UNL     1     -14.634 -27.781  13.835  1.00  0.00    -0.303 N
ATOM     19  H7  UNL     1     -14.848 -25.798  13.240  1.00  0.00     0.188 HD
ATOM     20  H6  UNL     1     -15.537 -27.951  14.279  1.00  0.00     0.186 HD
BRANCH  16  21
HETATM   21  N1  UNL     1     -12.352 -25.805  12.179  1.00  0.00    -0.384 N
ATOM     22  H12 UNL     1     -11.625 -25.926  11.474  1.00  0.00     0.157 HD
ATOM     23  H11 UNL     1     -12.424 -24.794  12.298  1.00  0.00     0.157 HD
ENDBRANCH  16  21
ENDBRANCH  13  14
ENDBRANCH  12  13
ENDBRANCH   1  12
BRANCH   4  24
HETATM   24  C10 UNL     1     -17.215 -28.951   9.095  1.00  0.00     0.058 C
BRANCH  24  25
HETATM   25  C11 UNL     1     -16.410 -27.891   8.359  1.00  0.00     0.126 C
BRANCH  25  26
HETATM   26  N2  UNL     1     -15.645 -27.106   9.283  1.00  0.00    -0.367 N
HETATM   27  C12 UNL     1     -16.147 -26.152   9.980  1.00  0.00     0.196 C
HETATM   28  N3  UNL     1     -17.518 -25.807   9.876  1.00  0.00    -0.067 NA
HETATM   29  N4  UNL     1     -15.333 -25.416  10.875  1.00  0.00    -0.067 NA
ATOM     30  H2  UNL     1     -14.654 -27.316   9.393  1.00  0.00     0.161 HD
ENDBRANCH  25  26
ENDBRANCH  24  25
ENDBRANCH   4  24
TORSDOF 7
ENDMDL