MODEL 3
REMARK VINA RESULT: -6.272571690      1.826      2.916
REMARK  12 active torsions:
REMARK  status: ('A' for Active; 'I' for Inactive)
REMARK    1  A    between atoms: C4_5  and  C5_6
REMARK    2  A    between atoms: C5_6  and  N5_19
REMARK    3  A    between atoms: N2_7  and  C6_9
REMARK    4  A    between atoms: C6_9  and  N3_10
REMARK    5  A    between atoms: C6_9  and  C7_14
REMARK    6  A    between atoms: C7_14  and  N4_15
REMARK    7  A    between atoms: N5_19  and  C8_21
REMARK    8  A    between atoms: C8_21  and  C9_22
REMARK    9  A    between atoms: C9_22  and  C10_23
REMARK   10  A    between atoms: C10_23  and  C11_24
REMARK   11  A    between atoms: C11_24  and  N6_25
REMARK   12  A    between atoms: C13_29  and  N8_30
ROOT
HETATM    1  C5  UNL     1     -14.902 -30.163  13.485  1.00  0.00     0.109 C
HETATM    2  N2  UNL     1     -15.357 -29.660  14.587  1.00  0.00    -0.347 N
ATOM      3  H2  UNL     1     -16.255 -29.178  14.554  1.00  0.00     0.163 HD
ENDROOT
BRANCH   1   4
HETATM    4  C4  UNL     1     -15.659 -30.039  12.235  1.00  0.00     0.010 A
HETATM    5  C3  UNL     1     -15.795 -28.833  11.584  1.00  0.00     0.032 A
HETATM    6  C2  UNL     1     -16.516 -28.754  10.407  1.00  0.00     0.091 A
HETATM    7  N1  UNL     1     -17.110 -29.819   9.841  1.00  0.00    -0.371 N
HETATM    8  C1  UNL     1     -17.860 -29.680   8.595  1.00  0.00     0.154 C
HETATM    9  C15 UNL     1     -16.984 -31.002  10.466  1.00  0.00     0.091 A
HETATM   10  C14 UNL     1     -16.271 -31.124  11.647  1.00  0.00     0.032 A
ENDBRANCH   1   4
BRANCH   1  11
HETATM   11  N5  UNL     1     -13.656 -30.833  13.528  1.00  0.00    -0.376 N
ATOM     12  H5  UNL     1     -13.574 -31.713  14.038  1.00  0.00     0.161 HD
BRANCH  11  13
HETATM   13  C8  UNL     1     -12.500 -30.286  12.861  1.00  0.00     0.121 C
BRANCH  13  14
HETATM   14  C9  UNL     1     -11.314 -30.241  13.768  1.00  0.00     0.021 C
BRANCH  14  15
HETATM   15  C10 UNL     1     -10.606 -28.924  13.684  1.00  0.00     0.023 C
BRANCH  15  16
HETATM   16  C11 UNL     1     -11.329 -27.832  14.441  1.00  0.00     0.150 C
BRANCH  16  17
HETATM   17  N6  UNL     1     -11.962 -26.955  13.481  1.00  0.00    -0.273 N
HETATM   18  C12 UNL     1     -11.344 -26.191  12.566  1.00  0.00     0.218 A
HETATM   19  N7  UNL     1     -12.314 -25.535  11.883  1.00  0.00    -0.185 N
HETATM   20  C13 UNL     1     -13.508 -25.901  12.381  1.00  0.00     0.691 A
ATOM     21  H7  UNL     1     -12.164 -24.875  11.120  1.00  0.00     0.185 HD
HETATM   22  N9  UNL     1     -13.267 -26.791  13.381  1.00  0.00    -0.129 N
ATOM     23  H9  UNL     1     -13.974 -27.252  13.954  1.00  0.00     0.206 HD
BRANCH  20  24
HETATM   24  N8  UNL     1     -14.683 -25.516  12.018  1.00  0.00    -0.233 N
ATOM     25  H82 UNL     1     -15.398 -25.170  12.658  1.00  0.00     0.174 HD
ATOM     26  H81 UNL     1     -15.083 -25.491  11.080  1.00  0.00     0.174 HD
ENDBRANCH  20  24
ENDBRANCH  16  17
ENDBRANCH  15  16
ENDBRANCH  14  15
ENDBRANCH  13  14
ENDBRANCH  11  13
ENDBRANCH   1  11
BRANCH   2  27
HETATM   27  C6  UNL     1     -14.687 -29.734  15.850  1.00  0.00     0.308 C
BRANCH  27  28
HETATM   28  N3  UNL     1     -15.510 -30.175  16.941  1.00  0.00    -0.057 N
ATOM     29  H33 UNL     1     -16.495 -30.118  16.686  1.00  0.00     0.276 HD
ATOM     30  H32 UNL     1     -15.419 -31.183  17.068  1.00  0.00     0.276 HD
ATOM     31  H31 UNL     1     -15.343 -29.690  17.823  1.00  0.00     0.276 HD
ENDBRANCH  27  28
BRANCH  27  32
HETATM   32  C7  UNL     1     -14.030 -28.400  16.151  1.00  0.00     0.283 C
BRANCH  32  33
HETATM   33  N4  UNL     1     -13.523 -28.342  17.499  1.00  0.00    -0.076 N
ATOM     34  H43 UNL     1     -13.115 -29.234  17.780  1.00  0.00     0.274 HD
ATOM     35  H42 UNL     1     -12.689 -27.758  17.557  1.00  0.00     0.274 HD
ATOM     36  H41 UNL     1     -14.236 -28.035  18.160  1.00  0.00     0.274 HD
ENDBRANCH  32  33
ENDBRANCH  27  32
ENDBRANCH   2  27
TORSDOF 12
ENDMDL