MODEL 2
REMARK VINA RESULT: -6.582241118      2.458      3.399
REMARK  11 active torsions:
REMARK  status: ('A' for Active; 'I' for Inactive)
REMARK    1  A    between atoms: N1_1  and  C1_4
REMARK    2  A    between atoms: C2_7  and  C3_8
REMARK    3  A    between atoms: C3_8  and  C4_9
REMARK    4  A    between atoms: C4_9  and  C5_10
REMARK    5  A    between atoms: C5_10  and  C6_11
REMARK    6  A    between atoms: C6_11  and  C7_12
REMARK    7  A    between atoms: C7_12  and  C8_13
REMARK    8  A    between atoms: C8_13  and  C9_14
REMARK    9  A    between atoms: C9_14  and  O1_15
REMARK   10  A    between atoms: C10_17  and  C11_18
REMARK   11  A    between atoms: C11_18  and  N3_19
ROOT
HETATM    1  C1  UNL     1     -15.233 -30.325  14.757  1.00  0.00     0.676 A
HETATM    2  N2  UNL     1     -14.056 -29.727  14.540  1.00  0.00    -0.190 N
ATOM      3  H2  UNL     1     -13.676 -28.951  15.081  1.00  0.00     0.184 HD
HETATM    4  C2  UNL     1     -13.447 -30.329  13.476  1.00  0.00     0.074 A
HETATM    5  C10 UNL     1     -14.292 -31.325  13.038  1.00  0.00     0.091 A
HETATM    6  N5  UNL     1     -15.368 -31.293  13.842  1.00  0.00    -0.189 N
ATOM      7  H5  UNL     1     -16.172 -31.915  13.766  1.00  0.00     0.184 HD
ENDROOT
BRANCH   5   8
HETATM    8  C11 UNL     1     -14.109 -32.155  12.039  1.00  0.00     0.119 C
BRANCH   8   9
HETATM    9  N3  UNL     1     -14.785 -32.016  10.797  1.00  0.00    -0.373 N
HETATM   10  C12 UNL     1     -14.388 -31.733   9.432  1.00  0.00     0.134 C
HETATM   11  C13 UNL     1     -15.640 -32.446   8.976  1.00  0.00     0.059 C
HETATM   12  C14 UNL     1     -16.298 -31.786   7.848  1.00  0.00    -0.001 C
HETATM   13  C17 UNL     1     -16.151 -32.091  10.326  1.00  0.00     0.185 C
HETATM   14  C15 UNL     1     -17.142 -30.774   7.940  1.00  0.00     0.087 C
HETATM   15  N4  UNL     1     -17.485 -30.230   9.210  1.00  0.00    -0.336 N
HETATM   16  C16 UNL     1     -16.896 -30.807  10.350  1.00  0.00     0.245 C
ATOM     17  H4  UNL     1     -18.137 -29.449   9.291  1.00  0.00     0.168 HD
HETATM   18  O2  UNL     1     -16.998 -30.214  11.453  1.00  0.00    -0.271 OA
ENDBRANCH   8   9
ENDBRANCH   5   8
BRANCH   4  19
HETATM   19  C3  UNL     1     -12.278 -30.054  12.929  1.00  0.00     0.006 C
BRANCH  19  20
HETATM   20  C4  UNL     1     -11.060 -29.872  13.745  1.00  0.00     0.029 C
BRANCH  20  21
HETATM   21  C5  UNL     1     -10.765 -28.395  14.017  1.00  0.00     0.004 C
BRANCH  21  22
HETATM   22  C6  UNL     1     -10.918 -27.628  12.736  1.00  0.00     0.000 C
BRANCH  22  23
HETATM   23  C7  UNL     1     -11.627 -26.327  12.902  1.00  0.00     0.002 C
BRANCH  23  24
HETATM   24  C8  UNL     1     -13.119 -26.436  12.720  1.00  0.00     0.026 C
BRANCH  24  25
HETATM   25  C9  UNL     1     -13.837 -25.927  13.940  1.00  0.00     0.164 C
BRANCH  25  26
HETATM   26  O1  UNL     1     -13.870 -26.941  14.924  1.00  0.00    -0.401 OA
ATOM     27  H1  UNL     1     -13.319 -26.690  15.656  1.00  0.00     0.209 HD
ENDBRANCH  25  26
ENDBRANCH  24  25
ENDBRANCH  23  24
ENDBRANCH  22  23
ENDBRANCH  21  22
ENDBRANCH  20  21
ENDBRANCH  19  20
ENDBRANCH   4  19
BRANCH   1  28
HETATM   28  N1  UNL     1     -16.075 -30.032  15.666  1.00  0.00    -0.234 N
ATOM     29  H12 UNL     1     -16.143 -29.139  16.155  1.00  0.00     0.174 HD
ATOM     30  H11 UNL     1     -16.802 -30.643  16.038  1.00  0.00     0.174 HD
ENDBRANCH   1  28
TORSDOF 11
ENDMDL