MODEL 4
REMARK VINA RESULT: -6.993089096      3.326      4.829
REMARK  9 active torsions:
REMARK  status: ('A' for Active; 'I' for Inactive)
REMARK    1  A    between atoms: O1_2  and  C2_3
REMARK    2  A    between atoms: C2_3  and  C3_4
REMARK    3  A    between atoms: N1_7  and  C6_8
REMARK    4  A    between atoms: C6_8  and  C7_9
REMARK    5  A    between atoms: C7_9  and  C8_10
REMARK    6  A    between atoms: C8_10  and  N2_11
REMARK       I    between atoms: N2_11  and  C9_13
REMARK    7  A    between atoms: N4_15  and  C10_17
REMARK    8  A    between atoms: C11_20  and  N6_21
REMARK    9  A    between atoms: N8_26  and  O2_27
ROOT
HETATM    1  N2  UNL     1     -14.900 -27.883  11.247  1.00  0.00    -0.364 N
ATOM      2  H2  UNL     1     -13.955 -28.265  11.280  1.00  0.00     0.162 HD
HETATM    3  C9  UNL     1     -15.072 -26.476  11.196  1.00  0.00     0.202 C
HETATM    4  N3  UNL     1     -16.090 -25.933  10.397  1.00  0.00    -0.063 NA
HETATM    5  N4  UNL     1     -14.291 -25.730  11.880  1.00  0.00    -0.160 N
ATOM      6  H4  UNL     1     -14.406 -24.717  11.851  1.00  0.00     0.187 HD
ENDROOT
BRANCH   1   7
HETATM    7  C8  UNL     1     -16.022 -28.789  11.252  1.00  0.00     0.124 C
BRANCH   7   8
HETATM    8  C7  UNL     1     -15.882 -29.754  10.112  1.00  0.00     0.040 C
BRANCH   8   9
HETATM    9  C6  UNL     1     -17.184 -29.821   9.345  1.00  0.00     0.129 C
BRANCH   9  10
HETATM   10  N1  UNL     1     -17.179 -28.741   8.362  1.00  0.00    -0.366 N
HETATM   11  C5  UNL     1     -16.148 -28.507   7.540  1.00  0.00     0.091 A
HETATM   12  C4  UNL     1     -16.188 -27.477   6.632  1.00  0.00     0.026 A
HETATM   13  C3  UNL     1     -17.292 -26.657   6.540  1.00  0.00    -0.032 A
HETATM   14  C13 UNL     1     -18.338 -26.938   7.413  1.00  0.00     0.026 A
HETATM   15  C12 UNL     1     -18.270 -27.965   8.305  1.00  0.00     0.091 A
BRANCH  13  16
HETATM   16  C2  UNL     1     -17.336 -25.544   5.573  1.00  0.00     0.205 C
BRANCH  16  17
HETATM   17  O1  UNL     1     -16.114 -25.198   5.028  1.00  0.00    -0.391 OA
HETATM   18  C1  UNL     1     -15.691 -23.998   5.578  1.00  0.00     0.201 C
ENDBRANCH  16  17
ENDBRANCH  13  16
ENDBRANCH   9  10
ENDBRANCH   8   9
ENDBRANCH   7   8
ENDBRANCH   1   7
BRANCH   5  19
HETATM   19  C10 UNL     1     -13.265 -26.299  12.682  1.00  0.00     0.741 A
HETATM   20  N5  UNL     1     -13.367 -27.134  13.725  1.00  0.00    -0.018 N
HETATM   21  C11 UNL     1     -12.157 -27.449  14.221  1.00  0.00     0.707 A
ATOM     22  H5  UNL     1     -14.250 -27.486  14.096  1.00  0.00     0.203 HD
HETATM   23  N7  UNL     1     -11.279 -26.778  13.446  1.00  0.00    -0.090 N
HETATM   24  N8  UNL     1     -11.927 -26.087  12.524  1.00  0.00     0.031 N
ATOM     25  H7  UNL     1     -10.265 -26.800  13.556  1.00  0.00     0.209 HD
BRANCH  21  26
HETATM   26  N6  UNL     1     -11.886 -28.228  15.225  1.00  0.00    -0.233 N
ATOM     27  H62 UNL     1     -11.744 -27.956  16.198  1.00  0.00     0.174 HD
ATOM     28  H61 UNL     1     -11.767 -29.241  15.215  1.00  0.00     0.174 HD
ENDBRANCH  21  26
BRANCH  24  29
HETATM   29  O2  UNL     1     -11.414 -25.276  11.544  1.00  0.00    -0.254 OA
ATOM     30  H2  UNL     1     -11.028 -24.427  11.727  1.00  0.00     0.247 HD
ENDBRANCH  24  29
ENDBRANCH   5  19
TORSDOF 9
ENDMDL