MODEL 3
REMARK VINA RESULT: -6.290971232      1.703      5.318
REMARK  2 active torsions:
REMARK  status: ('A' for Active; 'I' for Inactive)
REMARK    1  A    between atoms: C7_13  and  N4_14
REMARK    2  A    between atoms: N4_14  and  N5_16
ROOT
HETATM    1  C1  UNL     1     -23.151 -29.181  -2.065  1.00  0.00     0.040 C
HETATM    2  C2  UNL     1     -23.852 -27.888  -1.717  1.00  0.00     0.141 C
HETATM    3  N1  UNL     1     -23.343 -27.232  -0.560  1.00  0.00    -0.409 N
ATOM      4  H1  UNL     1     -23.645 -26.288  -0.318  1.00  0.00     0.154 HD
HETATM    5  C3  UNL     1     -22.406 -27.925   0.243  1.00  0.00     0.133 C
HETATM    6  C4  UNL     1     -22.865 -28.138   1.652  1.00  0.00     0.133 C
HETATM    7  N2  UNL     1     -23.955 -27.342   2.074  1.00  0.00    -0.418 N
ATOM      8  H2  UNL     1     -23.844 -26.674   2.835  1.00  0.00     0.153 HD
HETATM    9  C5  UNL     1     -25.201 -27.487   1.423  1.00  0.00     0.133 C
HETATM   10  C6  UNL     1     -25.419 -28.736   0.636  1.00  0.00     0.140 C
HETATM   11  N3  UNL     1     -25.956 -28.430  -0.670  1.00  0.00    -0.375 N
ATOM     12  H3  UNL     1     -26.966 -28.518  -0.773  1.00  0.00     0.160 HD
HETATM   13  C7  UNL     1     -25.323 -28.066  -1.697  1.00  0.00     0.114 C
ENDROOT
BRANCH  13  14
HETATM   14  N4  UNL     1     -26.023 -27.810  -2.909  1.00  0.00    -0.285 N
ATOM     15  H4  UNL     1     -26.279 -28.565  -3.545  1.00  0.00     0.188 HD
BRANCH  14  16
HETATM   16  N5  UNL     1     -26.344 -26.476  -3.191  1.00  0.00    -0.275 N
HETATM   17  C8  UNL     1     -26.061 -26.016  -4.369  1.00  0.00     0.215 C
HETATM   18  N6  UNL     1     -25.435 -26.844  -5.368  1.00  0.00    -0.065 NA
HETATM   19  N7  UNL     1     -26.352 -24.685  -4.731  1.00  0.00    -0.065 NA
ATOM     20  H5  UNL     1     -26.789 -25.883  -2.489  1.00  0.00     0.189 HD
ENDBRANCH  14  16
ENDBRANCH  13  14
TORSDOF 2
ENDMDL