MODEL 4
REMARK VINA RESULT: -6.099789162      1.575      1.854
REMARK  4 active torsions:
REMARK  status: ('A' for Active; 'I' for Inactive)
REMARK    1  A    between atoms: C2_2  and  N1_3
REMARK    2  A    between atoms: C3_5  and  C4_7
REMARK    3  A    between atoms: C5_8  and  C6_9
REMARK    4  A    between atoms: C6_9  and  O1_10
ROOT
HETATM    1  C6  UNL     1     -23.679 -27.983   1.497  1.00  0.00     0.299 C
HETATM    2  N3  UNL     1     -22.339 -28.553   1.506  1.00  0.00    -0.065 NA
HETATM    3  N4  UNL     1     -22.285 -29.354   2.648  1.00  0.00    -0.272 N
ATOM      4  H4  UNL     1     -21.421 -29.709   3.056  1.00  0.00     0.185 HD
HETATM    5  C7  UNL     1     -23.460 -29.590   3.125  1.00  0.00     0.204 C
HETATM    6  N5  UNL     1     -23.704 -30.381   4.289  1.00  0.00    -0.062 NA
HETATM    7  N6  UNL     1     -24.393 -28.934   2.288  1.00  0.00    -0.306 N
ATOM      8  H6  UNL     1     -25.397 -29.110   2.255  1.00  0.00     0.167 HD
ENDROOT
BRANCH   1   9
HETATM    9  C5  UNL     1     -24.260 -27.945   0.169  1.00  0.00    -0.017 C
HETATM   10  C4  UNL     1     -24.737 -27.893  -0.938  1.00  0.00    -0.027 C
BRANCH  10  11
HETATM   11  C3  UNL     1     -25.310 -27.806  -2.272  1.00  0.00     0.167 C
HETATM   12  N1  UNL     1     -25.698 -26.652  -2.698  1.00  0.00    -0.372 N
ATOM     13  H1  UNL     1     -25.602 -25.826  -2.107  1.00  0.00     0.161 HD
HETATM   14  N2  UNL     1     -25.419 -28.992  -3.051  1.00  0.00    -0.073 NA
BRANCH  12  15
HETATM   15  C2  UNL     1     -26.271 -26.543  -4.021  1.00  0.00     0.117 C
HETATM   16  C1  UNL     1     -25.475 -25.598  -4.890  1.00  0.00     0.026 C
ENDBRANCH  12  15
ENDBRANCH  10  11
ENDBRANCH   1   9
BRANCH   1  17
HETATM   17  O1  UNL     1     -23.725 -26.757   2.139  1.00  0.00    -0.346 OA
ATOM     18  H1  UNL     1     -23.861 -26.836   3.077  1.00  0.00     0.215 HD
ENDBRANCH   1  17
TORSDOF 4
ENDMDL