MODEL 1
REMARK VINA RESULT: -7.487492442      0.000      0.000
REMARK  2 active torsions:
REMARK  status: ('A' for Active; 'I' for Inactive)
REMARK    1  A    between atoms: N2_3  and  C2_5
REMARK    2  A    between atoms: C4_12  and  N5_13
REMARK       I    between atoms: N5_13  and  C5_15
REMARK       I    between atoms: C5_15  and  N6_16
REMARK       I    between atoms: C5_15  and  N7_20
ROOT
HETATM    1  N1  UNL     1     -26.671 -28.497   2.000  1.00  0.00    -0.171 NA
HETATM    2  C1  UNL     1     -25.663 -28.008   1.712  1.00  0.00     0.196 C
HETATM    3  N2  UNL     1     -24.461 -27.434   1.356  1.00  0.00    -0.125 N
ATOM      4  H2  UNL     1     -23.793 -27.156   2.075  1.00  0.00     0.197 HD
ENDROOT
BRANCH   3   5
HETATM    5  C2  UNL     1     -24.187 -27.250   0.118  1.00  0.00     0.709 A
HETATM    6  N3  UNL     1     -22.917 -27.378  -0.285  1.00  0.00    -0.139 N
HETATM    7  C3  UNL     1     -22.611 -27.188  -1.582  1.00  0.00     0.352 A
ATOM      8  H3  UNL     1     -22.187 -27.618   0.386  1.00  0.00     0.189 HD
HETATM    9  O1  UNL     1     -21.409 -27.316  -1.926  1.00  0.00    -0.246 OA
HETATM   10  N4  UNL     1     -23.599 -26.871  -2.448  1.00  0.00    -0.140 N
HETATM   11  C4  UNL     1     -24.878 -26.737  -2.071  1.00  0.00     0.699 A
ATOM     12  H4  UNL     1     -23.361 -26.728  -3.430  1.00  0.00     0.189 HD
HETATM   13  N8  UNL     1     -25.164 -26.929  -0.773  1.00  0.00    -0.021 N
ATOM     14  H8  UNL     1     -26.127 -26.834  -0.451  1.00  0.00     0.203 HD
BRANCH  11  15
HETATM   15  N5  UNL     1     -25.761 -26.435  -2.940  1.00  0.00    -0.173 N
HETATM   16  C5  UNL     1     -25.722 -25.359  -3.868  1.00  0.00     0.494 C
HETATM   17  N6  UNL     1     -26.471 -25.746  -5.048  1.00  0.00    -0.032 N
HETATM   18  N7  UNL     1     -26.192 -24.118  -3.301  1.00  0.00    -0.032 N
ATOM     19  H63 UNL     1     -26.142 -26.623  -5.452  1.00  0.00     0.278 HD
ATOM     20  H62 UNL     1     -27.422 -26.041  -4.830  1.00  0.00     0.278 HD
ATOM     21  H61 UNL     1     -26.443 -24.974  -5.714  1.00  0.00     0.278 HD
ATOM     22  H73 UNL     1     -27.126 -24.226  -2.906  1.00  0.00     0.278 HD
ATOM     23  H72 UNL     1     -25.679 -23.886  -2.451  1.00  0.00     0.278 HD
ATOM     24  H71 UNL     1     -26.164 -23.345  -3.966  1.00  0.00     0.278 HD
ATOM     25  H5  UNL     1     -26.586 -27.033  -2.972  1.00  0.00     0.181 HD
ENDBRANCH  11  15
ENDBRANCH   3   5
TORSDOF 2
ENDMDL