MODEL 5
REMARK VINA RESULT: -5.838806914      2.530      3.531
REMARK  4 active torsions:
REMARK  status: ('A' for Active; 'I' for Inactive)
REMARK    1  A    between atoms: C2_2  and  O1_3
REMARK    2  A    between atoms: C4_8  and  N2_9
REMARK    3  A    between atoms: C5_15  and  N5_18
REMARK    4  A    between atoms: N5_18  and  O2_19
ROOT
HETATM    1  C1  UNL     1     -23.716 -26.821  -2.553  1.00  0.00     0.076 C
HETATM    2  C2  UNL     1     -24.948 -27.293  -1.765  1.00  0.00     0.184 C
HETATM    3  N1  UNL     1     -24.963 -26.503  -0.564  1.00  0.00    -0.364 N
ATOM      4  H1  UNL     1     -25.160 -25.507  -0.660  1.00  0.00     0.161 HD
HETATM    5  C3  UNL     1     -24.754 -26.944   0.595  1.00  0.00     0.112 C
HETATM    6  C4  UNL     1     -24.464 -28.368   0.816  1.00  0.00     0.319 C
HETATM    7  N3  UNL     1     -25.150 -29.150  -0.164  1.00  0.00    -0.352 N
ATOM      8  H3  UNL     1     -25.758 -29.930   0.085  1.00  0.00     0.158 HD
HETATM    9  C5  UNL     1     -24.919 -28.757  -1.518  1.00  0.00     0.265 C
HETATM   10  C6  UNL     1     -23.606 -29.312  -1.912  1.00  0.00     0.116 C
HETATM   11  N4  UNL     1     -22.580 -29.760  -2.216  1.00  0.00    -0.193 NA
ENDROOT
BRANCH   9  12
HETATM   12  N5  UNL     1     -25.946 -29.392  -2.339  1.00  0.00    -0.050 NA
BRANCH  12  13
HETATM   13  O2  UNL     1     -25.445 -29.719  -3.533  1.00  0.00    -0.293 OA
ATOM     14  H2  UNL     1     -25.287 -30.656  -3.578  1.00  0.00     0.238 HD
ENDBRANCH  12  13
ENDBRANCH   9  12
BRANCH   2  15
HETATM   15  O1  UNL     1     -26.041 -26.870  -2.527  1.00  0.00    -0.367 OA
ATOM     16  H1  UNL     1     -26.723 -27.506  -2.344  1.00  0.00     0.212 HD
ENDBRANCH   2  15
BRANCH   6  17
HETATM   17  N2  UNL     1     -23.047 -28.660   0.884  1.00  0.00    -0.054 N
ATOM     18  H23 UNL     1     -22.648 -28.741  -0.052  1.00  0.00     0.277 HD
ATOM     19  H22 UNL     1     -22.526 -27.849   1.219  1.00  0.00     0.277 HD
ATOM     20  H21 UNL     1     -22.832 -29.486   1.442  1.00  0.00     0.277 HD
ENDBRANCH   6  17
TORSDOF 4
ENDMDL