MODEL 2
REMARK VINA RESULT: -6.497318290      1.102      1.169
REMARK  2 active torsions:
REMARK  status: ('A' for Active; 'I' for Inactive)
REMARK       I    between atoms: C2_5  and  N3_6
REMARK       I    between atoms: C2_5  and  N7_15
REMARK       I    between atoms: N3_6  and  C3_8
REMARK    1  A    between atoms: N5_10  and  N6_12
REMARK    2  A    between atoms: N7_15  and  N8_17
ROOT
HETATM    1  N1  UNL     1     -21.704 -27.107  -0.353  1.00  0.00    -0.171 NA
HETATM    2  C1  UNL     1     -22.587 -27.384   0.370  1.00  0.00     0.196 C
HETATM    3  N2  UNL     1     -23.643 -27.690   1.240  1.00  0.00    -0.124 N
ATOM      4  H2  UNL     1     -23.630 -27.324   2.191  1.00  0.00     0.197 HD
HETATM    5  C2  UNL     1     -24.622 -28.420   0.862  1.00  0.00     0.713 C
HETATM    6  N3  UNL     1     -24.655 -28.933  -0.449  1.00  0.00    -0.160 N
ATOM      7  H3  UNL     1     -24.557 -29.941  -0.571  1.00  0.00     0.187 HD
HETATM    8  C3  UNL     1     -24.815 -28.141  -1.601  1.00  0.00     0.221 C
HETATM    9  N4  UNL     1     -24.306 -28.583  -2.847  1.00  0.00    -0.061 NA
HETATM   10  N5  UNL     1     -25.422 -27.003  -1.570  1.00  0.00    -0.280 N
ATOM     11  H5  UNL     1     -25.794 -26.673  -0.680  1.00  0.00     0.189 HD
HETATM   12  N7  UNL     1     -25.677 -28.717   1.755  1.00  0.00    -0.071 N
ATOM     13  H7  UNL     1     -25.582 -28.442   2.732  1.00  0.00     0.212 HD
ENDROOT
BRANCH  12  14
HETATM   14  N8  UNL     1     -26.837 -29.368   1.357  1.00  0.00    -0.024 N
HETATM   15  O1  UNL     1     -27.931 -28.825   1.514  1.00  0.00    -0.516 OA
HETATM   16  O2  UNL     1     -26.757 -30.603   0.798  1.00  0.00    -0.516 OA
ENDBRANCH  12  14
BRANCH  10  17
HETATM   17  N6  UNL     1     -25.588 -26.214  -2.691  1.00  0.00    -0.343 N
ATOM     18  H62 UNL     1     -24.809 -25.615  -2.967  1.00  0.00     0.176 HD
ATOM     19  H61 UNL     1     -26.447 -26.210  -3.241  1.00  0.00     0.176 HD
ENDBRANCH  10  17
TORSDOF 2
ENDMDL