MODEL 4
REMARK VINA RESULT: -5.993913004      2.082      5.400
REMARK  6 active torsions:
REMARK  status: ('A' for Active; 'I' for Inactive)
REMARK    1  A    between atoms: N1_1  and  C1_4
REMARK    2  A    between atoms: C4_9  and  N3_10
REMARK    3  A    between atoms: N3_10  and  S1_12
REMARK    4  A    between atoms: S1_12  and  C5_14
REMARK    5  A    between atoms: C5_14  and  N4_15
REMARK    6  A    between atoms: C5_14  and  N5_19
ROOT
HETATM    1  N3  UNL     1     -25.076 -26.441  -1.418  1.00  0.00    -0.288 N
ATOM      2  H3  UNL     1     -25.475 -25.559  -1.096  1.00  0.00     0.178 HD
ENDROOT
BRANCH   1   3
HETATM    3  C4  UNL     1     -24.300 -27.082  -0.609  1.00  0.00     0.130 A
HETATM    4  C3  UNL     1     -24.781 -27.473   0.626  1.00  0.00     0.067 A
HETATM    5  C2  UNL     1     -23.936 -28.156   1.471  1.00  0.00     0.110 A
HETATM    6  N2  UNL     1     -22.661 -28.438   1.099  1.00  0.00    -0.202 N
HETATM    7  C1  UNL     1     -22.222 -28.041  -0.116  1.00  0.00     0.677 A
ATOM      8  H2  UNL     1     -22.040 -28.944   1.730  1.00  0.00     0.183 HD
HETATM    9  N6  UNL     1     -23.034 -27.373  -0.955  1.00  0.00    -0.176 N
ATOM     10  H6  UNL     1     -22.683 -27.082  -1.867  1.00  0.00     0.186 HD
BRANCH   7  11
HETATM   11  N1  UNL     1     -20.991 -28.317  -0.465  1.00  0.00    -0.234 N
ATOM     12  H12 UNL     1     -20.780 -29.172  -0.981  1.00  0.00     0.174 HD
ATOM     13  H11 UNL     1     -20.249 -27.664  -0.214  1.00  0.00     0.174 HD
ENDBRANCH   7  11
ENDBRANCH   1   3
BRANCH   1  14
HETATM   14  S1  UNL     1     -25.478 -26.966  -2.982  1.00  0.00     0.175 S
HETATM   15  O1  UNL     1     -24.454 -28.113  -3.602  1.00  0.00    -0.232 OA
BRANCH  14  16
HETATM   16  C5  UNL     1     -25.635 -25.646  -4.149  1.00  0.00     0.490 C
BRANCH  16  17
HETATM   17  N4  UNL     1     -26.511 -25.954  -5.240  1.00  0.00    -0.037 N
ATOM     18  H43 UNL     1     -26.580 -26.962  -5.375  1.00  0.00     0.277 HD
ATOM     19  H42 UNL     1     -27.480 -25.751  -4.994  1.00  0.00     0.277 HD
ATOM     20  H41 UNL     1     -26.252 -25.488  -6.110  1.00  0.00     0.277 HD
ENDBRANCH  16  17
BRANCH  16  21
HETATM   21  N5  UNL     1     -26.168 -24.458  -3.479  1.00  0.00    -0.037 N
ATOM     22  H53 UNL     1     -25.443 -23.936  -2.988  1.00  0.00     0.277 HD
ATOM     23  H52 UNL     1     -26.447 -23.735  -4.143  1.00  0.00     0.277 HD
ATOM     24  H51 UNL     1     -26.933 -24.728  -2.861  1.00  0.00     0.277 HD
ENDBRANCH  16  21
ENDBRANCH  14  16
ENDBRANCH   1  14
TORSDOF 6
ENDMDL