MODEL 3
REMARK VINA RESULT: -6.413780611      1.458      1.726
REMARK  4 active torsions:
REMARK  status: ('A' for Active; 'I' for Inactive)
REMARK    1  A    between atoms: N1_1  and  C1_4
REMARK    2  A    between atoms: C6_15  and  C7_16
REMARK    3  A    between atoms: C7_16  and  N5_17
REMARK    4  A    between atoms: C7_16  and  N6_21
ROOT
HETATM    1  C1  UNL     1     -23.320 -28.331   0.831  1.00  0.00     0.116 A
HETATM    2  C2  UNL     1     -24.267 -27.381   1.144  1.00  0.00     0.138 A
HETATM    3  N2  UNL     1     -25.019 -26.865   0.163  1.00  0.00    -0.346 N
ATOM      4  H2  UNL     1     -25.721 -26.160   0.392  1.00  0.00     0.167 HD
HETATM    5  C3  UNL     1     -24.872 -27.254  -1.133  1.00  0.00     0.146 A
HETATM    6  C4  UNL     1     -23.912 -28.211  -1.430  1.00  0.00     0.147 A
HETATM    7  N3  UNL     1     -23.172 -28.712  -0.430  1.00  0.00    -0.325 N
ATOM      8  H3  UNL     1     -22.467 -29.416  -0.649  1.00  0.00     0.169 HD
HETATM    9  N4  UNL     1     -23.754 -28.595  -2.649  1.00  0.00    -0.371 N
ATOM     10  H4  UNL     1     -23.041 -29.300  -2.835  1.00  0.00     0.161 HD
HETATM   11  C5  UNL     1     -24.497 -28.109  -3.748  1.00  0.00     0.150 A
HETATM   12  C6  UNL     1     -25.508 -27.098  -3.418  1.00  0.00     0.158 A
HETATM   13  N7  UNL     1     -25.594 -26.754  -2.055  1.00  0.00    -0.363 N
ATOM     14  H7  UNL     1     -26.286 -26.054  -1.787  1.00  0.00     0.161 HD
ENDROOT
BRANCH  12  15
HETATM   15  C7  UNL     1     -25.389 -25.843  -4.298  1.00  0.00     0.401 C
BRANCH  15  16
HETATM   16  N5  UNL     1     -26.097 -24.796  -3.578  1.00  0.00    -0.048 N
ATOM     17  H53 UNL     1     -26.154 -23.914  -4.086  1.00  0.00     0.276 HD
ATOM     18  H52 UNL     1     -27.102 -24.957  -3.503  1.00  0.00     0.276 HD
ATOM     19  H51 UNL     1     -25.625 -24.721  -2.677  1.00  0.00     0.276 HD
ENDBRANCH  15  16
BRANCH  15  20
HETATM   20  N6  UNL     1     -26.040 -26.030  -5.558  1.00  0.00    -0.048 N
ATOM     21  H63 UNL     1     -26.395 -25.149  -5.929  1.00  0.00     0.276 HD
ATOM     22  H62 UNL     1     -25.372 -26.252  -6.295  1.00  0.00     0.276 HD
ATOM     23  H61 UNL     1     -26.775 -26.733  -5.494  1.00  0.00     0.276 HD
ENDBRANCH  15  20
ENDBRANCH  12  15
BRANCH   1  24
HETATM   24  N1  UNL     1     -22.595 -28.824   1.803  1.00  0.00    -0.384 N
ATOM     25  H12 UNL     1     -21.619 -29.093   1.674  1.00  0.00     0.157 HD
ATOM     26  H11 UNL     1     -23.030 -28.938   2.718  1.00  0.00     0.157 HD
ENDBRANCH   1  24
TORSDOF 4
ENDMDL