MODEL 2
REMARK VINA RESULT: -6.821452986      1.431      1.700
REMARK  5 active torsions:
REMARK  status: ('A' for Active; 'I' for Inactive)
REMARK    1  A    between atoms: N1_2  and  C2_4
REMARK    2  A    between atoms: C3_7  and  N3_8
REMARK    3  A    between atoms: C4_13  and  N5_14
REMARK       I    between atoms: N5_14  and  C5_16
REMARK    4  A    between atoms: N7_18  and  N8_20
REMARK    5  A    between atoms: N8_20  and  O1_22
ROOT
HETATM    1  C2  UNL     1     -25.256 -28.323  -3.939  1.00  0.00     0.706 A
HETATM    2  N2  UNL     1     -25.853 -27.266  -4.519  1.00  0.00    -0.022 N
ATOM      3  H2  UNL     1     -26.313 -27.392  -5.420  1.00  0.00     0.203 HD
HETATM    4  C3  UNL     1     -25.862 -26.048  -3.946  1.00  0.00     0.705 A
HETATM    5  N4  UNL     1     -25.262 -25.841  -2.749  1.00  0.00    -0.021 N
ATOM      6  H4  UNL     1     -25.266 -24.920  -2.309  1.00  0.00     0.203 HD
HETATM    7  C4  UNL     1     -24.663 -26.888  -2.161  1.00  0.00     0.713 A
HETATM    8  N9  UNL     1     -24.661 -28.096  -2.742  1.00  0.00    -0.021 N
ATOM      9  H9  UNL     1     -24.197 -28.871  -2.267  1.00  0.00     0.203 HD
ENDROOT
BRANCH   7  10
HETATM   10  N5  UNL     1     -24.095 -26.666  -1.016  1.00  0.00    -0.161 N
HETATM   11  C5  UNL     1     -23.063 -27.461  -0.494  1.00  0.00     0.223 C
HETATM   12  N6  UNL     1     -23.339 -28.450   0.491  1.00  0.00    -0.061 NA
HETATM   13  N7  UNL     1     -21.858 -27.271  -0.930  1.00  0.00    -0.253 N
ATOM     14  H7  UNL     1     -21.673 -26.558  -1.637  1.00  0.00     0.191 HD
ATOM     15  H5  UNL     1     -24.416 -25.870  -0.465  1.00  0.00     0.187 HD
BRANCH  13  16
HETATM   16  N8  UNL     1     -20.815 -28.050  -0.425  1.00  0.00    -0.208 N
ATOM     17  H8  UNL     1     -20.317 -27.758   0.417  1.00  0.00     0.215 HD
BRANCH  16  18
HETATM   18  O1  UNL     1     -20.496 -29.106  -1.009  1.00  0.00    -0.274 OA
ATOM     19  H1  UNL     1     -20.323 -29.889  -0.499  1.00  0.00     0.246 HD
ENDBRANCH  16  18
ENDBRANCH  13  16
ENDBRANCH   7  10
BRANCH   4  20
HETATM   20  N3  UNL     1     -26.451 -25.058  -4.544  1.00  0.00    -0.234 N
ATOM     21  H32 UNL     1     -27.382 -25.193  -4.936  1.00  0.00     0.174 HD
ATOM     22  H31 UNL     1     -25.980 -24.157  -4.617  1.00  0.00     0.174 HD
ENDBRANCH   4  20
BRANCH   1  23
HETATM   23  N1  UNL     1     -25.285 -29.443  -4.531  1.00  0.00    -0.229 N
HETATM   24  C1  UNL     1     -24.174 -30.334  -4.704  1.00  0.00     0.165 C
ATOM     25  H1  UNL     1     -26.180 -29.738  -4.922  1.00  0.00     0.177 HD
ENDBRANCH   1  23
TORSDOF 5
ENDMDL