MODEL 5
REMARK VINA RESULT: -5.437565862      3.757      5.114
REMARK  6 active torsions:
REMARK  status: ('A' for Active; 'I' for Inactive)
REMARK    1  A    between atoms: C2_2  and  N1_3
REMARK    2  A    between atoms: C6_11  and  O1_12
REMARK    3  A    between atoms: O1_12  and  C7_13
REMARK    4  A    between atoms: C7_13  and  C8_14
REMARK    5  A    between atoms: C8_14  and  C9_15
REMARK    6  A    between atoms: C9_15  and  N3_16
ROOT
HETATM    1  N1  UNL     1      20.577  43.675  53.484  1.00  0.00    -0.290 N
HETATM    2  C3  UNL     1      19.682  43.609  54.485  1.00  0.00     0.181 A
HETATM    3  S1  UNL     1      18.139  43.229  54.083  1.00  0.00    -0.040 SA
HETATM    4  N2  UNL     1      19.993  43.835  55.771  1.00  0.00    -0.331 N
ATOM      5  H2  UNL     1      19.264  43.768  56.481  1.00  0.00     0.168 HD
HETATM    6  C4  UNL     1      21.266  44.155  56.145  1.00  0.00     0.076 A
HETATM    7  C5  UNL     1      21.576  44.384  57.465  1.00  0.00     0.097 A
HETATM    8 CL1  UNL     1      20.328  44.271  58.697  1.00  0.00    -0.079 Cl
HETATM    9  C6  UNL     1      22.896  44.710  57.821  1.00  0.00     0.116 A
HETATM   10  C10 UNL     1      23.803  44.779  56.811  1.00  0.00     0.091 A
HETATM   11 CL2  UNL     1      25.472  45.214  57.135  1.00  0.00    -0.079 Cl
HETATM   12  C11 UNL     1      23.479  44.544  55.481  1.00  0.00     0.076 A
HETATM   13 CL3  UNL     1      24.683  44.647  54.237  1.00  0.00    -0.081 Cl
HETATM   14  C12 UNL     1      22.200  44.227  55.132  1.00  0.00     0.084 A
HETATM   15  C13 UNL     1      21.842  43.986  53.803  1.00  0.00     0.264 A
HETATM   16  O2  UNL     1      22.723  44.062  52.906  1.00  0.00    -0.267 OA
ENDROOT
BRANCH   9  17
HETATM   17  O1  UNL     1      23.200  44.938  59.115  1.00  0.00    -0.347 OA
BRANCH  17  18
HETATM   18  C7  UNL     1      23.295  46.095  59.854  1.00  0.00     0.177 C
BRANCH  18  19
HETATM   19  C8  UNL     1      22.534  47.300  59.375  1.00  0.00     0.054 C
BRANCH  19  20
HETATM   20  C9  UNL     1      23.514  48.318  58.796  1.00  0.00     0.231 C
BRANCH  20  21
HETATM   21  N3  UNL     1      23.234  49.646  59.230  1.00  0.00    -0.079 N
ATOM     22  H33 UNL     1      24.090  50.139  59.484  1.00  0.00     0.274 HD
ATOM     23  H32 UNL     1      22.934  50.232  58.450  1.00  0.00     0.274 HD
ATOM     24  H31 UNL     1      22.555  49.671  59.991  1.00  0.00     0.274 HD
ENDBRANCH  20  21
ENDBRANCH  19  20
ENDBRANCH  18  19
ENDBRANCH  17  18
ENDBRANCH   9  17
BRANCH   1  25
HETATM   25  C2  UNL     1      20.180  43.418  52.096  1.00  0.00     0.130 C
HETATM   26  C1  UNL     1      20.234  41.947  51.781  1.00  0.00     0.027 C
ENDBRANCH   1  25
TORSDOF 6
ENDMDL