MODEL 3
REMARK VINA RESULT: -6.947006071      5.153      8.481
REMARK  7 active torsions:
REMARK  status: ('A' for Active; 'I' for Inactive)
REMARK    1  A    between atoms: C3_3  and  C4_4
REMARK    2  A    between atoms: C4_4  and  N1_5
REMARK    3  A    between atoms: N1_5  and  N2_7
REMARK    4  A    between atoms: C6_8  and  O1_9
REMARK    5  A    between atoms: C8_12  and  O2_13
REMARK    6  A    between atoms: O2_13  and  C9_14
REMARK    7  A    between atoms: C15_23  and  O3_24
ROOT
HETATM    1  N2  UNL     1      27.433  44.828  52.916  1.00  0.00    -0.211 N
HETATM    2  C6  UNL     1      26.754  45.619  52.076  1.00  0.00     0.166 A
HETATM    3  C7  UNL     1      25.418  45.291  52.166  1.00  0.00     0.099 A
HETATM    4  C8  UNL     1      25.271  44.276  53.079  1.00  0.00     0.133 A
HETATM    5  C15 UNL     1      26.595  44.009  53.538  1.00  0.00     0.198 A
ENDROOT
BRANCH   4   6
HETATM    6  O2  UNL     1      24.204  43.611  53.525  1.00  0.00    -0.304 OA
BRANCH   6   7
HETATM    7  C9  UNL     1      22.964  43.789  53.935  1.00  0.00     0.101 A
HETATM    8  C10 UNL     1      21.832  43.584  53.158  1.00  0.00     0.063 A
HETATM    9  C11 UNL     1      20.583  43.810  53.707  1.00  0.00     0.038 A
HETATM   10 CL1  UNL     1      19.169  43.546  52.697  1.00  0.00    -0.084 Cl
HETATM   11  C12 UNL     1      20.453  44.232  55.012  1.00  0.00     0.049 A
HETATM   12  C13 UNL     1      21.575  44.441  55.802  1.00  0.00     0.060 A
HETATM   13 CL2  UNL     1      21.421  44.986  57.479  1.00  0.00    -0.082 Cl
HETATM   14  C14 UNL     1      22.810  44.225  55.276  1.00  0.00     0.089 A
HETATM   15 CL3  UNL     1      24.275  44.474  56.245  1.00  0.00    -0.080 Cl
ENDBRANCH   6   7
ENDBRANCH   4   6
BRANCH   5  16
HETATM   16  O3  UNL     1      26.899  43.028  54.490  1.00  0.00    -0.343 OA
ATOM     17  H3  UNL     1      26.427  42.825  55.289  1.00  0.00     0.219 HD
ENDBRANCH   5  16
BRANCH   2  18
HETATM   18  O1  UNL     1      27.322  46.610  51.252  1.00  0.00    -0.345 OA
ATOM     19  H1  UNL     1      27.731  47.411  51.558  1.00  0.00     0.219 HD
ENDBRANCH   2  18
BRANCH   1  20
HETATM   20  N1  UNL     1      28.834  44.855  53.108  1.00  0.00    -0.318 N
HETATM   21  C5  UNL     1      29.661  44.079  52.227  1.00  0.00     0.172 C
BRANCH  20  22
HETATM   22  C4  UNL     1      29.361  45.641  54.181  1.00  0.00     0.170 C
BRANCH  22  23
HETATM   23  C3  UNL     1      29.899  44.867  55.322  1.00  0.00    -0.010 C
HETATM   24  C2  UNL     1      29.247  44.859  56.465  1.00  0.00    -0.033 C
HETATM   25  C1  UNL     1      27.988  45.608  56.638  1.00  0.00     0.036 C
ENDBRANCH  22  23
ENDBRANCH  20  22
ENDBRANCH   1  20
TORSDOF 7
ENDMDL