MODEL 4
REMARK VINA RESULT: -8.618307677      1.339      1.617
REMARK  5 active torsions:
REMARK  status: ('A' for Active; 'I' for Inactive)
REMARK    1  A    between atoms: C3_5  and  N2_6
REMARK    2  A    between atoms: N2_6  and  C4_8
REMARK    3  A    between atoms: C4_8  and  C5_9
REMARK    4  A    between atoms: C5_9  and  C6_10
REMARK    5  A    between atoms: C6_10  and  N3_11
ROOT
HETATM    1  N1  UNL     1      24.203  43.613  53.349  1.00  0.00    -0.098 NA
HETATM    2  C1  UNL     1      23.126  43.991  54.177  1.00  0.00     0.101 A
HETATM    3  C2  UNL     1      21.848  43.978  53.657  1.00  0.00     0.184 A
HETATM    4  F1  UNL     1      21.616  43.605  52.367  1.00  0.00    -0.200 F
HETATM    5  C3  UNL     1      20.768  44.350  54.461  1.00  0.00     0.143 A
HETATM    6  N4  UNL     1      21.060  44.708  55.725  1.00  0.00    -0.339 N
ATOM      7  H4  UNL     1      20.286  44.984  56.329  1.00  0.00     0.167 HD
HETATM    8  C12 UNL     1      22.293  44.728  56.248  1.00  0.00     0.047 A
HETATM    9  C13 UNL     1      22.542  45.104  57.557  1.00  0.00     0.056 A
HETATM   10  C14 UNL     1      23.829  45.116  58.074  1.00  0.00     0.058 A
HETATM   11 CL1  UNL     1      24.103  45.600  59.743  1.00  0.00    -0.082 Cl
HETATM   12  C15 UNL     1      24.912  44.751  57.298  1.00  0.00     0.056 A
HETATM   13 CL2  UNL     1      26.502  44.787  58.008  1.00  0.00    -0.083 Cl
HETATM   14  C16 UNL     1      24.670  44.378  56.001  1.00  0.00     0.041 A
HETATM   15  C17 UNL     1      23.383  44.368  55.490  1.00  0.00     0.020 A
ENDROOT
BRANCH   5  16
HETATM   16  N2  UNL     1      19.460  44.328  53.922  1.00  0.00    -0.374 N
ATOM     17  H2  UNL     1      19.152  45.134  53.378  1.00  0.00     0.161 HD
BRANCH  16  18
HETATM   18  C4  UNL     1      18.541  43.244  54.095  1.00  0.00     0.122 C
BRANCH  18  19
HETATM   19  C5  UNL     1      18.107  42.658  52.778  1.00  0.00     0.036 C
BRANCH  19  20
HETATM   20  C6  UNL     1      19.197  41.769  52.198  1.00  0.00     0.122 C
BRANCH  20  21
HETATM   21  N3  UNL     1      18.635  40.509  51.835  1.00  0.00    -0.192 NA
HETATM   22  O1  UNL     1      19.226  39.925  50.787  1.00  0.00    -0.298 OA
HETATM   23  C7  UNL     1      18.249  39.493  49.907  1.00  0.00     0.147 C
HETATM   24  C8  UNL     1      17.467  38.387  50.582  1.00  0.00     0.035 C
HETATM   25  C11 UNL     1      17.224  40.635  50.075  1.00  0.00     0.056 C
HETATM   26  C9  UNL     1      16.752  39.066  51.735  1.00  0.00     0.024 C
HETATM   27  C10 UNL     1      17.222  40.498  51.612  1.00  0.00     0.088 C
ENDBRANCH  20  21
ENDBRANCH  19  20
ENDBRANCH  18  19
ENDBRANCH  16  18
ENDBRANCH   5  16
TORSDOF 5
ENDMDL