MODEL 5
REMARK VINA RESULT: -5.987775818      4.621      6.404
REMARK  5 active torsions:
REMARK  status: ('A' for Active; 'I' for Inactive)
REMARK    1  A    between atoms: C3_7  and  S1_8
REMARK    2  A    between atoms: S1_8  and  C4_9
REMARK    3  A    between atoms: C4_9  and  C5_10
REMARK    4  A    between atoms: C6_11  and  N3_12
REMARK    5  A    between atoms: C11_22  and  C12_23
ROOT
HETATM    1  C4  UNL     1      22.399  43.434  54.916  1.00  0.00     0.123 C
ENDROOT
BRANCH   1   2
HETATM    2  S1  UNL     1      21.625  43.934  53.330  1.00  0.00    -0.105 SA
BRANCH   2   3
HETATM    3  C3  UNL     1      19.901  43.335  53.430  1.00  0.00     0.103 A
HETATM    4  N2  UNL     1      19.062  43.541  54.436  1.00  0.00    -0.293 N
HETATM    5  N1  UNL     1      17.904  43.011  54.114  1.00  0.00    -0.303 N
ATOM      6  H2  UNL     1      19.278  44.026  55.307  1.00  0.00     0.187 HD
HETATM    7  C2  UNL     1      18.001  42.451  52.872  1.00  0.00     0.042 A
ATOM      8  H1  UNL     1      17.067  43.016  54.697  1.00  0.00     0.186 HD
HETATM    9  C1  UNL     1      16.815  41.768  52.266  1.00  0.00     0.071 C
HETATM   10  C11 UNL     1      19.264  42.644  52.418  1.00  0.00     0.099 A
BRANCH  10  11
HETATM   11  C12 UNL     1      19.743  42.205  51.136  1.00  0.00     0.214 C
HETATM   12  O3  UNL     1      19.787  43.069  50.205  1.00  0.00    -0.644 OA
HETATM   13  O4  UNL     1      20.134  40.929  50.867  1.00  0.00    -0.644 OA
ENDBRANCH  10  11
ENDBRANCH   2   3
ENDBRANCH   1   2
BRANCH   1  14
HETATM   14  C5  UNL     1      22.953  44.450  55.791  1.00  0.00     0.008 A
HETATM   15  C6  UNL     1      23.991  45.230  55.429  1.00  0.00     0.114 A
HETATM   16  C7  UNL     1      24.286  46.421  56.100  1.00  0.00     0.080 A
HETATM   17  C8  UNL     1      23.565  46.860  57.158  1.00  0.00     0.142 A
HETATM   18  F1  UNL     1      23.905  48.013  57.756  1.00  0.00    -0.204 F
HETATM   19  C9  UNL     1      22.473  46.068  57.589  1.00  0.00     0.095 A
HETATM   20 CL1  UNL     1      21.517  46.686  58.922  1.00  0.00    -0.079 Cl
HETATM   21  C10 UNL     1      22.210  44.916  56.893  1.00  0.00     0.068 A
HETATM   22 CL2  UNL     1      20.758  44.038  57.378  1.00  0.00    -0.082 Cl
BRANCH  15  23
HETATM   23  N3  UNL     1      24.810  44.838  54.372  1.00  0.00    -0.115 N
HETATM   24  O1  UNL     1      25.627  43.949  54.668  1.00  0.00    -0.532 OA
HETATM   25  O2  UNL     1      24.839  45.353  53.169  1.00  0.00    -0.532 OA
ENDBRANCH  15  23
ENDBRANCH   1  14
TORSDOF 5
ENDMDL