MODEL 2
REMARK VINA RESULT: -7.147899113      0.059      1.036
REMARK  5 active torsions:
REMARK  status: ('A' for Active; 'I' for Inactive)
REMARK    1  A    between atoms: C2_2  and  C3_3
REMARK    2  A    between atoms: C3_3  and  N1_4
REMARK    3  A    between atoms: N1_4  and  C4_6
REMARK    4  A    between atoms: C7_9  and  N2_10
REMARK    5  A    between atoms: C13_19  and  C14_20
ROOT
HETATM    1  C4  UNL     1      20.674  43.424  54.509  1.00  0.00     0.058 A
HETATM    2  C5  UNL     1      21.670  43.656  53.591  1.00  0.00     0.034 A
HETATM    3  C6  UNL     1      22.887  44.224  53.989  1.00  0.00     0.034 A
HETATM    4  C7  UNL     1      23.126  44.557  55.289  1.00  0.00     0.067 A
HETATM    5  C12 UNL     1      22.141  44.332  56.229  1.00  0.00     0.133 A
HETATM    6  O1  UNL     1      22.089  44.544  57.525  1.00  0.00    -0.288 OA
HETATM    7  C13 UNL     1      20.926  44.156  57.983  1.00  0.00     0.180 A
HETATM    8  N4  UNL     1      20.211  43.679  56.943  1.00  0.00    -0.332 N
ATOM      9  H4  UNL     1      19.264  43.305  56.993  1.00  0.00     0.168 HD
HETATM   10  C15 UNL     1      20.953  43.780  55.836  1.00  0.00     0.097 A
ENDROOT
BRANCH   4  11
HETATM   11  N2  UNL     1      24.388  45.104  55.673  1.00  0.00    -0.372 N
HETATM   12  C8  UNL     1      25.405  44.358  56.332  1.00  0.00     0.143 C
HETATM   13  C9  UNL     1      26.288  45.271  57.106  1.00  0.00     0.138 C
HETATM   14  N3  UNL     1      26.821  46.385  56.369  1.00  0.00    -0.399 N
HETATM   15  C10 UNL     1      25.970  46.985  55.427  1.00  0.00     0.075 C
ATOM     16  H3  UNL     1      27.771  46.723  56.523  1.00  0.00     0.158 HD
HETATM   17  C11 UNL     1      24.580  46.503  55.379  1.00  0.00     0.167 C
ENDBRANCH   4  11
BRANCH   1  18
HETATM   18  N1  UNL     1      19.431  42.903  54.147  1.00  0.00    -0.388 N
ATOM     19  H1  UNL     1      18.918  42.476  54.918  1.00  0.00     0.159 HD
BRANCH  18  20
HETATM   20  C3  UNL     1      18.752  42.857  52.903  1.00  0.00     0.119 C
BRANCH  20  21
HETATM   21  C2  UNL     1      18.840  41.609  52.127  1.00  0.00     0.015 C
HETATM   22  C1  UNL     1      19.926  41.542  51.084  1.00  0.00     0.006 C
ENDBRANCH  20  21
ENDBRANCH  18  20
ENDBRANCH   1  18
BRANCH   7  23
HETATM   23  C14 UNL     1      20.489  44.243  59.415  1.00  0.00     0.253 C
HETATM   24 CL1  UNL     1      21.265  42.981  60.368  1.00  0.00    -0.075 Cl
HETATM   25 CL2  UNL     1      18.703  44.016  59.482  1.00  0.00    -0.075 Cl
HETATM   26 CL3  UNL     1      20.843  45.820  60.115  1.00  0.00    -0.075 Cl
ENDBRANCH   7  23
TORSDOF 5
ENDMDL