MODEL 3
REMARK VINA RESULT: -6.945845208      1.555      2.436
REMARK  6 active torsions:
REMARK  status: ('A' for Active; 'I' for Inactive)
REMARK    1  A    between atoms: C2_3  and  O2_4
REMARK    2  A    between atoms: C3_6  and  N1_7
REMARK    3  A    between atoms: N1_7  and  C4_9
REMARK    4  A    between atoms: C4_9  and  C5_10
REMARK    5  A    between atoms: C4_9  and  C14_22
REMARK    6  A    between atoms: C8_14  and  C9_15
ROOT
HETATM    1  C4  UNL     1      21.873  44.494  56.106  1.00  0.00     0.125 C
ENDROOT
BRANCH   1   2
HETATM    2  N1  UNL     1      20.674  44.959  55.388  1.00  0.00    -0.375 N
ATOM      3  H1  UNL     1      20.439  45.949  55.462  1.00  0.00     0.160 HD
BRANCH   2   4
HETATM    4  C3  UNL     1      19.839  44.167  54.623  1.00  0.00     0.121 A
HETATM    5  C2  UNL     1      18.522  43.692  54.692  1.00  0.00     0.151 A
HETATM    6  C1  UNL     1      18.636  43.000  53.535  1.00  0.00     0.259 A
HETATM    7  O1  UNL     1      17.892  42.274  52.852  1.00  0.00    -0.281 OA
HETATM    8  C18 UNL     1      19.929  43.438  53.426  1.00  0.00     0.253 A
HETATM    9  O3  UNL     1      20.899  43.322  52.643  1.00  0.00    -0.281 OA
BRANCH   5  10
HETATM   10  O2  UNL     1      17.485  43.859  55.599  1.00  0.00    -0.355 OA
ATOM     11  H2  UNL     1      17.445  44.202  56.484  1.00  0.00     0.218 HD
ENDBRANCH   5  10
ENDBRANCH   2   4
ENDBRANCH   1   2
BRANCH   1  12
HETATM   12  C5  UNL     1      23.068  45.144  55.436  1.00  0.00     0.044 A
HETATM   13  C6  UNL     1      23.502  46.406  55.796  1.00  0.00     0.128 A
HETATM   14  F1  UNL     1      22.685  47.086  56.676  1.00  0.00    -0.205 F
HETATM   15  C7  UNL     1      24.654  46.982  55.329  1.00  0.00     0.052 A
HETATM   16  C8  UNL     1      25.465  46.313  54.455  1.00  0.00    -0.026 A
HETATM   17  C12 UNL     1      25.078  45.065  54.077  1.00  0.00     0.080 A
HETATM   18 CL1  UNL     1      26.105  44.185  52.967  1.00  0.00    -0.080 Cl
HETATM   19  C13 UNL     1      23.897  44.486  54.559  1.00  0.00     0.150 A
HETATM   20  F2  UNL     1      23.676  43.238  54.177  1.00  0.00    -0.203 F
BRANCH  16  21
HETATM   21  C9  UNL     1      26.783  46.863  54.002  1.00  0.00     0.020 A
HETATM   22  C10 UNL     1      27.426  48.028  54.672  1.00  0.00     0.010 A
HETATM   23  C11 UNL     1      27.888  46.654  55.014  1.00  0.00     0.010 A
ENDBRANCH  16  21
ENDBRANCH   1  12
BRANCH   1  24
HETATM   24  C14 UNL     1      21.880  44.591  57.542  1.00  0.00     0.013 C
HETATM   25  C15 UNL     1      23.100  44.278  58.370  1.00  0.00     0.007 C
HETATM   26  C16 UNL     1      22.173  44.687  59.555  1.00  0.00     0.001 C
HETATM   27  C17 UNL     1      21.078  44.065  58.618  1.00  0.00     0.007 C
ENDBRANCH   1  24
TORSDOF 6
ENDMDL