MODEL 4
REMARK VINA RESULT: -6.971142559      2.818      7.623
REMARK  5 active torsions:
REMARK  status: ('A' for Active; 'I' for Inactive)
REMARK    1  A    between atoms: C6_9  and  O2_10
REMARK    2  A    between atoms: O2_10  and  C7_11
REMARK    3  A    between atoms: C7_11  and  C8_12
REMARK    4  A    between atoms: C8_12  and  C9_13
REMARK    5  A    between atoms: C9_13  and  C10_14
ROOT
HETATM    1  C1  UNL     1      22.154  45.350  57.819  1.00  0.00     0.078 C
HETATM    2  C2  UNL     1      22.023  44.750  56.470  1.00  0.00     0.075 A
HETATM    3  O1  UNL     1      20.812  44.450  56.043  1.00  0.00    -0.311 OA
HETATM    4  C3  UNL     1      20.636  43.917  54.862  1.00  0.00     0.113 A
HETATM    5  C4  UNL     1      19.359  43.620  54.457  1.00  0.00     0.093 A
HETATM    6 CL1  UNL     1      18.011  43.964  55.532  1.00  0.00    -0.079 Cl
HETATM    7  C5  UNL     1      19.144  43.065  53.229  1.00  0.00     0.091 A
HETATM    8 CL2  UNL     1      17.504  42.692  52.724  1.00  0.00    -0.079 Cl
HETATM    9  C6  UNL     1      20.170  42.765  52.323  1.00  0.00     0.093 A
HETATM   10  C11 UNL     1      21.436  43.074  52.762  1.00  0.00     0.057 A
HETATM   11  C12 UNL     1      21.688  43.645  54.015  1.00  0.00     0.054 A
HETATM   12  C13 UNL     1      22.960  43.950  54.441  1.00  0.00     0.209 A
HETATM   13  O5  UNL     1      23.953  43.721  53.704  1.00  0.00    -0.286 OA
HETATM   14  C14 UNL     1      23.129  44.506  55.678  1.00  0.00     0.114 A
HETATM   15 CL3  UNL     1      24.700  44.933  56.320  1.00  0.00    -0.077 Cl
ENDROOT
BRANCH   9  16
HETATM   16  O2  UNL     1      19.824  42.212  51.141  1.00  0.00    -0.349 OA
BRANCH  16  17
HETATM   17  C7  UNL     1      19.925  40.920  50.679  1.00  0.00     0.176 C
BRANCH  17  18
HETATM   18  C8  UNL     1      18.750  40.085  51.051  1.00  0.00     0.037 C
BRANCH  18  19
HETATM   19  C9  UNL     1      17.695  40.170  49.994  1.00  0.00     0.115 C
BRANCH  19  20
HETATM   20  C10 UNL     1      17.147  38.904  49.546  1.00  0.00     0.172 C
HETATM   21  O3  UNL     1      16.374  38.689  48.591  1.00  0.00    -0.648 OA
HETATM   22  O4  UNL     1      17.522  37.750  50.268  1.00  0.00    -0.648 OA
ENDBRANCH  19  20
ENDBRANCH  18  19
ENDBRANCH  17  18
ENDBRANCH  16  17
ENDBRANCH   9  16
TORSDOF 5
ENDMDL