MODEL 4
REMARK VINA RESULT: -6.420287208      2.177      2.996
REMARK  6 active torsions:
REMARK  status: ('A' for Active; 'I' for Inactive)
REMARK    1  A    between atoms: O1_2  and  C2_3
REMARK    2  A    between atoms: C8_10  and  C9_11
REMARK    3  A    between atoms: C9_11  and  S1_12
REMARK    4  A    between atoms: S1_12  and  C10_13
REMARK    5  A    between atoms: C11_16  and  N2_17
REMARK    6  A    between atoms: C12_22  and  C13_23
ROOT
HETATM    1  C10 UNL     1      20.914  43.530  53.321  1.00  0.00     0.161 A
HETATM    2  N1  UNL     1      20.027  43.892  54.262  1.00  0.00    -0.171 N
ATOM      3  H1  UNL     1      20.324  44.564  54.969  1.00  0.00     0.186 HD
HETATM    4  C11 UNL     1      18.779  43.424  54.328  1.00  0.00     0.679 A
HETATM    5  N3  UNL     1      18.385  42.530  53.388  1.00  0.00    -0.178 N
ATOM      6  H3  UNL     1      17.438  42.153  53.411  1.00  0.00     0.185 HD
HETATM    7  C12 UNL     1      19.240  42.139  52.428  1.00  0.00     0.132 A
HETATM    8  N4  UNL     1      20.507  42.643  52.397  1.00  0.00    -0.323 N
ATOM      9  H4  UNL     1      21.152  42.345  51.665  1.00  0.00     0.169 HD
ENDROOT
BRANCH   1  10
HETATM   10  S1  UNL     1      22.552  44.240  53.357  1.00  0.00    -0.089 SA
BRANCH  10  11
HETATM   11  C9  UNL     1      23.248  43.962  54.961  1.00  0.00     0.124 C
BRANCH  11  12
HETATM   12  C8  UNL     1      23.224  45.040  55.950  1.00  0.00    -0.007 A
HETATM   13  C2  UNL     1      24.193  46.063  55.839  1.00  0.00     0.075 A
HETATM   14  C3  UNL     1      24.251  47.111  56.713  1.00  0.00     0.039 A
HETATM   15  C4  UNL     1      23.351  47.203  57.745  1.00  0.00     0.027 A
HETATM   16  C5  UNL     1      22.401  46.220  57.874  1.00  0.00     0.040 A
HETATM   17 CL1  UNL     1      21.231  46.327  59.204  1.00  0.00    -0.084 Cl
HETATM   18  C6  UNL     1      22.334  45.138  56.979  1.00  0.00    -0.030 A
HETATM   19  C7  UNL     1      21.261  44.156  57.241  1.00  0.00     0.050 C
BRANCH  13  20
HETATM   20  O1  UNL     1      25.096  45.967  54.798  1.00  0.00    -0.355 OA
HETATM   21  C1  UNL     1      25.306  46.966  53.842  1.00  0.00     0.210 C
ENDBRANCH  13  20
ENDBRANCH  11  12
ENDBRANCH  10  11
ENDBRANCH   1  10
BRANCH   4  22
HETATM   22  N2  UNL     1      17.966  43.794  55.239  1.00  0.00    -0.234 N
ATOM     23  H22 UNL     1      17.284  44.528  55.048  1.00  0.00     0.174 HD
ATOM     24  H21 UNL     1      17.971  43.376  56.170  1.00  0.00     0.174 HD
ENDBRANCH   4  22
BRANCH   7  25
HETATM   25  C13 UNL     1      18.844  41.161  51.380  1.00  0.00     0.246 C
HETATM   26 CL2  UNL     1      18.509  39.565  52.112  1.00  0.00    -0.100 Cl
HETATM   27 CL3  UNL     1      17.443  41.736  50.461  1.00  0.00    -0.100 Cl
ENDBRANCH   7  25
TORSDOF 6
ENDMDL