MODEL 5
REMARK VINA RESULT: -7.690627710      1.752      2.011
REMARK  6 active torsions:
REMARK  status: ('A' for Active; 'I' for Inactive)
REMARK    1  A    between atoms: C2_2  and  C3_3
REMARK    2  A    between atoms: C6_10  and  N3_11
REMARK    3  A    between atoms: N3_11  and  C7_14
REMARK    4  A    between atoms: C7_14  and  C8_15
REMARK    5  A    between atoms: C8_15  and  O2_16
REMARK    6  A    between atoms: C8_15  and  C9_18
ROOT
HETATM    1  N3  UNL     1      21.215  43.235  52.803  1.00  0.00    -0.044 N
ATOM      2  H31 UNL     1      21.594  43.703  51.980  1.00  0.00     0.280 HD
ATOM      3  H32 UNL     1      21.700  42.340  52.727  1.00  0.00     0.280 HD
ENDROOT
BRANCH   1   4
HETATM    4  C6  UNL     1      19.781  43.055  52.678  1.00  0.00     0.348 A
HETATM    5  O1  UNL     1      19.383  41.843  53.299  1.00  0.00    -0.286 OA
HETATM    6  C5  UNL     1      18.876  40.931  52.397  1.00  0.00     0.228 A
HETATM    7  N1  UNL     1      18.937  41.448  51.169  1.00  0.00    -0.317 N
HETATM    8  N2  UNL     1      18.331  39.694  52.254  1.00  0.00    -0.324 N
HETATM    9  C4  UNL     1      18.451  40.586  50.274  1.00  0.00     0.119 A
HETATM   10  C15 UNL     1      19.522  42.789  51.217  1.00  0.00     0.194 A
HETATM   11  C3  UNL     1      18.059  39.452  50.965  1.00  0.00     0.028 A
ATOM     12  H2  UNL     1      18.154  39.042  53.019  1.00  0.00     0.169 HD
BRANCH  11  13
HETATM   13  C2  UNL     1      17.439  38.227  50.364  1.00  0.00     0.054 C
HETATM   14  C1  UNL     1      16.951  38.543  48.940  1.00  0.00     0.011 C
ENDBRANCH  11  13
ENDBRANCH   1   4
BRANCH   1  15
HETATM   15  C7  UNL     1      21.604  43.934  54.021  1.00  0.00     0.272 C
BRANCH  15  16
HETATM   16  C8  UNL     1      23.095  43.789  54.106  1.00  0.00     0.178 C
BRANCH  16  17
HETATM   17  O2  UNL     1      23.451  42.582  53.496  1.00  0.00    -0.389 OA
ATOM     18  H2  UNL     1      23.698  41.968  54.178  1.00  0.00     0.210 HD
ENDBRANCH  16  17
BRANCH  16  19
HETATM   19  C9  UNL     1      23.930  44.892  53.729  1.00  0.00    -0.005 A
HETATM   20  C10 UNL     1      24.401  45.147  52.477  1.00  0.00     0.037 A
HETATM   21  C11 UNL     1      25.169  46.289  52.249  1.00  0.00     0.056 A
HETATM   22 CL1  UNL     1      25.776  46.616  50.648  1.00  0.00    -0.083 Cl
HETATM   23  C12 UNL     1      25.485  47.196  53.237  1.00  0.00     0.057 A
HETATM   24 CL2  UNL     1      26.435  48.639  52.982  1.00  0.00    -0.082 Cl
HETATM   25  C13 UNL     1      25.009  46.936  54.507  1.00  0.00     0.050 A
HETATM   26  C14 UNL     1      24.255  45.819  54.736  1.00  0.00     0.044 A
HETATM   27 CL3  UNL     1      23.678  45.546  56.380  1.00  0.00    -0.084 Cl
ENDBRANCH  16  19
ENDBRANCH  15  16
ENDBRANCH   1  15
TORSDOF 6
ENDMDL