MODEL 2
REMARK VINA RESULT: -6.945279709      1.263      2.128
REMARK  7 active torsions:
REMARK  status: ('A' for Active; 'I' for Inactive)
REMARK    1  A    between atoms: C2_2  and  O1_3
REMARK    2  A    between atoms: O1_3  and  C3_4
REMARK    3  A    between atoms: C3_4  and  C4_5
REMARK    4  A    between atoms: C3_4  and  C12_17
REMARK    5  A    between atoms: C5_7  and  C6_8
REMARK    6  A    between atoms: C11_14  and  O4_15
REMARK    7  A    between atoms: C17_25  and  O5_26
ROOT
HETATM    1  C3  UNL     1      24.266  45.089  55.267  1.00  0.00     0.220 C
ENDROOT
BRANCH   1   2
HETATM    2  O1  UNL     1      25.104  44.022  55.515  1.00  0.00    -0.375 OA
BRANCH   2   3
HETATM    3  C2  UNL     1      25.785  44.068  56.709  1.00  0.00     0.164 C
HETATM    4  C1  UNL     1      24.946  44.406  57.901  1.00  0.00     0.033 C
ENDBRANCH   2   3
ENDBRANCH   1   2
BRANCH   1   5
HETATM    5  C4  UNL     1      24.901  46.140  54.432  1.00  0.00     0.124 A
HETATM    6  O2  UNL     1      24.941  46.005  53.126  1.00  0.00    -0.313 OA
HETATM    7  C5  UNL     1      25.454  46.823  52.264  1.00  0.00     0.060 A
HETATM    8  C9  UNL     1      26.033  47.978  52.745  1.00  0.00     0.091 A
HETATM    9  C10 UNL     1      26.047  48.220  54.100  1.00  0.00     0.209 A
HETATM   10  O3  UNL     1      26.566  49.262  54.573  1.00  0.00    -0.285 OA
HETATM   11  C11 UNL     1      25.469  47.278  54.960  1.00  0.00     0.149 A
BRANCH   7  12
HETATM   12  C6  UNL     1      25.426  46.537  50.781  1.00  0.00     0.035 C
HETATM   13  C7  UNL     1      26.095  45.252  50.436  1.00  0.00     0.016 C
HETATM   14  C8  UNL     1      26.086  47.683  50.023  1.00  0.00     0.016 C
ENDBRANCH   7  12
BRANCH  11  15
HETATM   15  O4  UNL     1      25.472  47.503  56.330  1.00  0.00    -0.355 OA
ATOM     16  H4  UNL     1      25.172  46.833  56.934  1.00  0.00     0.218 HD
ENDBRANCH  11  15
ENDBRANCH   1   5
BRANCH   1  17
HETATM   17  C12 UNL     1      22.920  44.682  54.802  1.00  0.00     0.052 A
HETATM   18  C13 UNL     1      21.823  45.288  55.357  1.00  0.00     0.130 A
HETATM   19  F1  UNL     1      21.965  46.269  56.322  1.00  0.00    -0.205 F
HETATM   20  C14 UNL     1      20.561  44.925  54.956  1.00  0.00     0.070 A
HETATM   21  C15 UNL     1      20.335  43.962  54.005  1.00  0.00     0.078 A
HETATM   22 CL1  UNL     1      18.709  43.504  53.499  1.00  0.00    -0.081 Cl
HETATM   23  C16 UNL     1      21.455  43.350  53.446  1.00  0.00     0.171 A
HETATM   24  F2  UNL     1      21.217  42.402  52.509  1.00  0.00    -0.201 F
HETATM   25  C17 UNL     1      22.724  43.716  53.851  1.00  0.00     0.118 A
BRANCH  25  26
HETATM   26  O5  UNL     1      23.787  43.044  53.235  1.00  0.00    -0.357 OA
ATOM     27  H5  UNL     1      23.776  42.811  52.313  1.00  0.00     0.217 HD
ENDBRANCH  25  26
ENDBRANCH   1  17
TORSDOF 7
ENDMDL