MODEL 1
REMARK VINA RESULT: -6.379421942      0.000      0.000
REMARK  6 active torsions:
REMARK  status: ('A' for Active; 'I' for Inactive)
REMARK    1  A    between atoms: C2_2  and  C3_3
REMARK    2  A    between atoms: C4_4  and  C5_5
REMARK    3  A    between atoms: C5_5  and  N1_6
REMARK    4  A    between atoms: N1_6  and  N2_7
REMARK    5  A    between atoms: N1_6  and  C6_10
REMARK    6  A    between atoms: C10_17  and  N4_18
REMARK       I    between atoms: N4_18  and  C11_20
ROOT
HETATM    1  C6  UNL     1     -26.907  30.109 -13.869  1.00  0.00     0.135 C
HETATM    2  C7  UNL     1     -27.441  28.719 -13.477  1.00  0.00     0.049 C
HETATM    3  C8  UNL     1     -28.831  28.820 -12.944  1.00  0.00     0.125 C
HETATM    4  N3  UNL     1     -29.584  29.965 -13.424  1.00  0.00    -0.359 N
ATOM      5  H3  UNL     1     -30.530  29.885 -13.797  1.00  0.00     0.162 HD
HETATM    6  C9  UNL     1     -28.900  31.199 -13.333  1.00  0.00     0.242 C
HETATM    7  O1  UNL     1     -29.405  32.281 -13.595  1.00  0.00    -0.271 OA
HETATM    8  C10 UNL     1     -27.470  31.074 -12.880  1.00  0.00     0.200 C
ENDROOT
BRANCH   1   9
HETATM    9  N1  UNL     1     -25.549  30.153 -14.200  1.00  0.00    -0.324 N
BRANCH   9  10
HETATM   10  C5  UNL     1     -25.305  30.597 -15.544  1.00  0.00     0.170 C
BRANCH  10  11
HETATM   11  C4  UNL     1     -24.222  31.577 -15.715  1.00  0.00    -0.006 C
HETATM   12  C3  UNL     1     -24.352  32.788 -15.224  1.00  0.00    -0.003 C
BRANCH  12  13
HETATM   13  C2  UNL     1     -23.317  33.784 -15.361  1.00  0.00    -0.011 C
HETATM   14  C1  UNL     1     -23.604  35.045 -15.732  1.00  0.00     0.011 C
ENDBRANCH  12  13
ENDBRANCH  10  11
ENDBRANCH   9  10
BRANCH   9  15
HETATM   15  N2  UNL     1     -24.731  29.142 -13.808  1.00  0.00    -0.347 N
ATOM     16  H22 UNL     1     -23.772  29.350 -13.531  1.00  0.00     0.176 HD
ATOM     17  H21 UNL     1     -25.189  28.462 -13.201  1.00  0.00     0.176 HD
ENDBRANCH   9  15
ENDBRANCH   1   9
BRANCH   8  18
HETATM   18  N4  UNL     1     -26.788  32.286 -12.674  1.00  0.00    -0.349 N
HETATM   19  C11 UNL     1     -26.473  32.685 -11.324  1.00  0.00     0.182 C
HETATM   20  N5  UNL     1     -27.022  32.139 -10.294  1.00  0.00    -0.374 N
HETATM   21  N6  UNL     1     -25.526  33.701 -11.070  1.00  0.00    -0.064 NA
ATOM     22  H52 UNL     1     -27.706  31.405 -10.477  1.00  0.00     0.158 HD
ATOM     23  H51 UNL     1     -26.799  32.421  -9.340  1.00  0.00     0.158 HD
ATOM     24  H4  UNL     1     -26.519  32.872 -13.465  1.00  0.00     0.163 HD
ENDBRANCH   8  18
TORSDOF 6
ENDMDL