MODEL 5
REMARK VINA RESULT: -5.755963592      1.864      2.185
REMARK  9 active torsions:
REMARK  status: ('A' for Active; 'I' for Inactive)
REMARK    1  A    between atoms: C2_2  and  N1_3
REMARK    2  A    between atoms: N1_3  and  C3_5
REMARK    3  A    between atoms: C4_8  and  N3_9
REMARK    4  A    between atoms: C5_14  and  N5_15
REMARK    5  A    between atoms: N5_15  and  C6_17
REMARK    6  A    between atoms: C6_17  and  C7_18
REMARK    7  A    between atoms: C7_18  and  C8_19
REMARK    8  A    between atoms: C8_19  and  C9_20
REMARK    9  A    between atoms: C9_20  and  N6_21
ROOT
HETATM    1  N6  UNL     1     -23.861  33.480 -15.053  1.00  0.00    -0.329 N
ATOM      2  H6  UNL     1     -24.753  33.330 -14.582  1.00  0.00     0.171 HD
HETATM    3  C10 UNL     1     -23.649  34.705 -15.710  1.00  0.00     0.177 C
HETATM    4  N7  UNL     1     -23.479  35.743 -16.236  1.00  0.00    -0.172 NA
ENDROOT
BRANCH   1   5
HETATM    5  C9  UNL     1     -22.882  32.429 -15.012  1.00  0.00     0.131 C
BRANCH   5   6
HETATM    6  C8  UNL     1     -23.301  31.101 -15.536  1.00  0.00     0.022 C
BRANCH   6   7
HETATM    7  C7  UNL     1     -24.682  31.002 -16.057  1.00  0.00     0.022 C
BRANCH   7   8
HETATM    8  C6  UNL     1     -25.510  29.940 -15.351  1.00  0.00     0.138 C
BRANCH   8   9
HETATM    9  N5  UNL     1     -25.579  30.095 -13.942  1.00  0.00    -0.225 N
ATOM     10  H5  UNL     1     -24.691  30.033 -13.443  1.00  0.00     0.177 HD
BRANCH   9  11
HETATM   11  C5  UNL     1     -26.604  30.301 -13.223  1.00  0.00     0.707 A
HETATM   12  N4  UNL     1     -26.633  30.277 -11.884  1.00  0.00    -0.022 N
HETATM   13  C4  UNL     1     -27.759  30.506 -11.162  1.00  0.00     0.705 A
ATOM     14  H4  UNL     1     -25.767  30.077 -11.383  1.00  0.00     0.203 HD
HETATM   15  N2  UNL     1     -28.900  30.770 -11.797  1.00  0.00    -0.022 N
HETATM   16  C3  UNL     1     -28.918  30.804 -13.131  1.00  0.00     0.707 A
ATOM     17  H2  UNL     1     -29.754  30.944 -11.268  1.00  0.00     0.203 HD
HETATM   18  N8  UNL     1     -27.780  30.572 -13.843  1.00  0.00    -0.022 N
ATOM     19  H8  UNL     1     -27.812  30.601 -14.862  1.00  0.00     0.203 HD
BRANCH  13  20
HETATM   20  N3  UNL     1     -27.736  30.472  -9.876  1.00  0.00    -0.234 N
ATOM     21  H32 UNL     1     -28.275  29.776  -9.361  1.00  0.00     0.174 HD
ATOM     22  H31 UNL     1     -27.172  31.149  -9.361  1.00  0.00     0.174 HD
ENDBRANCH  13  20
BRANCH  16  23
HETATM   23  N1  UNL     1     -30.011  31.058 -13.753  1.00  0.00    -0.225 N
ATOM     24  H1  UNL     1     -30.142  30.754 -14.718  1.00  0.00     0.177 HD
BRANCH  23  25
HETATM   25  C2  UNL     1     -31.053  31.782 -13.062  1.00  0.00     0.133 C
HETATM   26  C1  UNL     1     -32.425  31.214 -13.423  1.00  0.00     0.027 C
ENDBRANCH  23  25
ENDBRANCH  16  23
ENDBRANCH   9  11
ENDBRANCH   8   9
ENDBRANCH   7   8
ENDBRANCH   6   7
ENDBRANCH   5   6
ENDBRANCH   1   5
TORSDOF 9
ENDMDL