MODEL 1
REMARK VINA RESULT: -6.237641736      0.000      0.000
REMARK  8 active torsions:
REMARK  status: ('A' for Active; 'I' for Inactive)
REMARK    1  A    between atoms: C3_3  and  N1_4
REMARK    2  A    between atoms: N1_4  and  C4_6
REMARK    3  A    between atoms: C5_9  and  N3_10
REMARK    4  A    between atoms: C6_15  and  N5_16
REMARK    5  A    between atoms: N5_16  and  C7_18
REMARK    6  A    between atoms: C7_18  and  C8_19
REMARK    7  A    between atoms: C8_19  and  N6_20
REMARK    8  A    between atoms: N6_20  and  C9_23
ROOT
HETATM    1  C1  UNL     1     -22.141  32.126 -15.077  1.00  0.00     0.014 C
HETATM    2  C2  UNL     1     -23.121  31.478 -15.377  1.00  0.00    -0.097 C
HETATM    3  C3  UNL     1     -24.328  30.704 -15.760  1.00  0.00     0.231 C
ENDROOT
BRANCH   3   4
HETATM    4  N1  UNL     1     -24.772  29.950 -14.646  1.00  0.00    -0.215 N
ATOM      5  H1  UNL     1     -24.046  29.410 -14.175  1.00  0.00     0.178 HD
BRANCH   4   6
HETATM    6  C4  UNL     1     -25.925  29.841 -14.146  1.00  0.00     0.708 A
HETATM    7  N2  UNL     1     -26.316  28.732 -13.505  1.00  0.00    -0.022 N
HETATM    8  C5  UNL     1     -27.570  28.654 -12.984  1.00  0.00     0.705 A
ATOM      9  H2  UNL     1     -25.673  27.946 -13.407  1.00  0.00     0.203 HD
HETATM   10  N4  UNL     1     -28.401  29.702 -13.125  1.00  0.00    -0.022 N
HETATM   11  C6  UNL     1     -28.031  30.843 -13.775  1.00  0.00     0.707 A
ATOM     12  H4  UNL     1     -29.340  29.641 -12.733  1.00  0.00     0.203 HD
HETATM   13  N7  UNL     1     -26.789  30.895 -14.279  1.00  0.00    -0.021 N
ATOM     14  H7  UNL     1     -26.483  31.735 -14.769  1.00  0.00     0.203 HD
BRANCH   8  15
HETATM   15  N3  UNL     1     -27.904  27.566 -12.379  1.00  0.00    -0.234 N
ATOM     16  H32 UNL     1     -27.291  27.081 -11.725  1.00  0.00     0.174 HD
ATOM     17  H31 UNL     1     -28.830  27.182 -12.566  1.00  0.00     0.174 HD
ENDBRANCH   8  15
BRANCH  11  18
HETATM   18  N5  UNL     1     -28.922  31.752 -13.838  1.00  0.00    -0.223 N
ATOM     19  H5  UNL     1     -29.368  31.887 -14.746  1.00  0.00     0.177 HD
BRANCH  18  20
HETATM   20  C7  UNL     1     -29.368  32.608 -12.776  1.00  0.00     0.165 C
BRANCH  20  21
HETATM   21  C8  UNL     1     -30.888  32.576 -12.748  1.00  0.00     0.252 C
BRANCH  21  22
HETATM   22  N6  UNL     1     -31.397  31.429 -13.463  1.00  0.00    -0.074 N
ATOM     23  H62 UNL     1     -31.120  31.437 -14.444  1.00  0.00     0.277 HD
ATOM     24  H61 UNL     1     -30.930  30.567 -13.183  1.00  0.00     0.277 HD
BRANCH  22  25
HETATM   25  C9  UNL     1     -32.839  31.339 -13.308  1.00  0.00     0.228 C
HETATM   26  C10 UNL     1     -33.255  32.051 -12.037  1.00  0.00     0.034 C
ENDBRANCH  22  25
ENDBRANCH  21  22
ENDBRANCH  20  21
ENDBRANCH  18  20
ENDBRANCH  11  18
ENDBRANCH   4   6
ENDBRANCH   3   4
TORSDOF 8
ENDMDL