MODEL 4
REMARK VINA RESULT: -6.410365255      5.661      6.362
REMARK  7 active torsions:
REMARK  status: ('A' for Active; 'I' for Inactive)
REMARK    1  A    between atoms: N1_1  and  C1_4
REMARK    2  A    between atoms: C2_7  and  C3_8
REMARK    3  A    between atoms: N3_9  and  C4_11
REMARK    4  A    between atoms: C4_11  and  C5_12
REMARK    5  A    between atoms: C5_12  and  S1_13
REMARK    6  A    between atoms: S1_13  and  C6_14
REMARK    7  A    between atoms: C6_14  and  N4_15
ROOT
HETATM    1  C1  UNL     1     -29.254  31.158 -13.113  1.00  0.00     0.679 A
HETATM    2  N2  UNL     1     -28.340  32.005 -13.615  1.00  0.00    -0.191 N
ATOM      3  H2  UNL     1     -28.509  32.409 -14.536  1.00  0.00     0.184 HD
HETATM    4  C2  UNL     1     -27.216  32.348 -12.967  1.00  0.00     0.069 A
HETATM    5  C8  UNL     1     -26.973  31.810 -11.722  1.00  0.00     0.106 A
HETATM    6  C9  UNL     1     -27.912  30.941 -11.210  1.00  0.00     0.261 A
HETATM    7  O1  UNL     1     -27.712  30.438 -10.076  1.00  0.00    -0.268 OA
HETATM    8  N6  UNL     1     -29.011  30.637 -11.897  1.00  0.00    -0.156 N
ATOM      9  H6  UNL     1     -29.688  29.991 -11.491  1.00  0.00     0.187 HD
ENDROOT
BRANCH   4  10
HETATM   10  C3  UNL     1     -26.264  33.270 -13.562  1.00  0.00     0.113 C
HETATM   11  N3  UNL     1     -25.048  33.244 -13.133  1.00  0.00    -0.396 N
ATOM     12  H3  UNL     1     -24.750  32.601 -12.399  1.00  0.00     0.158 HD
BRANCH  11  13
HETATM   13  C4  UNL     1     -24.119  34.189 -13.758  1.00  0.00     0.129 C
BRANCH  13  14
HETATM   14  C5  UNL     1     -23.938  33.690 -15.183  1.00  0.00     0.095 C
BRANCH  14  15
HETATM   15  S1  UNL     1     -23.061  32.139 -15.283  1.00  0.00    -0.148 SA
BRANCH  15  16
HETATM   16  C6  UNL     1     -24.214  30.816 -15.723  1.00  0.00     0.194 C
BRANCH  16  17
HETATM   17  N4  UNL     1     -24.443  29.997 -14.554  1.00  0.00    -0.379 N
HETATM   18  C7  UNL     1     -25.597  29.468 -14.352  1.00  0.00     0.185 C
HETATM   19  N5  UNL     1     -26.673  29.656 -15.242  1.00  0.00    -0.097 NA
ATOM     20  H4  UNL     1     -23.687  29.839 -13.888  1.00  0.00     0.160 HD
ENDBRANCH  16  17
ENDBRANCH  15  16
ENDBRANCH  14  15
ENDBRANCH  13  14
ENDBRANCH  11  13
ENDBRANCH   4  10
BRANCH   1  21
HETATM   21  N1  UNL     1     -30.333  30.835 -13.744  1.00  0.00    -0.234 N
ATOM     22  H12 UNL     1     -31.073  31.526 -13.868  1.00  0.00     0.174 HD
ATOM     23  H11 UNL     1     -30.492  29.905 -14.133  1.00  0.00     0.174 HD
ENDBRANCH   1  21
TORSDOF 7
ENDMDL