MODEL 3
REMARK VINA RESULT: -5.743052889      2.502      6.418
REMARK  10 active torsions:
REMARK  status: ('A' for Active; 'I' for Inactive)
REMARK    1  A    between atoms: N1_1  and  C1_5
REMARK    2  A    between atoms: C1_5  and  C2_6
REMARK    3  A    between atoms: C2_6  and  N2_7
REMARK    4  A    between atoms: N2_7  and  C3_9
REMARK    5  A    between atoms: C6_14  and  N4_15
REMARK    6  A    between atoms: N4_15  and  C7_17
REMARK    7  A    between atoms: C8_18  and  N5_19
REMARK    8  A    between atoms: N5_19  and  C9_21
REMARK    9  A    between atoms: C9_21  and  C10_22
REMARK   10  A    between atoms: C10_22  and  O1_23
ROOT
HETATM    1  C3  UNL     1     -23.563  32.636 -15.017  1.00  0.00     0.679 A
HETATM    2  N3  UNL     1     -24.336  33.522 -15.649  1.00  0.00    -0.202 N
ATOM      3  H3  UNL     1     -25.034  33.176 -16.308  1.00  0.00     0.183 HD
HETATM    4  C4  UNL     1     -24.235  34.865 -15.454  1.00  0.00     0.110 A
HETATM    5  C5  UNL     1     -23.302  35.361 -14.572  1.00  0.00     0.066 A
HETATM    6  C6  UNL     1     -22.505  34.439 -13.920  1.00  0.00     0.122 A
HETATM    7  N6  UNL     1     -22.638  33.123 -14.143  1.00  0.00    -0.177 N
ATOM      8  H6  UNL     1     -22.032  32.470 -13.645  1.00  0.00     0.186 HD
ENDROOT
BRANCH   6   9
HETATM    9  N4  UNL     1     -21.623  34.888 -13.094  1.00  0.00    -0.351 N
ATOM     10  H4  UNL     1     -21.606  35.885 -12.875  1.00  0.00     0.166 HD
BRANCH   9  11
HETATM   11  C7  UNL     1     -20.676  34.024 -12.482  1.00  0.00     0.106 C
HETATM   12  C8  UNL     1     -19.427  34.331 -12.245  1.00  0.00     0.100 C
BRANCH  12  13
HETATM   13  N5  UNL     1     -18.583  33.389 -11.633  1.00  0.00    -0.396 N
ATOM     14  H5  UNL     1     -18.252  32.586 -12.168  1.00  0.00     0.159 HD
BRANCH  13  15
HETATM   15  C9  UNL     1     -18.183  33.543 -10.268  1.00  0.00     0.145 C
BRANCH  15  16
HETATM   16  C10 UNL     1     -18.754  32.557  -9.310  1.00  0.00     0.183 C
BRANCH  16  17
HETATM   17  O1  UNL     1     -20.005  32.074  -9.628  1.00  0.00    -0.399 OA
ATOM     18  H1  UNL     1     -20.134  31.145  -9.482  1.00  0.00     0.209 HD
ENDBRANCH  16  17
ENDBRANCH  15  16
ENDBRANCH  13  15
ENDBRANCH  12  13
ENDBRANCH   9  11
ENDBRANCH   6   9
BRANCH   1  19
HETATM   19  N2  UNL     1     -23.607  31.374 -15.158  1.00  0.00    -0.224 N
ATOM     20  H2  UNL     1     -22.864  30.850 -14.696  1.00  0.00     0.177 HD
BRANCH  19  21
HETATM   21  C2  UNL     1     -24.558  30.595 -15.878  1.00  0.00     0.165 C
BRANCH  21  22
HETATM   22  C1  UNL     1     -25.568  30.069 -14.847  1.00  0.00     0.249 C
BRANCH  22  23
HETATM   23  N1  UNL     1     -24.762  29.239 -13.941  1.00  0.00    -0.078 N
ATOM     24  H13 UNL     1     -25.303  28.761 -13.220  1.00  0.00     0.274 HD
ATOM     25  H12 UNL     1     -24.381  28.397 -14.373  1.00  0.00     0.274 HD
ATOM     26  H11 UNL     1     -24.055  29.878 -13.577  1.00  0.00     0.274 HD
ENDBRANCH  22  23
ENDBRANCH  21  22
ENDBRANCH  19  21
ENDBRANCH   1  19
TORSDOF 10
ENDMDL