MODEL 2
REMARK VINA RESULT: -5.829894971      1.477      1.847
REMARK  8 active torsions:
REMARK  status: ('A' for Active; 'I' for Inactive)
REMARK    1  A    between atoms: N2_6  and  C4_8
REMARK    2  A    between atoms: C4_8  and  C5_9
REMARK    3  A    between atoms: C5_9  and  N3_10
REMARK    4  A    between atoms: N5_17  and  C7_19
REMARK    5  A    between atoms: C7_19  and  C8_20
REMARK    6  A    between atoms: C8_20  and  C9_21
REMARK    7  A    between atoms: C9_21  and  C10_22
REMARK    8  A    between atoms: C10_22  and  N6_23
ROOT
HETATM    1  C1  UNL     1     -19.131  37.076 -12.494  1.00  0.00     0.064 C
HETATM    2  C2  UNL     1     -19.465  35.820 -12.260  1.00  0.00     0.127 A
HETATM    3  N1  UNL     1     -18.686  35.009 -11.381  1.00  0.00    -0.177 N
ATOM      4  H1  UNL     1     -17.859  35.395 -10.925  1.00  0.00     0.185 HD
HETATM    5  C3  UNL     1     -19.070  33.655 -11.144  1.00  0.00     0.694 A
HETATM    6  N2  UNL     1     -18.357  32.929 -10.346  1.00  0.00    -0.224 N
ATOM      7  H2  UNL     1     -18.642  31.962 -10.187  1.00  0.00     0.177 HD
HETATM    8  N4  UNL     1     -20.227  33.162 -11.803  1.00  0.00    -0.022 N
ATOM      9  H4  UNL     1     -20.505  32.194 -11.639  1.00  0.00     0.203 HD
HETATM   10  C6  UNL     1     -21.015  33.953 -12.680  1.00  0.00     0.694 A
HETATM   11  N5  UNL     1     -22.058  33.509 -13.274  1.00  0.00    -0.226 N
ATOM     12  H5  UNL     1     -22.310  32.538 -13.088  1.00  0.00     0.177 HD
HETATM   13  N7  UNL     1     -20.628  35.300 -12.912  1.00  0.00    -0.177 N
ATOM     14  H7  UNL     1     -21.175  35.892 -13.537  1.00  0.00     0.185 HD
ENDROOT
BRANCH  11  15
HETATM   15  C7  UNL     1     -22.903  34.224 -14.166  1.00  0.00     0.138 C
BRANCH  15  16
HETATM   16  C8  UNL     1     -23.398  33.394 -15.323  1.00  0.00     0.022 C
BRANCH  16  17
HETATM   17  C9  UNL     1     -22.859  31.995 -15.300  1.00  0.00     0.029 C
BRANCH  17  18
HETATM   18  C10 UNL     1     -23.852  30.961 -15.791  1.00  0.00     0.229 C
BRANCH  18  19
HETATM   19  N6  UNL     1     -24.251  30.183 -14.628  1.00  0.00    -0.079 N
ATOM     20  H63 UNL     1     -24.594  29.253 -14.863  1.00  0.00     0.274 HD
ATOM     21  H62 UNL     1     -23.463  29.887 -14.051  1.00  0.00     0.274 HD
ATOM     22  H61 UNL     1     -24.931  30.748 -14.120  1.00  0.00     0.274 HD
ENDBRANCH  18  19
ENDBRANCH  17  18
ENDBRANCH  16  17
ENDBRANCH  15  16
ENDBRANCH  11  15
BRANCH   6  23
HETATM   23  C4  UNL     1     -17.186  33.411  -9.673  1.00  0.00     0.165 C
BRANCH  23  24
HETATM   24  C5  UNL     1     -17.274  33.083  -8.178  1.00  0.00     0.249 C
BRANCH  24  25
HETATM   25  N3  UNL     1     -17.554  31.672  -8.009  1.00  0.00    -0.078 N
ATOM     26  H33 UNL     1     -16.951  31.241  -7.308  1.00  0.00     0.274 HD
ATOM     27  H32 UNL     1     -18.451  31.510  -7.550  1.00  0.00     0.274 HD
ATOM     28  H31 UNL     1     -17.493  31.203  -8.912  1.00  0.00     0.274 HD
ENDBRANCH  24  25
ENDBRANCH  23  24
ENDBRANCH   6  23
TORSDOF 8
ENDMDL