MODEL 3
REMARK VINA RESULT: -5.736637909      1.225      6.455
REMARK  8 active torsions:
REMARK  status: ('A' for Active; 'I' for Inactive)
REMARK    1  A    between atoms: N2_6  and  C4_8
REMARK    2  A    between atoms: C4_8  and  C5_9
REMARK    3  A    between atoms: C5_9  and  C6_10
REMARK    4  A    between atoms: C6_10  and  N3_11
REMARK    5  A    between atoms: N5_18  and  C8_20
REMARK    6  A    between atoms: C8_20  and  C9_21
REMARK    7  A    between atoms: C9_21  and  C10_22
REMARK    8  A    between atoms: C10_22  and  N6_23
ROOT
HETATM    1  C1  UNL     1     -20.992  37.281 -12.818  1.00  0.00     0.064 C
HETATM    2  C2  UNL     1     -20.865  35.965 -12.807  1.00  0.00     0.127 A
HETATM    3  N1  UNL     1     -21.813  35.155 -13.500  1.00  0.00    -0.177 N
ATOM      4  H1  UNL     1     -22.582  35.603 -13.999  1.00  0.00     0.185 HD
HETATM    5  C3  UNL     1     -21.709  33.734 -13.509  1.00  0.00     0.694 A
HETATM    6  N2  UNL     1     -22.570  33.010 -14.139  1.00  0.00    -0.225 N
ATOM      7  H2  UNL     1     -22.448  31.997 -14.113  1.00  0.00     0.177 HD
HETATM    8  N4  UNL     1     -20.627  33.140 -12.803  1.00  0.00    -0.022 N
ATOM      9  H4  UNL     1     -20.545  32.124 -12.805  1.00  0.00     0.203 HD
HETATM   10  C7  UNL     1     -19.655  33.899 -12.095  1.00  0.00     0.694 A
HETATM   11  N5  UNL     1     -18.676  33.316 -11.460  1.00  0.00    -0.225 N
ATOM     12  H5  UNL     1     -18.626  32.298 -11.483  1.00  0.00     0.177 HD
HETATM   13  N7  UNL     1     -19.803  35.317 -12.117  1.00  0.00    -0.177 N
ATOM     14  H7  UNL     1     -19.122  35.889 -11.619  1.00  0.00     0.185 HD
ENDROOT
BRANCH   6  15
HETATM   15  C4  UNL     1     -23.681  33.529 -14.869  1.00  0.00     0.139 C
BRANCH  15  16
HETATM   16  C5  UNL     1     -24.573  32.392 -15.361  1.00  0.00     0.047 C
BRANCH  16  17
HETATM   17  C6  UNL     1     -23.793  31.117 -15.515  1.00  0.00     0.231 C
BRANCH  17  18
HETATM   18  N3  UNL     1     -24.368  30.106 -14.645  1.00  0.00    -0.079 N
ATOM     19  H33 UNL     1     -25.159  29.628 -15.075  1.00  0.00     0.274 HD
ATOM     20  H32 UNL     1     -23.757  29.298 -14.533  1.00  0.00     0.274 HD
ATOM     21  H31 UNL     1     -24.611  30.537 -13.754  1.00  0.00     0.274 HD
ENDBRANCH  17  18
ENDBRANCH  16  17
ENDBRANCH  15  16
ENDBRANCH   6  15
BRANCH  11  22
HETATM   22  C8  UNL     1     -17.674  34.022 -10.736  1.00  0.00     0.139 C
BRANCH  22  23
HETATM   23  C9  UNL     1     -17.014  33.050  -9.754  1.00  0.00     0.047 C
BRANCH  23  24
HETATM   24  C10 UNL     1     -18.099  32.477  -8.865  1.00  0.00     0.231 C
BRANCH  24  25
HETATM   25  N6  UNL     1     -17.587  31.558  -7.883  1.00  0.00    -0.079 N
ATOM     26  H63 UNL     1     -16.778  31.052  -8.243  1.00  0.00     0.274 HD
ATOM     27  H62 UNL     1     -17.140  32.056  -7.113  1.00  0.00     0.274 HD
ATOM     28  H61 UNL     1     -18.297  30.914  -7.537  1.00  0.00     0.274 HD
ENDBRANCH  24  25
ENDBRANCH  23  24
ENDBRANCH  22  23
ENDBRANCH  11  22
TORSDOF 8
ENDMDL