MODEL 4
REMARK VINA RESULT: -6.062203603      1.707      2.098
REMARK  8 active torsions:
REMARK  status: ('A' for Active; 'I' for Inactive)
REMARK    1  A    between atoms: N1_1  and  C1_5
REMARK    2  A    between atoms: C1_5  and  C2_6
REMARK    3  A    between atoms: C2_6  and  C3_7
REMARK    4  A    between atoms: C3_7  and  N2_8
REMARK    5  A    between atoms: N2_8  and  C4_10
REMARK    6  A    between atoms: C4_10  and  C5_11
REMARK    7  A    between atoms: C5_11  and  N3_12
REMARK    8  A    between atoms: N3_12  and  C6_14
ROOT
HETATM    1  C6  UNL     1     -25.469  30.572 -14.203  1.00  0.00     0.681 A
HETATM    2  N4  UNL     1     -26.299  31.518 -14.646  1.00  0.00    -0.154 N
ATOM      3  H4  UNL     1     -26.046  32.000 -15.508  1.00  0.00     0.187 HD
HETATM    4  C7  UNL     1     -27.453  31.889 -14.038  1.00  0.00     0.288 A
HETATM    5  O1  UNL     1     -28.176  32.791 -14.523  1.00  0.00    -0.265 OA
HETATM    6  C8  UNL     1     -27.774  31.217 -12.869  1.00  0.00     0.129 A
HETATM    7  N5  UNL     1     -28.818  31.335 -12.030  1.00  0.00    -0.360 N
ATOM      8  H5  UNL     1     -29.584  31.996 -12.162  1.00  0.00     0.165 HD
HETATM    9  C9  UNL     1     -28.736  30.485 -11.003  1.00  0.00     0.091 A
HETATM   10  C10 UNL     1     -27.561  29.787 -11.212  1.00  0.00     0.049 A
HETATM   11  C11 UNL     1     -26.944  30.233 -12.379  1.00  0.00     0.082 A
HETATM   12  N6  UNL     1     -25.835  29.935 -13.037  1.00  0.00    -0.189 N
ATOM     13  H6  UNL     1     -25.226  29.205 -12.666  1.00  0.00     0.184 HD
ENDROOT
BRANCH   1  14
HETATM   14  N3  UNL     1     -24.349  30.242 -14.737  1.00  0.00    -0.224 N
ATOM     15  H3  UNL     1     -23.842  29.463 -14.320  1.00  0.00     0.177 HD
BRANCH  14  16
HETATM   16  C5  UNL     1     -23.761  30.877 -15.866  1.00  0.00     0.157 C
BRANCH  16  17
HETATM   17  C4  UNL     1     -22.517  31.692 -15.423  1.00  0.00     0.139 C
BRANCH  17  18
HETATM   18  N2  UNL     1     -22.795  32.540 -14.346  1.00  0.00    -0.401 N
ATOM     19  H2  UNL     1     -22.930  32.134 -13.419  1.00  0.00     0.158 HD
BRANCH  18  20
HETATM   20  C3  UNL     1     -22.894  33.929 -14.499  1.00  0.00     0.057 C
BRANCH  20  21
HETATM   21  C2  UNL     1     -23.858  34.464 -15.486  1.00  0.00     0.071 C
BRANCH  21  22
HETATM   22  C1  UNL     1     -25.161  34.953 -14.997  1.00  0.00     0.234 C
BRANCH  22  23
HETATM   23  N1  UNL     1     -26.169  34.717 -16.054  1.00  0.00    -0.079 N
ATOM     24  H13 UNL     1     -26.856  35.469 -16.117  1.00  0.00     0.274 HD
ATOM     25  H12 UNL     1     -25.782  34.804 -16.993  1.00  0.00     0.274 HD
ATOM     26  H11 UNL     1     -26.597  33.806 -15.888  1.00  0.00     0.274 HD
ENDBRANCH  22  23
ENDBRANCH  21  22
ENDBRANCH  20  21
ENDBRANCH  18  20
ENDBRANCH  17  18
ENDBRANCH  16  17
ENDBRANCH  14  16
ENDBRANCH   1  14
TORSDOF 8
ENDMDL