MODEL 4
REMARK VINA RESULT: -5.976047775      1.549      1.701
REMARK  9 active torsions:
REMARK  status: ('A' for Active; 'I' for Inactive)
REMARK    1  A    between atoms: C3_3  and  N1_4
REMARK    2  A    between atoms: N1_4  and  C4_6
REMARK    3  A    between atoms: C5_9  and  N3_10
REMARK    4  A    between atoms: C6_15  and  N5_16
REMARK    5  A    between atoms: N5_16  and  C7_18
REMARK    6  A    between atoms: C7_18  and  C8_19
REMARK    7  A    between atoms: C8_19  and  C9_20
REMARK    8  A    between atoms: C9_20  and  C10_21
REMARK    9  A    between atoms: C10_21  and  N6_22
ROOT
HETATM    1  C1  UNL     1     -32.984  32.326 -12.877  1.00  0.00     0.014 C
HETATM    2  C2  UNL     1     -32.155  31.491 -13.197  1.00  0.00    -0.097 C
HETATM    3  C3  UNL     1     -31.148  30.493 -13.559  1.00  0.00     0.231 C
ENDROOT
BRANCH   3   4
HETATM    4  N1  UNL     1     -29.882  31.103 -13.893  1.00  0.00    -0.215 N
ATOM      5  H1  UNL     1     -29.820  31.752 -14.677  1.00  0.00     0.178 HD
BRANCH   4   6
HETATM    6  C4  UNL     1     -28.831  30.829 -13.202  1.00  0.00     0.708 A
HETATM    7  N2  UNL     1     -28.814  30.864 -11.861  1.00  0.00    -0.022 N
HETATM    8  C5  UNL     1     -27.706  30.576 -11.141  1.00  0.00     0.705 A
ATOM      9  H2  UNL     1     -29.669  31.118 -11.366  1.00  0.00     0.203 HD
HETATM   10  N4  UNL     1     -26.587  30.242 -11.830  1.00  0.00    -0.022 N
HETATM   11  C6  UNL     1     -26.559  30.195 -13.166  1.00  0.00     0.707 A
ATOM     12  H4  UNL     1     -25.737  30.019 -11.311  1.00  0.00     0.203 HD
HETATM   13  N7  UNL     1     -27.688  30.492 -13.830  1.00  0.00    -0.021 N
ATOM     14  H7  UNL     1     -27.680  30.461 -14.850  1.00  0.00     0.203 HD
BRANCH   8  15
HETATM   15  N3  UNL     1     -27.750  30.627  -9.854  1.00  0.00    -0.234 N
ATOM     16  H32 UNL     1     -28.416  30.088  -9.299  1.00  0.00     0.174 HD
ATOM     17  H31 UNL     1     -27.099  31.228  -9.350  1.00  0.00     0.174 HD
ENDBRANCH   8  15
BRANCH  11  18
HETATM   18  N5  UNL     1     -25.518  29.884 -13.856  1.00  0.00    -0.225 N
ATOM     19  H5  UNL     1     -24.668  29.651 -13.344  1.00  0.00     0.177 HD
BRANCH  18  20
HETATM   20  C7  UNL     1     -25.462  29.839 -15.278  1.00  0.00     0.138 C
BRANCH  20  21
HETATM   21  C8  UNL     1     -24.344  30.760 -15.735  1.00  0.00     0.022 C
BRANCH  21  22
HETATM   22  C9  UNL     1     -24.815  32.199 -15.677  1.00  0.00     0.029 C
BRANCH  22  23
HETATM   23  C10 UNL     1     -23.746  33.022 -14.997  1.00  0.00     0.229 C
BRANCH  23  24
HETATM   24  N6  UNL     1     -22.608  32.181 -14.725  1.00  0.00    -0.079 N
ATOM     25  H63 UNL     1     -22.748  31.593 -13.903  1.00  0.00     0.274 HD
ATOM     26  H62 UNL     1     -22.499  31.438 -15.416  1.00  0.00     0.274 HD
ATOM     27  H61 UNL     1     -21.775  32.764 -14.649  1.00  0.00     0.274 HD
ENDBRANCH  23  24
ENDBRANCH  22  23
ENDBRANCH  21  22
ENDBRANCH  20  21
ENDBRANCH  18  20
ENDBRANCH  11  18
ENDBRANCH   4   6
ENDBRANCH   3   4
TORSDOF 9
ENDMDL