MODEL 3
REMARK VINA RESULT: -6.131112322      1.728      2.077
REMARK  9 active torsions:
REMARK  status: ('A' for Active; 'I' for Inactive)
REMARK    1  A    between atoms: C3_3  and  C4_4
REMARK    2  A    between atoms: C4_4  and  N1_5
REMARK    3  A    between atoms: N1_5  and  C5_7
REMARK    4  A    between atoms: C6_10  and  N3_11
REMARK    5  A    between atoms: C7_16  and  N5_17
REMARK    6  A    between atoms: N5_17  and  C8_19
REMARK    7  A    between atoms: C8_19  and  C9_20
REMARK    8  A    between atoms: C9_20  and  C10_21
REMARK    9  A    between atoms: C10_21  and  O1_22
ROOT
HETATM    1  C1  UNL     1     -32.264  31.076 -13.394  1.00  0.00     0.012 C
HETATM    2  C2  UNL     1     -31.509  31.988 -13.112  1.00  0.00    -0.116 C
HETATM    3  C3  UNL     1     -30.610  33.088 -12.749  1.00  0.00     0.113 C
ENDROOT
BRANCH   3   4
HETATM    4  C4  UNL     1     -29.236  32.527 -12.428  1.00  0.00     0.150 C
BRANCH   4   5
HETATM    5  N1  UNL     1     -28.614  32.062 -13.639  1.00  0.00    -0.224 N
ATOM      6  H1  UNL     1     -28.762  32.552 -14.521  1.00  0.00     0.177 HD
BRANCH   5   7
HETATM    7  C5  UNL     1     -27.856  31.000 -13.589  1.00  0.00     0.707 A
HETATM    8  N2  UNL     1     -28.283  29.870 -12.997  1.00  0.00    -0.022 N
HETATM    9  C6  UNL     1     -27.502  28.775 -12.945  1.00  0.00     0.705 A
ATOM     10  H2  UNL     1     -29.214  29.842 -12.580  1.00  0.00     0.203 HD
HETATM   11  N4  UNL     1     -26.277  28.818 -13.494  1.00  0.00    -0.022 N
HETATM   12  C7  UNL     1     -25.812  29.929 -14.096  1.00  0.00     0.707 A
ATOM     13  H4  UNL     1     -25.685  27.988 -13.455  1.00  0.00     0.203 HD
HETATM   14  N6  UNL     1     -26.624  30.997 -14.125  1.00  0.00    -0.022 N
ATOM     15  H6  UNL     1     -26.290  31.849 -14.577  1.00  0.00     0.203 HD
BRANCH   9  16
HETATM   16  N3  UNL     1     -27.918  27.679 -12.370  1.00  0.00    -0.234 N
ATOM     17  H32 UNL     1     -27.584  27.438 -11.437  1.00  0.00     0.174 HD
ATOM     18  H31 UNL     1     -28.574  27.056 -12.840  1.00  0.00     0.174 HD
ENDBRANCH   9  16
BRANCH  12  19
HETATM   19  N5  UNL     1     -24.621  29.946 -14.621  1.00  0.00    -0.225 N
ATOM     20  H5  UNL     1     -23.934  29.293 -14.245  1.00  0.00     0.177 HD
BRANCH  19  21
HETATM   21  C8  UNL     1     -24.200  30.805 -15.680  1.00  0.00     0.140 C
BRANCH  21  22
HETATM   22  C9  UNL     1     -22.931  31.574 -15.370  1.00  0.00     0.046 C
BRANCH  22  23
HETATM   23  C10 UNL     1     -23.247  33.005 -14.979  1.00  0.00     0.165 C
BRANCH  23  24
HETATM   24  O1  UNL     1     -24.138  32.975 -13.911  1.00  0.00    -0.401 OA
ATOM     25  H1  UNL     1     -24.517  33.841 -13.817  1.00  0.00     0.209 HD
ENDBRANCH  23  24
ENDBRANCH  22  23
ENDBRANCH  21  22
ENDBRANCH  19  21
ENDBRANCH  12  19
ENDBRANCH   5   7
ENDBRANCH   4   5
ENDBRANCH   3   4
TORSDOF 9
ENDMDL