MODEL 3
REMARK VINA RESULT: -6.066383563      2.945      3.756
REMARK  8 active torsions:
REMARK  status: ('A' for Active; 'I' for Inactive)
REMARK    1  A    between atoms: N1_1  and  C1_4
REMARK    2  A    between atoms: N3_7  and  C2_8
REMARK    3  A    between atoms: C2_8  and  C3_9
REMARK    4  A    between atoms: C3_9  and  C4_10
REMARK    5  A    between atoms: C4_10  and  C5_11
REMARK    6  A    between atoms: C5_11  and  O1_12
REMARK    7  A    between atoms: C6_15  and  N5_16
REMARK    8  A    between atoms: C7_22  and  N8_23
ROOT
HETATM    1  C1  UNL     1      38.653  28.170   9.640  1.00  0.00     0.163 A
HETATM    2  N2  UNL     1      39.167  28.984  10.574  1.00  0.00    -0.264 N
ATOM      3  H2  UNL     1      39.942  29.605  10.344  1.00  0.00     0.190 HD
HETATM    4  N3  UNL     1      38.656  28.975  11.808  1.00  0.00    -0.194 N
HETATM    5  N4  UNL     1      37.650  28.179  12.134  1.00  0.00     0.022 N
HETATM    6  C6  UNL     1      36.775  27.718  13.040  1.00  0.00     0.732 A
HETATM    7  N6  UNL     1      36.265  26.909  12.109  1.00  0.00    -0.104 N
ATOM      8  H6  UNL     1      35.515  26.218  12.089  1.00  0.00     0.208 HD
HETATM    9  N7  UNL     1      37.130  27.371  11.227  1.00  0.00    -0.124 N
HETATM   10  C7  UNL     1      37.611  27.339   9.959  1.00  0.00     0.187 A
ENDROOT
BRANCH   4  11
HETATM   11  C2  UNL     1      39.243  29.870  12.785  1.00  0.00     0.172 C
BRANCH  11  12
HETATM   12  C3  UNL     1      40.690  30.164  12.432  1.00  0.00     0.026 C
BRANCH  12  13
HETATM   13  C4  UNL     1      41.621  29.144  13.037  1.00  0.00     0.028 C
BRANCH  13  14
HETATM   14  C5  UNL     1      43.058  29.526  12.850  1.00  0.00     0.164 C
BRANCH  14  15
HETATM   15  O1  UNL     1      43.611  30.026  14.033  1.00  0.00    -0.401 OA
ATOM     16  H1  UNL     1      44.537  29.825  14.094  1.00  0.00     0.209 HD
ENDBRANCH  14  15
ENDBRANCH  13  14
ENDBRANCH  12  13
ENDBRANCH  11  12
ENDBRANCH   4  11
BRANCH   1  17
HETATM   17  N1  UNL     1      39.127  28.165   8.457  1.00  0.00    -0.381 N
ATOM     18  H12 UNL     1      39.625  28.983   8.108  1.00  0.00     0.157 HD
ATOM     19  H11 UNL     1      39.012  27.348   7.858  1.00  0.00     0.157 HD
ENDBRANCH   1  17
BRANCH   6  20
HETATM   20  N5  UNL     1      36.546  27.969  14.286  1.00  0.00    -0.230 N
ATOM     21  H52 UNL     1      37.106  28.193  15.109  1.00  0.00     0.174 HD
ATOM     22  H51 UNL     1      35.705  28.027  14.860  1.00  0.00     0.174 HD
ENDBRANCH   6  20
BRANCH  10  23
HETATM   23  N8  UNL     1      37.106  26.560   9.093  1.00  0.00    -0.380 N
ATOM     24  H82 UNL     1      37.279  26.704   8.098  1.00  0.00     0.158 HD
ATOM     25  H81 UNL     1      36.519  25.774   9.371  1.00  0.00     0.158 HD
ENDBRANCH  10  23
TORSDOF 8
ENDMDL