MODEL 2
REMARK VINA RESULT: -6.197041089      0.915      1.055
REMARK  8 active torsions:
REMARK  status: ('A' for Active; 'I' for Inactive)
REMARK    1  A    between atoms: N1_1  and  C1_5
REMARK    2  A    between atoms: C1_5  and  C2_6
REMARK    3  A    between atoms: C2_6  and  C3_7
REMARK    4  A    between atoms: C3_7  and  N2_8
REMARK    5  A    between atoms: N2_8  and  C4_10
REMARK    6  A    between atoms: C4_10  and  C5_11
REMARK    7  A    between atoms: C8_21  and  O1_22
REMARK    8  A    between atoms: C9_24  and  N7_25
ROOT
HETATM    1  C5  UNL     1      39.239  29.250  11.508  1.00  0.00     0.134 C
HETATM    2  N3  UNL     1      38.279  28.390  10.892  1.00  0.00    -0.365 N
ATOM      3  H3  UNL     1      38.285  28.205   9.889  1.00  0.00     0.161 HD
HETATM    4  C6  UNL     1      37.303  27.800  11.769  1.00  0.00     0.141 A
HETATM    5  N4  UNL     1      36.625  26.620  11.733  1.00  0.00    -0.268 N
ATOM      6  H4  UNL     1      36.696  25.896  11.019  1.00  0.00     0.186 HD
HETATM    7  N5  UNL     1      35.844  26.599  12.822  1.00  0.00    -0.021 NA
HETATM    8  N6  UNL     1      36.021  27.710  13.515  1.00  0.00    -0.282 N
ATOM      9  H6  UNL     1      35.546  27.943  14.388  1.00  0.00     0.184 HD
HETATM   10  C7  UNL     1      36.927  28.490  12.888  1.00  0.00     0.099 A
HETATM   11  C8  UNL     1      37.481  29.809  13.215  1.00  0.00     0.205 C
HETATM   12  C9  UNL     1      38.650  30.248  12.435  1.00  0.00     0.242 C
ENDROOT
BRANCH   1  13
HETATM   13  C4  UNL     1      40.072  29.929  10.410  1.00  0.00     0.146 C
BRANCH  13  14
HETATM   14  N2  UNL     1      41.394  29.484  10.404  1.00  0.00    -0.400 N
ATOM     15  H2  UNL     1      41.796  29.029  11.224  1.00  0.00     0.158 HD
BRANCH  14  16
HETATM   16  C3  UNL     1      42.154  29.678   9.247  1.00  0.00     0.057 C
BRANCH  16  17
HETATM   17  C2  UNL     1      41.553  30.063   7.968  1.00  0.00     0.071 C
BRANCH  17  18
HETATM   18  C1  UNL     1      41.493  29.123   6.834  1.00  0.00     0.234 C
BRANCH  18  19
HETATM   19  N1  UNL     1      40.437  28.121   7.208  1.00  0.00    -0.079 N
ATOM     20  H13 UNL     1      40.673  27.160   6.959  1.00  0.00     0.274 HD
ATOM     21  H12 UNL     1      40.355  27.964   8.213  1.00  0.00     0.274 HD
ATOM     22  H11 UNL     1      39.579  28.460   6.772  1.00  0.00     0.274 HD
ENDBRANCH  18  19
ENDBRANCH  17  18
ENDBRANCH  16  17
ENDBRANCH  14  16
ENDBRANCH  13  14
ENDBRANCH   1  13
BRANCH  12  23
HETATM   23  N7  UNL     1      39.752  30.706  13.299  1.00  0.00    -0.070 N
ATOM     24  H73 UNL     1      40.519  31.139  12.785  1.00  0.00     0.274 HD
ATOM     25  H72 UNL     1      39.510  31.517  13.868  1.00  0.00     0.274 HD
ATOM     26  H71 UNL     1      40.038  29.896  13.849  1.00  0.00     0.274 HD
ENDBRANCH  12  23
BRANCH  11  27
HETATM   27  O1  UNL     1      37.703  29.890  14.616  1.00  0.00    -0.387 OA
ATOM     28  H1  UNL     1      38.517  29.448  14.830  1.00  0.00     0.210 HD
ENDBRANCH  11  27
TORSDOF 8
ENDMDL