MODEL 5
REMARK VINA RESULT: -6.429904827      1.863      5.617
REMARK  7 active torsions:
REMARK  status: ('A' for Active; 'I' for Inactive)
REMARK    1  A    between atoms: N3_7  and  C4_9
REMARK    2  A    between atoms: C4_9  and  C5_10
REMARK    3  A    between atoms: C5_10  and  N4_11
REMARK    4  A    between atoms: C5_10  and  C6_15
REMARK    5  A    between atoms: C5_10  and  C7_18
REMARK    6  A    between atoms: C6_15  and  O1_16
REMARK    7  A    between atoms: C7_18  and  O2_19
ROOT
HETATM    1  N1  UNL     1      41.365  30.402   7.688  1.00  0.00    -0.063 NA
HETATM    2  C1  UNL     1      41.094  30.241   9.073  1.00  0.00     0.194 A
HETATM    3  N2  UNL     1      39.917  30.087   9.696  1.00  0.00    -0.324 N
ATOM      4  H2  UNL     1      39.005  30.064   9.239  1.00  0.00     0.169 HD
HETATM    5  C2  UNL     1      40.130  29.969  11.029  1.00  0.00     0.134 A
HETATM    6  C3  UNL     1      39.550  29.798  12.288  1.00  0.00     0.197 A
HETATM    7  N3  UNL     1      38.280  29.682  12.462  1.00  0.00    -0.364 N
ATOM      8  H3  UNL     1      37.641  29.712  11.668  1.00  0.00     0.161 HD
HETATM    9  O3  UNL     1      40.525  29.785  13.153  1.00  0.00    -0.216 OA
HETATM   10  N5  UNL     1      41.688  29.937  12.546  1.00  0.00    -0.241 N
ATOM     11  H5  UNL     1      42.597  29.960  13.008  1.00  0.00     0.196 HD
HETATM   12  C8  UNL     1      41.486  30.053  11.235  1.00  0.00     0.159 A
HETATM   13  N6  UNL     1      42.053  30.217  10.043  1.00  0.00    -0.313 N
ATOM     14  H6  UNL     1      43.055  30.311   9.879  1.00  0.00     0.170 HD
ENDROOT
BRANCH   7  15
HETATM   15  C4  UNL     1      37.787  29.509  13.791  1.00  0.00     0.165 C
BRANCH  15  16
HETATM   16  C5  UNL     1      37.162  28.159  14.023  1.00  0.00     0.181 C
BRANCH  16  17
HETATM   17  N4  UNL     1      35.922  28.382  14.747  1.00  0.00    -0.065 N
ATOM     18  H43 UNL     1      36.069  28.633  15.724  1.00  0.00     0.275 HD
ATOM     19  H42 UNL     1      35.440  29.235  14.464  1.00  0.00     0.275 HD
ATOM     20  H41 UNL     1      35.352  27.544  14.630  1.00  0.00     0.275 HD
ENDBRANCH  16  17
BRANCH  16  21
HETATM   21  C6  UNL     1      38.065  27.285  14.867  1.00  0.00     0.206 C
BRANCH  21  22
HETATM   22  O1  UNL     1      39.394  27.625  14.695  1.00  0.00    -0.398 OA
ATOM     23  H1  UNL     1      39.935  27.256  15.383  1.00  0.00     0.209 HD
ENDBRANCH  21  22
ENDBRANCH  16  21
BRANCH  16  24
HETATM   24  C7  UNL     1      36.830  27.437  12.757  1.00  0.00     0.206 C
BRANCH  24  25
HETATM   25  O2  UNL     1      35.815  28.153  12.114  1.00  0.00    -0.398 OA
ATOM     26  H2  UNL     1      35.436  27.585  11.454  1.00  0.00     0.209 HD
ENDBRANCH  24  25
ENDBRANCH  16  24
ENDBRANCH  15  16
ENDBRANCH   7  15
TORSDOF 7
ENDMDL