MODEL 5
REMARK VINA RESULT: -5.811077967      2.541      3.255
REMARK  9 active torsions:
REMARK  status: ('A' for Active; 'I' for Inactive)
REMARK    1  A    between atoms: N1_1  and  C1_4
REMARK    2  A    between atoms: C2_10  and  N5_11
REMARK    3  A    between atoms: N6_13  and  N7_15
REMARK    4  A    between atoms: N7_15  and  C3_17
REMARK    5  A    between atoms: C3_17  and  N8_18
REMARK    6  A    between atoms: C3_17  and  C4_22
REMARK    7  A    between atoms: C3_17  and  N10_27
REMARK    8  A    between atoms: C4_22  and  N9_23
REMARK    9  A    between atoms: N10_27  and  N11_29
ROOT
HETATM    1  N7  UNL     1      39.783  28.110   8.111  1.00  0.00    -0.267 N
ATOM      2  H7  UNL     1      39.480  27.929   7.153  1.00  0.00     0.186 HD
ENDROOT
BRANCH   1   3
HETATM    3  N6  UNL     1      39.035  27.564   9.133  1.00  0.00    -0.242 N
HETATM    4  N5  UNL     1      37.983  28.037   9.618  1.00  0.00    -0.267 N
ATOM      5  H5  UNL     1      37.594  28.909   9.261  1.00  0.00     0.190 HD
ATOM      6  H6  UNL     1      39.374  26.689   9.534  1.00  0.00     0.208 HD
BRANCH   4   7
HETATM    7  C2  UNL     1      37.343  27.339  10.670  1.00  0.00     0.179 A
HETATM    8  C1  UNL     1      37.086  27.774  11.952  1.00  0.00     0.159 A
HETATM    9  N2  UNL     1      36.462  26.792  12.616  1.00  0.00    -0.267 N
HETATM   10  N3  UNL     1      36.327  25.772  11.787  1.00  0.00    -0.019 NA
ATOM     11  H2  UNL     1      36.149  26.826  13.586  1.00  0.00     0.186 HD
HETATM   12  N4  UNL     1      36.854  26.089  10.614  1.00  0.00    -0.265 N
ATOM     13  H4  UNL     1      36.884  25.481   9.796  1.00  0.00     0.186 HD
BRANCH   8  14
HETATM   14  N1  UNL     1      37.403  28.930  12.407  1.00  0.00    -0.382 N
ATOM     15  H12 UNL     1      38.007  29.090  13.213  1.00  0.00     0.157 HD
ATOM     16  H11 UNL     1      37.107  29.836  12.041  1.00  0.00     0.157 HD
ENDBRANCH   8  14
ENDBRANCH   4   7
ENDBRANCH   1   3
BRANCH   1  17
HETATM   17  C3  UNL     1      40.961  28.917   8.300  1.00  0.00     0.328 C
BRANCH  17  18
HETATM   18  N8  UNL     1      41.954  28.223   9.076  1.00  0.00    -0.029 N
ATOM     19  H83 UNL     1      42.625  27.740   8.479  1.00  0.00     0.279 HD
ATOM     20  H82 UNL     1      42.592  28.873   9.535  1.00  0.00     0.279 HD
ATOM     21  H81 UNL     1      41.523  27.587   9.747  1.00  0.00     0.279 HD
ENDBRANCH  17  18
BRANCH  17  22
HETATM   22  C4  UNL     1      41.514  29.239   6.904  1.00  0.00     0.317 C
BRANCH  22  23
HETATM   23  N9  UNL     1      42.372  30.391   6.997  1.00  0.00    -0.073 N
ATOM     24  H93 UNL     1      42.441  30.749   7.950  1.00  0.00     0.274 HD
ATOM     25  H92 UNL     1      43.355  30.156   6.862  1.00  0.00     0.274 HD
ATOM     26  H91 UNL     1      42.046  31.099   6.338  1.00  0.00     0.274 HD
ENDBRANCH  22  23
ENDBRANCH  17  22
BRANCH  17  27
HETATM   27  N10 UNL     1      40.614  30.191   8.897  1.00  0.00    -0.221 N
ATOM     28  H10 UNL     1      40.291  30.959   8.309  1.00  0.00     0.191 HD
BRANCH  27  29
HETATM   29  N11 UNL     1      40.723  30.364  10.268  1.00  0.00    -0.040 N
HETATM   30  O1  UNL     1      39.941  29.795  11.039  1.00  0.00    -0.517 OA
HETATM   31  O2  UNL     1      41.698  31.167  10.767  1.00  0.00    -0.517 OA
ENDBRANCH  27  29
ENDBRANCH  17  27
ENDBRANCH   1  17
TORSDOF 9
ENDMDL