MODEL 1
REMARK VINA RESULT: -6.539212053      0.000      0.000
REMARK  9 active torsions:
REMARK  status: ('A' for Active; 'I' for Inactive)
REMARK    1  A    between atoms: N1_1  and  C1_4
REMARK    2  A    between atoms: C4_11  and  N5_12
REMARK    3  A    between atoms: N5_12  and  C5_14
REMARK    4  A    between atoms: C5_14  and  C6_15
REMARK    5  A    between atoms: C5_14  and  C7_20
REMARK    6  A    between atoms: C6_15  and  N6_16
REMARK    7  A    between atoms: C7_20  and  C8_21
REMARK    8  A    between atoms: C8_21  and  O1_22
REMARK    9  A    between atoms: N7_24  and  O2_25
ROOT
HETATM    1  C1  UNL     1      36.468  28.273  13.631  1.00  0.00     0.705 A
HETATM    2  N2  UNL     1      36.288  27.231  12.807  1.00  0.00    -0.175 N
ATOM      3  H2  UNL     1      35.613  26.496  13.016  1.00  0.00     0.185 HD
HETATM    4  C2  UNL     1      37.036  27.199  11.696  1.00  0.00     0.160 A
HETATM    5  N3  UNL     1      36.868  26.104  10.799  1.00  0.00    -0.080 NA
HETATM    6  C3  UNL     1      37.932  28.170  11.417  1.00  0.00     0.134 A
HETATM    7  N4  UNL     1      38.687  28.075  10.231  1.00  0.00    -0.095 NA
HETATM    8  C4  UNL     1      38.119  29.262  12.283  1.00  0.00     0.175 A
HETATM    9  N7  UNL     1      37.352  29.259  13.384  1.00  0.00    -0.034 N
ENDROOT
BRANCH   8  10
HETATM   10  N5  UNL     1      38.958  30.120  11.969  1.00  0.00    -0.366 N
ATOM     11  H5  UNL     1      38.597  30.768  11.270  1.00  0.00     0.161 HD
BRANCH  10  12
HETATM   12  C5  UNL     1      40.276  30.423  12.333  1.00  0.00     0.110 C
BRANCH  12  13
HETATM   13  C6  UNL     1      41.171  30.693  11.145  1.00  0.00     0.254 C
BRANCH  13  14
HETATM   14  N6  UNL     1      40.538  30.330   9.893  1.00  0.00    -0.077 N
ATOM     15  H63 UNL     1      40.978  29.507   9.481  1.00  0.00     0.274 HD
ATOM     16  H62 UNL     1      39.603  29.951  10.046  1.00  0.00     0.274 HD
ATOM     17  H61 UNL     1      40.518  31.108   9.234  1.00  0.00     0.274 HD
ENDBRANCH  13  14
ENDBRANCH  12  13
BRANCH  12  18
HETATM   18  C7  UNL     1      40.821  29.252  13.152  1.00  0.00     0.053 C
BRANCH  18  19
HETATM   19  C8  UNL     1      42.289  29.083  12.828  1.00  0.00     0.166 C
BRANCH  19  20
HETATM   20  O1  UNL     1      42.798  28.024  13.584  1.00  0.00    -0.401 OA
ATOM     21  H1  UNL     1      43.386  28.373  14.243  1.00  0.00     0.209 HD
ENDBRANCH  19  20
ENDBRANCH  18  19
ENDBRANCH  12  18
ENDBRANCH  10  12
ENDBRANCH   8  10
BRANCH   9  22
HETATM   22  O2  UNL     1      37.431  30.276  14.329  1.00  0.00    -0.268 OA
ATOM     23  H2  UNL     1      37.921  31.050  14.081  1.00  0.00     0.246 HD
ENDBRANCH   9  22
BRANCH   1  24
HETATM   24  N1  UNL     1      35.763  28.344  14.719  1.00  0.00    -0.232 N
ATOM     25  H12 UNL     1      34.840  28.775  14.665  1.00  0.00     0.174 HD
ATOM     26  H11 UNL     1      36.151  27.969  15.585  1.00  0.00     0.174 HD
ENDBRANCH   1  24
TORSDOF 9
ENDMDL