MODEL 2
REMARK VINA RESULT: -6.554672042      1.491      1.781
REMARK  7 active torsions:
REMARK  status: ('A' for Active; 'I' for Inactive)
REMARK    1  A    between atoms: N1_1  and  C1_4
REMARK    2  A    between atoms: C2_7  and  C3_8
REMARK    3  A    between atoms: C3_8  and  C4_9
REMARK    4  A    between atoms: C4_9  and  C5_10
REMARK    5  A    between atoms: C5_10  and  O1_11
REMARK    6  A    between atoms: O1_11  and  C6_12
REMARK    7  A    between atoms: C7_15  and  O2_16
ROOT
HETATM    1  C1  UNL     1      37.520  27.380  10.232  1.00  0.00     0.691 A
HETATM    2  N2  UNL     1      37.552  28.111  11.347  1.00  0.00    -0.178 N
ATOM      3  H2  UNL     1      37.976  29.035  11.430  1.00  0.00     0.185 HD
HETATM    4  C2  UNL     1      36.931  27.437  12.363  1.00  0.00     0.112 A
HETATM    5  N5  UNL     1      36.526  26.278  11.825  1.00  0.00    -0.274 N
ATOM      6  H5  UNL     1      36.025  25.539  12.318  1.00  0.00     0.189 HD
HETATM    7  N6  UNL     1      36.880  26.249  10.551  1.00  0.00    -0.131 N
ATOM      8  H6  UNL     1      36.693  25.480   9.908  1.00  0.00     0.205 HD
ENDROOT
BRANCH   4   9
HETATM    9  C3  UNL     1      36.797  27.918  13.760  1.00  0.00     0.080 C
BRANCH   9  10
HETATM   10  C4  UNL     1      37.289  29.288  14.012  1.00  0.00     0.034 C
BRANCH  10  11
HETATM   11  C5  UNL     1      38.747  29.442  14.274  1.00  0.00     0.172 C
BRANCH  11  12
HETATM   12  O1  UNL     1      39.462  29.890  13.175  1.00  0.00    -0.346 OA
BRANCH  12  13
HETATM   13  C6  UNL     1      40.620  29.221  12.919  1.00  0.00     0.380 C
HETATM   14  N3  UNL     1      40.962  28.252  13.973  1.00  0.00    -0.084 NA
HETATM   15  N4  UNL     1      42.297  27.962  13.587  1.00  0.00    -0.084 NA
HETATM   16  C7  UNL     1      42.777  29.224  13.113  1.00  0.00     0.378 C
HETATM   17  O3  UNL     1      41.713  30.106  13.069  1.00  0.00    -0.300 OA
BRANCH  16  18
HETATM   18  O2  UNL     1      43.313  29.140  11.826  1.00  0.00    -0.357 OA
ATOM     19  H2  UNL     1      42.651  29.231  11.151  1.00  0.00     0.214 HD
ENDBRANCH  16  18
ENDBRANCH  12  13
ENDBRANCH  11  12
ENDBRANCH  10  11
ENDBRANCH   9  10
ENDBRANCH   4   9
BRANCH   1  20
HETATM   20  N1  UNL     1      38.000  27.667   9.056  1.00  0.00    -0.233 N
ATOM     21  H12 UNL     1      38.502  28.522   8.817  1.00  0.00     0.174 HD
ATOM     22  H11 UNL     1      37.962  27.115   8.199  1.00  0.00     0.174 HD
ENDBRANCH   1  20
TORSDOF 7
ENDMDL