MODEL 3
REMARK VINA RESULT: -5.108145630      2.452      5.417
REMARK  7 active torsions:
REMARK  status: ('A' for Active; 'I' for Inactive)
REMARK    1  A    between atoms: N1_2  and  C2_4
REMARK    2  A    between atoms: C3_5  and  N2_6
REMARK    3  A    between atoms: N2_6  and  N3_7
REMARK    4  A    between atoms: C5_16  and  N7_17
REMARK    5  A    between atoms: N7_17  and  O1_18
REMARK    6  A    between atoms: C7_20  and  C8_21
REMARK    7  A    between atoms: C8_21  and  N8_22
ROOT
HETATM    1  C2  UNL     1      41.072  30.111  12.370  1.00  0.00     0.125 C
HETATM    2  C3  UNL     1      40.998  30.827  11.080  1.00  0.00     0.221 C
HETATM    3  N4  UNL     1      40.566  29.923   9.989  1.00  0.00    -0.343 N
ATOM      4  H4  UNL     1      41.064  29.980   9.100  1.00  0.00     0.164 HD
HETATM    5  C4  UNL     1      39.496  28.971  10.095  1.00  0.00     0.186 C
HETATM    6  N5  UNL     1      39.381  27.970   9.103  1.00  0.00    -0.064 NA
HETATM    7  N6  UNL     1      38.624  28.999  11.078  1.00  0.00    -0.344 N
ATOM      8  H6  UNL     1      37.904  28.277  11.060  1.00  0.00     0.164 HD
HETATM    9  C5  UNL     1      38.565  29.930  12.183  1.00  0.00     0.213 C
HETATM   10  C7  UNL     1      39.735  29.971  13.076  1.00  0.00     0.077 C
ENDROOT
BRANCH  10  11
HETATM   11  C8  UNL     1      39.823  28.698  13.881  1.00  0.00     0.239 C
BRANCH  11  12
HETATM   12  N8  UNL     1      39.041  28.672  15.073  1.00  0.00    -0.079 N
ATOM     13  H83 UNL     1      39.443  28.013  15.740  1.00  0.00     0.274 HD
ATOM     14  H82 UNL     1      39.159  29.544  15.589  1.00  0.00     0.274 HD
ATOM     15  H81 UNL     1      38.048  28.476  14.943  1.00  0.00     0.274 HD
ENDBRANCH  11  12
ENDBRANCH  10  11
BRANCH   1  16
HETATM   16  N1  UNL     1      41.808  28.909  12.375  1.00  0.00    -0.417 N
HETATM   17  C1  UNL     1      43.220  28.947  12.590  1.00  0.00     0.140 C
ATOM     18  H1  UNL     1      41.336  28.017  12.227  1.00  0.00     0.153 HD
ENDBRANCH   1  16
BRANCH   9  19
HETATM   19  N7  UNL     1      37.358  29.700  12.946  1.00  0.00    -0.075 NA
BRANCH  19  20
HETATM   20  O1  UNL     1      36.602  28.796  12.268  1.00  0.00    -0.289 OA
HETATM   21  C6  UNL     1      35.990  27.883  13.105  1.00  0.00     0.231 C
ENDBRANCH  19  20
ENDBRANCH   9  19
BRANCH   2  22
HETATM   22  N2  UNL     1      42.266  31.364  10.681  1.00  0.00    -0.120 NA
BRANCH  22  23
HETATM   23  N3  UNL     1      42.585  30.984   9.350  1.00  0.00    -0.346 N
ATOM     24  H32 UNL     1      41.891  30.883   8.609  1.00  0.00     0.172 HD
ATOM     25  H31 UNL     1      43.588  30.831   9.243  1.00  0.00     0.172 HD
ENDBRANCH  22  23
ENDBRANCH   2  22
TORSDOF 7
ENDMDL