MODEL 4
REMARK VINA RESULT: -5.748149449      1.575      2.098
REMARK  9 active torsions:
REMARK  status: ('A' for Active; 'I' for Inactive)
REMARK    1  A    between atoms: N1_1  and  N2_4
REMARK    2  A    between atoms: N2_4  and  C1_6
REMARK    3  A    between atoms: C2_7  and  N3_8
REMARK    4  A    between atoms: N3_8  and  C3_10
REMARK    5  A    between atoms: C3_10  and  C4_11
REMARK    6  A    between atoms: C4_11  and  C5_12
REMARK    7  A    between atoms: C5_12  and  C6_13
REMARK    8  A    between atoms: C6_13  and  O1_14
REMARK    9  A    between atoms: N7_22  and  N8_23
ROOT
HETATM    1  C1  UNL     1      37.604  29.197  13.039  1.00  0.00     0.188 A
HETATM    2  C2  UNL     1      38.397  29.297  11.894  1.00  0.00     0.109 A
HETATM    3  C7  UNL     1      38.182  28.345  10.921  1.00  0.00     0.119 A
HETATM    4  N4  UNL     1      38.926  28.342   9.712  1.00  0.00    -0.096 NA
HETATM    5  C8  UNL     1      37.231  27.361  11.099  1.00  0.00     0.159 A
HETATM    6  N5  UNL     1      37.003  26.379  10.107  1.00  0.00    -0.079 NA
HETATM    7  N6  UNL     1      36.479  27.295  12.225  1.00  0.00    -0.263 N
ATOM      8  H6  UNL     1      35.777  26.566  12.351  1.00  0.00     0.190 HD
HETATM    9  N7  UNL     1      36.692  28.210  13.149  1.00  0.00    -0.181 N
ENDROOT
BRANCH   2  10
HETATM   10  N3  UNL     1      39.222  30.222  11.838  1.00  0.00    -0.365 N
ATOM     11  H3  UNL     1      38.805  31.066  11.445  1.00  0.00     0.165 HD
BRANCH  10  12
HETATM   12  C3  UNL     1      40.562  30.426  12.162  1.00  0.00     0.061 C
BRANCH  12  13
HETATM   13  C4  UNL     1      41.521  30.477  10.994  1.00  0.00     0.046 C
BRANCH  13  14
HETATM   14  C5  UNL     1      42.821  29.860  11.462  1.00  0.00     0.031 C
BRANCH  14  15
HETATM   15  C6  UNL     1      42.714  29.268  12.839  1.00  0.00     0.164 C
BRANCH  15  16
HETATM   16  O1  UNL     1      43.601  29.885  13.710  1.00  0.00    -0.401 OA
ATOM     17  H1  UNL     1      44.489  29.587  13.554  1.00  0.00     0.209 HD
ENDBRANCH  15  16
ENDBRANCH  14  15
ENDBRANCH  13  14
ENDBRANCH  12  13
ENDBRANCH  10  12
ENDBRANCH   2  10
BRANCH   1  18
HETATM   18  N2  UNL     1      37.714  30.036  14.025  1.00  0.00    -0.287 N
ATOM     19  H2  UNL     1      37.039  30.793  14.136  1.00  0.00     0.188 HD
BRANCH  18  20
HETATM   20  N1  UNL     1      38.766  29.891  14.928  1.00  0.00    -0.343 N
ATOM     21  H12 UNL     1      38.697  30.321  15.850  1.00  0.00     0.176 HD
ATOM     22  H11 UNL     1      39.590  29.356  14.651  1.00  0.00     0.176 HD
ENDBRANCH  18  20
ENDBRANCH   1  18
BRANCH   9  23
HETATM   23  N8  UNL     1      35.916  28.157  14.333  1.00  0.00    -0.322 N
ATOM     24  H82 UNL     1      35.990  28.932  14.992  1.00  0.00     0.179 HD
ATOM     25  H81 UNL     1      35.316  27.344  14.472  1.00  0.00     0.179 HD
ENDBRANCH   9  23
TORSDOF 9
ENDMDL