MODEL 4
REMARK VINA RESULT: -5.887977972      1.985      3.125
REMARK  6 active torsions:
REMARK  status: ('A' for Active; 'I' for Inactive)
REMARK    1  A    between atoms: N2_7  and  N3_8
REMARK    2  A    between atoms: N4_11  and  C3_12
REMARK    3  A    between atoms: C3_12  and  C4_13
REMARK    4  A    between atoms: C4_13  and  C5_14
REMARK    5  A    between atoms: C5_14  and  C6_15
REMARK    6  A    between atoms: C6_15  and  O2_16
ROOT
HETATM    1  N1  UNL     1      36.903  26.287  10.606  1.00  0.00    -0.393 N
ATOM      2  H11 UNL     1      36.225  25.790  11.182  1.00  0.00     0.156 HD
ATOM      3  H12 UNL     1      37.262  25.945   9.715  1.00  0.00     0.156 HD
HETATM    4  C1  UNL     1      37.357  27.425  11.005  1.00  0.00     0.126 C
HETATM    5  C2  UNL     1      38.331  28.138  10.178  1.00  0.00     0.310 C
HETATM    6  O1  UNL     1      38.388  27.709   9.000  1.00  0.00    -0.262 OA
HETATM    7  N2  UNL     1      39.182  29.217  10.551  1.00  0.00    -0.145 N
HETATM    8  N4  UNL     1      39.492  29.618  11.813  1.00  0.00    -0.209 N
HETATM    9  N5  UNL     1      38.412  29.749  12.679  1.00  0.00    -0.268 N
ATOM     10  H5  UNL     1      38.419  30.633  13.187  1.00  0.00     0.190 HD
HETATM   11  C7  UNL     1      37.301  28.930  13.017  1.00  0.00     0.159 C
HETATM   12  N6  UNL     1      36.601  29.187  14.227  1.00  0.00    -0.079 NA
HETATM   13  C8  UNL     1      36.838  27.919  12.292  1.00  0.00     0.120 C
HETATM   14  N7  UNL     1      35.728  27.225  12.790  1.00  0.00    -0.096 NA
ENDROOT
BRANCH   8  15
HETATM   15  C3  UNL     1      40.649  29.067  12.421  1.00  0.00     0.172 C
BRANCH  15  16
HETATM   16  C4  UNL     1      41.813  29.997  12.393  1.00  0.00     0.026 C
BRANCH  16  17
HETATM   17  C5  UNL     1      42.856  29.539  11.430  1.00  0.00     0.028 C
BRANCH  17  18
HETATM   18  C6  UNL     1      43.172  30.664  10.443  1.00  0.00     0.164 C
BRANCH  18  19
HETATM   19  O2  UNL     1      42.141  31.589  10.552  1.00  0.00    -0.401 OA
ATOM     20  H2  UNL     1      42.078  32.026   9.711  1.00  0.00     0.209 HD
ENDBRANCH  18  19
ENDBRANCH  17  18
ENDBRANCH  16  17
ENDBRANCH  15  16
ENDBRANCH   8  15
BRANCH   7  21
HETATM   21  N3  UNL     1      39.730  29.907   9.488  1.00  0.00    -0.319 N
ATOM     22  H32 UNL     1      39.359  29.736   8.554  1.00  0.00     0.179 HD
ATOM     23  H31 UNL     1      40.484  30.546   9.742  1.00  0.00     0.179 HD
ENDBRANCH   7  21
TORSDOF 6
ENDMDL