MODEL 1
REMARK VINA RESULT: -9.838740933      0.000      0.000
REMARK  11 active torsions:
REMARK  status: ('A' for Active; 'I' for Inactive)
REMARK    1  A    between atoms: C2_2  and  N1_3
REMARK    2  A    between atoms: C3_4  and  S1_5
REMARK    3  A    between atoms: S1_5  and  C4_6
REMARK    4  A    between atoms: C4_6  and  C5_7
REMARK    5  A    between atoms: C5_7  and  C6_9
REMARK       I    between atoms: C6_9  and  N2_11
REMARK    6  A    between atoms: N2_11  and  C7_13
REMARK    7  A    between atoms: C8_16  and  S2_17
REMARK    8  A    between atoms: S2_17  and  N4_18
REMARK    9  A    between atoms: C9_23  and  O5_24
REMARK   10  A    between atoms: C10_28  and  N6_29
REMARK   11  A    between atoms: C11_36  and  C12_37
ROOT
HETATM    1  C5  UNL     1     -12.720  65.655 104.138  1.00  0.00     0.226 C
HETATM    2  O1  UNL     1     -13.390  66.352 103.349  1.00  0.00    -0.286 OA
ENDROOT
BRANCH   1   3
HETATM    3  C4  UNL     1     -11.381  66.134 104.639  1.00  0.00     0.171 C
BRANCH   3   4
HETATM    4  S1  UNL     1     -11.571  67.321 105.965  1.00  0.00    -0.084 SA
BRANCH   4   5
HETATM    5  C3  UNL     1     -13.175  67.371 106.686  1.00  0.00     0.163 A
HETATM    6  N1  UNL     1     -13.575  67.032 107.977  1.00  0.00    -0.310 N
HETATM    7  C11 UNL     1     -14.861  67.256 108.052  1.00  0.00     0.157 A
HETATM    8  N8  UNL     1     -15.282  67.738 106.820  1.00  0.00    -0.281 N
HETATM    9  N7  UNL     1     -14.264  67.789 106.047  1.00  0.00    -0.278 N
ATOM     10  H8  UNL     1     -16.236  68.004 106.575  1.00  0.00     0.188 HD
ATOM     11  H7  UNL     1     -14.285  68.105 105.078  1.00  0.00     0.189 HD
BRANCH   6  12
HETATM   12  C2  UNL     1     -12.559  66.574 108.868  1.00  0.00     0.128 C
HETATM   13  C1  UNL     1     -12.498  65.100 109.093  1.00  0.00     0.027 C
ENDBRANCH   6  12
BRANCH   7  14
HETATM   14  C12 UNL     1     -15.819  67.103 109.144  1.00  0.00     0.147 A
HETATM   15  N9  UNL     1     -16.063  65.829 109.667  1.00  0.00    -0.234 N
HETATM   16  O6  UNL     1     -16.875  65.945 110.631  1.00  0.00    -0.155 OA
ATOM     17  H9  UNL     1     -15.656  64.958 109.329  1.00  0.00     0.197 HD
HETATM   18  N10 UNL     1     -17.219  67.153 110.833  1.00  0.00    -0.224 N
HETATM   19  C13 UNL     1     -16.555  67.950 109.887  1.00  0.00     0.154 A
ATOM     20  H10 UNL     1     -17.862  67.483 111.553  1.00  0.00     0.198 HD
HETATM   21  N11 UNL     1     -16.747  69.163 109.927  1.00  0.00    -0.382 N
ATOM     22 2H11 UNL     1     -16.265  69.741 109.241  1.00  0.00     0.157 HD
ATOM     23 1H11 UNL     1     -17.305  69.805 110.490  1.00  0.00     0.157 HD
ENDBRANCH   7  14
ENDBRANCH   4   5
ENDBRANCH   3   4
ENDBRANCH   1   3
BRANCH   1  24
HETATM   24  C6  UNL     1     -13.191  64.356 104.603  1.00  0.00     0.293 C
HETATM   25  O2  UNL     1     -13.239  63.421 103.723  1.00  0.00    -0.264 OA
HETATM   26  N2  UNL     1     -13.583  64.089 105.939  1.00  0.00    -0.303 N
ATOM     27  H2  UNL     1     -13.538  64.829 106.639  1.00  0.00     0.171 HD
BRANCH  26  28
HETATM   28  C7  UNL     1     -14.037  62.803 106.303  1.00  0.00     0.154 A
HETATM   29  N3  UNL     1     -13.202  61.781 106.558  1.00  0.00    -0.325 N
HETATM   30  C8  UNL     1     -13.650  60.562 106.898  1.00  0.00     0.201 A
ATOM     31  H3  UNL     1     -12.196  61.937 106.490  1.00  0.00     0.168 HD
HETATM   32  C9  UNL     1     -14.986  60.282 107.006  1.00  0.00     0.183 A
HETATM   33  N5  UNL     1     -15.854  61.279 106.759  1.00  0.00    -0.318 N
HETATM   34  C10 UNL     1     -15.410  62.527 106.411  1.00  0.00     0.146 A
ATOM     35  H5  UNL     1     -16.857  61.103 106.833  1.00  0.00     0.169 HD
BRANCH  30  36
HETATM   36  S2  UNL     1     -12.519  59.254 107.231  1.00  0.00     0.276 S
HETATM   37  O3  UNL     1     -12.854  58.633 108.535  1.00  0.00    -0.199 OA
HETATM   38  O4  UNL     1     -12.663  58.215 106.127  1.00  0.00    -0.199 OA
BRANCH  36  39
HETATM   39  N4  UNL     1     -10.897  59.889 107.248  1.00  0.00    -0.323 N
ATOM     40  H42 UNL     1     -10.076  59.372 107.563  1.00  0.00     0.169 HD
ATOM     41  H41 UNL     1     -10.908  60.846 106.897  1.00  0.00     0.169 HD
ENDBRANCH  36  39
ENDBRANCH  30  36
BRANCH  32  42
HETATM   42  O5  UNL     1     -15.472  59.009 107.361  1.00  0.00    -0.344 OA
ATOM     43  H5  UNL     1     -15.623  58.748 108.262  1.00  0.00     0.219 HD
ENDBRANCH  32  42
BRANCH  34  44
HETATM   44  N6  UNL     1     -16.210  63.451 106.170  1.00  0.00    -0.382 N
ATOM     45  H62 UNL     1     -16.559  63.613 105.225  1.00  0.00     0.157 HD
ATOM     46  H61 UNL     1     -16.499  64.047 106.946  1.00  0.00     0.157 HD
ENDBRANCH  34  44
ENDBRANCH  26  28
ENDBRANCH   1  24
TORSDOF 11
ENDMDL