MODEL 4
REMARK VINA RESULT: -8.866948479      0.768      1.611
REMARK  15 active torsions:
REMARK  status: ('A' for Active; 'I' for Inactive)
REMARK    1  A    between atoms: C3_6  and  N3_7
REMARK    2  A    between atoms: N3_7  and  C4_9
REMARK    3  A    between atoms: C9_14  and  N4_15
REMARK    4  A    between atoms: N4_15  and  C10_16
REMARK    5  A    between atoms: N4_15  and  C12_20
REMARK    6  A    between atoms: C10_16  and  C11_17
REMARK    7  A    between atoms: C11_17  and  O1_18
REMARK    8  A    between atoms: C12_20  and  C13_21
REMARK    9  A    between atoms: C13_21  and  O2_22
REMARK   10  A    between atoms: C14_24  and  O3_25
REMARK   11  A    between atoms: C16_31  and  N7_32
REMARK   12  A    between atoms: C18_40  and  N10_41
REMARK   13  A    between atoms: N10_41  and  C19_43
REMARK   14  A    between atoms: C19_43  and  C20_44
REMARK   15  A    between atoms: C20_44  and  O4_45
ROOT
HETATM    1  N1  UNL     1     -12.350  66.882 102.706  1.00  0.00    -0.188 NA
HETATM    2  C1  UNL     1     -11.758  66.189 103.388  1.00  0.00     0.138 C
HETATM    3  C2  UNL     1     -10.996  65.301 104.230  1.00  0.00     0.217 A
HETATM    4  N2  UNL     1     -11.612  64.343 104.931  1.00  0.00    -0.166 N
ATOM      5  H2  UNL     1     -12.626  64.268 104.857  1.00  0.00     0.186 HD
HETATM    6  C3  UNL     1     -10.972  63.477 105.724  1.00  0.00     0.695 A
HETATM    7  N9  UNL     1      -9.627  63.629 105.779  1.00  0.00    -0.022 N
ATOM      8  H9  UNL     1      -9.090  62.993 106.369  1.00  0.00     0.203 HD
HETATM    9  C18 UNL     1      -8.959  64.583 105.089  1.00  0.00     0.694 A
HETATM   10  N11 UNL     1      -9.652  65.427 104.307  1.00  0.00    -0.166 N
ATOM     11  H11 UNL     1      -9.171  66.154 103.779  1.00  0.00     0.186 HD
ENDROOT
BRANCH   6  12
HETATM   12  N3  UNL     1     -11.513  62.594 106.403  1.00  0.00    -0.210 N
ATOM     13  H3  UNL     1     -11.000  61.714 106.345  1.00  0.00     0.179 HD
BRANCH  12  14
HETATM   14  C4  UNL     1     -12.634  62.476 107.229  1.00  0.00     0.207 A
HETATM   15  C5  UNL     1     -13.213  63.781 107.625  1.00  0.00     0.037 A
HETATM   16  C6  UNL     1     -14.558  63.710 107.394  1.00  0.00     0.070 A
HETATM   17  C14 UNL     1     -12.693  64.944 108.131  1.00  0.00     0.103 A
HETATM   18  C7  UNL     1     -15.412  64.780 107.657  1.00  0.00     0.034 A
HETATM   19  N5  UNL     1     -14.886  62.426 106.871  1.00  0.00    -0.241 N
HETATM   20  C8  UNL     1     -14.853  65.928 108.162  1.00  0.00     0.034 A
HETATM   21  C9  UNL     1     -13.501  66.043 108.412  1.00  0.00     0.064 A
HETATM   22  N6  UNL     1     -16.088  61.930 106.511  1.00  0.00    -0.300 N
HETATM   23  C17 UNL     1     -13.776  61.696 106.769  1.00  0.00     0.133 A
HETATM   24  C15 UNL     1     -16.234  60.687 106.033  1.00  0.00     0.155 A
ATOM     25  H6  UNL     1     -16.914  62.521 106.605  1.00  0.00     0.186 HD
HETATM   26  C16 UNL     1     -15.108  59.904 105.913  1.00  0.00     0.117 A
HETATM   27  N8  UNL     1     -13.933  60.429 106.280  1.00  0.00    -0.328 N
ATOM     28  H8  UNL     1     -13.102  59.845 106.191  1.00  0.00     0.169 HD
BRANCH  21  29
HETATM   29  N4  UNL     1     -12.957  67.231 108.965  1.00  0.00    -0.375 N
BRANCH  29  30
HETATM   30  C10 UNL     1     -12.519  68.323 108.126  1.00  0.00     0.149 C
BRANCH  30  31
HETATM   31  C11 UNL     1     -11.079  68.611 108.416  1.00  0.00     0.183 C
BRANCH  31  32
HETATM   32  O1  UNL     1     -10.920  69.753 109.220  1.00  0.00    -0.399 OA
ATOM     33  H1  UNL     1     -11.740  70.030 109.612  1.00  0.00     0.209 HD
ENDBRANCH  31  32
ENDBRANCH  30  31
ENDBRANCH  29  30
BRANCH  29  34
HETATM   34  C12 UNL     1     -12.902  67.358 110.396  1.00  0.00     0.149 C
BRANCH  34  35
HETATM   35  C13 UNL     1     -13.728  68.485 110.948  1.00  0.00     0.183 C
BRANCH  35  36
HETATM   36  O2  UNL     1     -12.828  69.371 111.590  1.00  0.00    -0.399 OA
ATOM     37  H2  UNL     1     -13.354  70.067 111.965  1.00  0.00     0.209 HD
ENDBRANCH  35  36
ENDBRANCH  34  35
ENDBRANCH  29  34
ENDBRANCH  21  29
BRANCH  26  38
HETATM   38  N7  UNL     1     -15.190  58.676 105.454  1.00  0.00    -0.384 N
ATOM     39  H72 UNL     1     -14.917  58.453 104.497  1.00  0.00     0.157 HD
ATOM     40  H71 UNL     1     -15.526  57.918 106.048  1.00  0.00     0.157 HD
ENDBRANCH  26  38
BRANCH  17  41
HETATM   41  O3  UNL     1     -11.334  65.064 108.380  1.00  0.00    -0.358 OA
ATOM     42  H3  UNL     1     -11.020  65.495 109.167  1.00  0.00     0.217 HD
ENDBRANCH  17  41
ENDBRANCH  12  14
ENDBRANCH   6  12
BRANCH   9  43
HETATM   43  N10 UNL     1      -7.688  64.679 105.192  1.00  0.00    -0.223 N
ATOM     44  H10 UNL     1      -7.330  65.433 105.780  1.00  0.00     0.177 HD
BRANCH  43  45
HETATM   45  C19 UNL     1      -6.726  63.845 104.572  1.00  0.00     0.164 C
BRANCH  45  46
HETATM   46  C20 UNL     1      -5.340  64.438 104.829  1.00  0.00     0.184 C
BRANCH  46  47
HETATM   47  O4  UNL     1      -4.953  64.161 106.135  1.00  0.00    -0.399 OA
ATOM     48  H4  UNL     1      -4.180  64.668 106.351  1.00  0.00     0.209 HD
ENDBRANCH  46  47
ENDBRANCH  45  46
ENDBRANCH  43  45
ENDBRANCH   9  43
TORSDOF 15
ENDMDL