MODEL 5
REMARK VINA RESULT: -8.860673251      2.560      4.829
REMARK  11 active torsions:
REMARK  status: ('A' for Active; 'I' for Inactive)
REMARK    1  A    between atoms: C2_2  and  C3_3
REMARK    2  A    between atoms: C2_2  and  C4_8
REMARK    3  A    between atoms: C3_3  and  N1_4
REMARK    4  A    between atoms: C4_8  and  N2_9
REMARK    5  A    between atoms: C4_8  and  C14_31
REMARK       I    between atoms: N2_9  and  C5_11
REMARK    6  A    between atoms: C5_11  and  C6_13
REMARK    7  A    between atoms: C6_13  and  O2_14
REMARK    8  A    between atoms: C6_13  and  N3_16
REMARK    9  A    between atoms: C8_18  and  C9_19
REMARK   10  A    between atoms: C9_19  and  O3_20
REMARK   11  A    between atoms: C15_36  and  C16_37
ROOT
HETATM    1  N2  UNL     1     -14.614  67.140 107.391  1.00  0.00    -0.346 N
ATOM      2  H2  UNL     1     -14.575  66.135 107.559  1.00  0.00     0.163 HD
HETATM    3  C5  UNL     1     -14.785  67.523 106.043  1.00  0.00     0.267 C
HETATM    4  O1  UNL     1     -14.816  68.710 105.676  1.00  0.00    -0.269 OA
ENDROOT
BRANCH   1   5
HETATM    5  C4  UNL     1     -14.487  67.965 108.554  1.00  0.00     0.148 C
BRANCH   5   6
HETATM    6  C2  UNL     1     -13.625  67.419 109.640  1.00  0.00     0.036 C
HETATM    7  C1  UNL     1     -13.130  66.023 109.314  1.00  0.00     0.014 C
BRANCH   6   8
HETATM    8  C3  UNL     1     -12.423  68.234 110.025  1.00  0.00     0.236 C
BRANCH   8   9
HETATM    9  N1  UNL     1     -12.761  68.974 111.272  1.00  0.00    -0.079 N
ATOM     10  H13 UNL     1     -12.615  68.419 112.115  1.00  0.00     0.274 HD
ATOM     11  H12 UNL     1     -12.094  69.718 111.485  1.00  0.00     0.274 HD
ATOM     12  H11 UNL     1     -13.718  69.313 111.180  1.00  0.00     0.274 HD
ENDBRANCH   8   9
ENDBRANCH   6   8
ENDBRANCH   5   6
BRANCH   5  13
HETATM   13  C14 UNL     1     -15.825  68.370 109.076  1.00  0.00     0.091 A
HETATM   14  N5  UNL     1     -16.597  69.424 108.903  1.00  0.00    -0.295 N
HETATM   15  N6  UNL     1     -17.680  69.530 109.540  1.00  0.00    -0.289 N
ATOM     16  H5  UNL     1     -16.318  70.158 108.252  1.00  0.00     0.187 HD
HETATM   17  C15 UNL     1     -18.064  68.590 110.390  1.00  0.00     0.156 A
ATOM     18  H6  UNL     1     -18.268  70.351 109.399  1.00  0.00     0.188 HD
HETATM   19  S3  UNL     1     -16.750  67.486 110.243  1.00  0.00    -0.049 SA
BRANCH  17  20
HETATM   20  C16 UNL     1     -19.240  68.521 111.235  1.00  0.00     0.289 C
HETATM   21  N7  UNL     1     -19.153  68.703 112.622  1.00  0.00    -0.055 NA
HETATM   22  O5  UNL     1     -20.364  68.289 110.712  1.00  0.00    -0.269 OA
ENDBRANCH  17  20
ENDBRANCH   5  13
ENDBRANCH   1   5
BRANCH   3  23
HETATM   23  C6  UNL     1     -14.924  66.440 105.059  1.00  0.00     0.319 C
BRANCH  23  24
HETATM   24  O2  UNL     1     -16.080  65.706 105.371  1.00  0.00    -0.368 OA
ATOM     25  H2  UNL     1     -16.077  65.525 106.304  1.00  0.00     0.212 HD
ENDBRANCH  23  24
BRANCH  23  26
HETATM   26  N3  UNL     1     -13.759  65.500 105.088  1.00  0.00    -0.306 N
HETATM   27  C7  UNL     1     -13.889  64.410 105.843  1.00  0.00     0.113 A
HETATM   28  C8  UNL     1     -12.841  63.553 105.888  1.00  0.00     0.037 A
HETATM   29  S1  UNL     1     -11.702  64.284 104.875  1.00  0.00    -0.060 SA
HETATM   30  C13 UNL     1     -12.650  65.688 104.441  1.00  0.00     0.147 A
HETATM   31  S2  UNL     1     -12.095  66.864 103.415  1.00  0.00    -0.052 SA
BRANCH  28  32
HETATM   32  C9  UNL     1     -12.661  62.250 106.637  1.00  0.00     0.117 C
HETATM   33  C10 UNL     1     -11.600  61.408 106.034  1.00  0.00     0.166 C
HETATM   34  N4  UNL     1     -12.243  60.561 105.048  1.00  0.00    -0.358 N
HETATM   35  C11 UNL     1     -13.660  60.726 105.101  1.00  0.00     0.221 C
ATOM     36  H4  UNL     1     -11.753  59.937 104.408  1.00  0.00     0.162 HD
HETATM   37  O4  UNL     1     -14.455  60.348 104.208  1.00  0.00    -0.273 OA
HETATM   38  C12 UNL     1     -13.917  61.408 106.388  1.00  0.00     0.148 C
BRANCH  32  39
HETATM   39  O3  UNL     1     -12.439  62.463 107.976  1.00  0.00    -0.382 OA
ATOM     40  H3  UNL     1     -13.141  62.105 108.507  1.00  0.00     0.211 HD
ENDBRANCH  32  39
ENDBRANCH  28  32
ENDBRANCH  23  26
ENDBRANCH   3  23
TORSDOF 11
ENDMDL