MODEL 2
REMARK VINA RESULT: -9.953028135      1.065      1.786
REMARK  10 active torsions:
REMARK  status: ('A' for Active; 'I' for Inactive)
REMARK    1  A    between atoms: C4_7  and  S1_8
REMARK    2  A    between atoms: S1_8  and  C5_9
REMARK    3  A    between atoms: C5_9  and  C6_10
REMARK    4  A    between atoms: N3_11  and  C7_13
REMARK    5  A    between atoms: C8_16  and  N5_17
REMARK       I    between atoms: N8_28  and  C13_29
REMARK    6  A    between atoms: C14_32  and  C15_33
REMARK    7  A    between atoms: C15_33  and  C16_38
REMARK    8  A    between atoms: N10_34  and  O3_36
REMARK    9  A    between atoms: C16_38  and  N11_39
REMARK   10  A    between atoms: C16_38  and  C17_43
ROOT
HETATM    1  C5  UNL     1     -15.305  63.985 106.738  1.00  0.00     0.125 C
ENDROOT
BRANCH   1   2
HETATM    2  S1  UNL     1     -14.516  62.954 105.501  1.00  0.00    -0.105 SA
BRANCH   2   3
HETATM    3  C4  UNL     1     -13.508  61.660 106.129  1.00  0.00     0.101 A
HETATM    4  N2  UNL     1     -12.190  61.623 106.368  1.00  0.00    -0.289 N
HETATM    5  N1  UNL     1     -11.882  60.443 106.835  1.00  0.00    -0.302 N
HETATM    6  C3  UNL     1     -11.296  62.752 106.126  1.00  0.00     0.178 C
HETATM    7  C2  UNL     1     -13.003  59.640 106.923  1.00  0.00     0.037 A
ATOM      8  H1  UNL     1     -10.940  60.152 107.100  1.00  0.00     0.187 HD
HETATM    9  C1  UNL     1     -12.923  58.214 107.370  1.00  0.00     0.070 C
HETATM   10  C14 UNL     1     -14.034  60.399 106.483  1.00  0.00     0.050 A
BRANCH  10  11
HETATM   11  C15 UNL     1     -15.450  60.042 106.436  1.00  0.00     0.087 C
HETATM   12  N10 UNL     1     -16.043  59.994 107.613  1.00  0.00    -0.270 N
ATOM     13  H10 UNL     1     -15.495  60.203 108.447  1.00  0.00     0.194 HD
BRANCH  12  14
HETATM   14  O3  UNL     1     -17.334  59.683 107.753  1.00  0.00    -0.290 OA
ATOM     15  H3  UNL     1     -17.622  58.833 108.066  1.00  0.00     0.244 HD
ENDBRANCH  12  14
BRANCH  11  16
HETATM   16  C16 UNL     1     -16.257  59.608 105.318  1.00  0.00     0.335 C
BRANCH  16  17
HETATM   17  N11 UNL     1     -16.655  58.214 105.448  1.00  0.00    -0.060 N
ATOM     18 3H11 UNL     1     -17.458  58.000 104.857  1.00  0.00     0.275 HD
ATOM     19 2H11 UNL     1     -15.972  57.590 105.020  1.00  0.00     0.275 HD
ATOM     20 1H11 UNL     1     -16.832  57.961 106.421  1.00  0.00     0.275 HD
ENDBRANCH  16  17
BRANCH  16  21
HETATM   21  C17 UNL     1     -15.739  59.920 103.971  1.00  0.00     0.210 C
HETATM   22  O4  UNL     1     -14.672  59.375 103.595  1.00  0.00    -0.646 OA
HETATM   23  O5  UNL     1     -16.388  60.783 103.135  1.00  0.00    -0.646 OA
ENDBRANCH  16  21
ENDBRANCH  11  16
ENDBRANCH  10  11
ENDBRANCH   2   3
ENDBRANCH   1   2
BRANCH   1  24
HETATM   24  C6  UNL     1     -15.530  65.350 106.070  1.00  0.00     0.073 C
HETATM   25  N3  UNL     1     -15.547  66.457 106.869  1.00  0.00    -0.353 N
ATOM     26  H3  UNL     1     -15.713  67.254 106.255  1.00  0.00     0.166 HD
BRANCH  25  27
HETATM   27  C7  UNL     1     -15.449  66.908 108.006  1.00  0.00     0.151 A
HETATM   28  N4  UNL     1     -16.382  66.927 108.977  1.00  0.00    -0.174 N
HETATM   29  C8  UNL     1     -16.127  67.461 110.185  1.00  0.00     0.679 A
ATOM     30  H4  UNL     1     -17.302  66.528 108.792  1.00  0.00     0.186 HD
HETATM   31  N6  UNL     1     -14.960  68.006 110.525  1.00  0.00    -0.174 N
HETATM   32  C9  UNL     1     -13.979  68.020 109.595  1.00  0.00     0.166 A
ATOM     33  H6  UNL     1     -14.812  68.399 111.454  1.00  0.00     0.186 HD
HETATM   34  C10 UNL     1     -14.206  67.485 108.359  1.00  0.00     0.129 A
HETATM   35  N8  UNL     1     -12.721  68.500 109.668  1.00  0.00    -0.199 N
HETATM   36  N7  UNL     1     -13.068  67.640 107.657  1.00  0.00    -0.297 N
HETATM   37  C11 UNL     1     -12.877  67.204 106.277  1.00  0.00     0.161 C
HETATM   38  C12 UNL     1     -12.178  68.251 108.452  1.00  0.00     0.338 A
HETATM   39  O1  UNL     1     -10.999  68.532 108.056  1.00  0.00    -0.246 OA
HETATM   40  C13 UNL     1     -12.022  69.133 110.708  1.00  0.00     0.344 C
HETATM   41  N9  UNL     1     -12.500  69.430 111.994  1.00  0.00    -0.039 NA
HETATM   42  O2  UNL     1     -10.806  69.501 110.518  1.00  0.00    -0.250 OA
BRANCH  29  43
HETATM   43  N5  UNL     1     -17.059  67.451 111.079  1.00  0.00    -0.234 N
ATOM     44  H52 UNL     1     -17.817  66.779 110.957  1.00  0.00     0.174 HD
ATOM     45  H51 UNL     1     -17.001  68.107 111.858  1.00  0.00     0.174 HD
ENDBRANCH  29  43
ENDBRANCH  25  27
ENDBRANCH   1  24
TORSDOF 10
ENDMDL