MODEL 5
REMARK VINA RESULT: -9.332533614      2.694      6.472
REMARK  11 active torsions:
REMARK  status: ('A' for Active; 'I' for Inactive)
REMARK    1  A    between atoms: C2_2  and  C4_4
REMARK    2  A    between atoms: C2_2  and  C5_7
REMARK    3  A    between atoms: C4_4  and  O1_5
REMARK       I    between atoms: C5_7  and  N1_9
REMARK    4  A    between atoms: N1_9  and  C6_11
REMARK    5  A    between atoms: C9_15  and  C10_16
REMARK    6  A    between atoms: N3_17  and  N4_19
REMARK    7  A    between atoms: N4_19  and  C11_21
REMARK    8  A    between atoms: C11_21  and  C12_23
REMARK    9  A    between atoms: N7_28  and  C13_29
REMARK   10  A    between atoms: C14_35  and  N10_36
REMARK   11  A    between atoms: C16_42  and  C17_43
ROOT
HETATM    1  C10 UNL     1     -11.787  66.406 103.489  1.00  0.00     0.118 C
HETATM    2  N3  UNL     1     -11.143  65.438 103.076  1.00  0.00    -0.310 N
ATOM      3  H3  UNL     1     -10.706  65.629 102.174  1.00  0.00     0.186 HD
ENDROOT
BRANCH   2   4
HETATM    4  N4  UNL     1     -10.875  64.213 103.506  1.00  0.00    -0.287 N
ATOM      5  H4  UNL     1     -10.988  63.437 102.854  1.00  0.00     0.188 HD
BRANCH   4   6
HETATM    6  C11 UNL     1     -10.433  63.919 104.846  1.00  0.00     0.162 C
HETATM    7  S1  UNL     1      -8.907  64.128 105.302  1.00  0.00    -0.055 SA
BRANCH   6   8
HETATM    8  C12 UNL     1     -11.417  63.423 105.785  1.00  0.00     0.177 A
HETATM    9  N5  UNL     1     -11.619  63.820 107.067  1.00  0.00    -0.266 N
HETATM   10  N6  UNL     1     -12.612  63.095 107.533  1.00  0.00    -0.218 N
ATOM     11  H5  UNL     1     -11.102  64.540 107.571  1.00  0.00     0.190 HD
HETATM   12  N7  UNL     1     -13.063  62.254 106.624  1.00  0.00    -0.158 N
ATOM     13  H6  UNL     1     -12.987  63.174 108.478  1.00  0.00     0.210 HD
HETATM   14  N11 UNL     1     -12.317  62.465 105.549  1.00  0.00    -0.257 N
ATOM     15  H11 UNL     1     -12.417  61.965 104.666  1.00  0.00     0.191 HD
BRANCH  12  16
HETATM   16  C13 UNL     1     -14.116  61.311 106.740  1.00  0.00     0.214 A
HETATM   17  N8  UNL     1     -14.044  60.005 107.083  1.00  0.00    -0.219 N
HETATM   18  O3  UNL     1     -15.236  59.486 107.074  1.00  0.00    -0.153 OA
ATOM     19  H8  UNL     1     -13.186  59.503 107.313  1.00  0.00     0.198 HD
HETATM   20  N9  UNL     1     -16.109  60.406 106.735  1.00  0.00    -0.222 N
HETATM   21  C14 UNL     1     -15.447  61.575 106.514  1.00  0.00     0.171 A
ATOM     22  H9  UNL     1     -17.116  60.268 106.651  1.00  0.00     0.198 HD
BRANCH  21  23
HETATM   23  N10 UNL     1     -16.019  62.656 106.169  1.00  0.00    -0.381 N
ATOM     24 2H10 UNL     1     -15.939  63.069 105.240  1.00  0.00     0.157 HD
ATOM     25 1H10 UNL     1     -16.624  63.278 106.706  1.00  0.00     0.157 HD
ENDBRANCH  21  23
ENDBRANCH  12  16
ENDBRANCH   6   8
ENDBRANCH   4   6
ENDBRANCH   2   4
BRANCH   1  26
HETATM   26  C9  UNL     1     -12.542  66.526 104.718  1.00  0.00    -0.016 A
HETATM   27  C8  UNL     1     -13.836  66.017 104.741  1.00  0.00     0.041 A
HETATM   28  C7  UNL     1     -14.592  66.106 105.884  1.00  0.00     0.075 A
HETATM   29  C6  UNL     1     -14.142  66.681 107.046  1.00  0.00     0.074 A
HETATM   30  N2  UNL     1     -15.906  65.571 105.849  1.00  0.00    -0.100 NA
HETATM   31  C16 UNL     1     -12.874  67.178 107.021  1.00  0.00     0.058 A
HETATM   32  C15 UNL     1     -12.079  67.098 105.858  1.00  0.00     0.032 A
BRANCH  29  33
HETATM   33  N1  UNL     1     -14.947  66.745 108.174  1.00  0.00    -0.324 N
HETATM   34  C5  UNL     1     -15.821  67.818 108.498  1.00  0.00     0.232 C
HETATM   35  O2  UNL     1     -15.858  68.773 107.681  1.00  0.00    -0.272 OA
ATOM     36  H1  UNL     1     -14.909  65.958 108.822  1.00  0.00     0.169 HD
BRANCH  34  37
HETATM   37  C2  UNL     1     -16.672  67.899 109.697  1.00  0.00     0.055 C
HETATM   38  C1  UNL     1     -17.480  69.193 109.613  1.00  0.00     0.027 C
HETATM   39  C3  UNL     1     -17.548  66.722 109.949  1.00  0.00     0.027 C
BRANCH  37  40
HETATM   40  C4  UNL     1     -15.731  67.991 110.915  1.00  0.00     0.182 C
BRANCH  40  41
HETATM   41  O1  UNL     1     -14.597  68.690 110.567  1.00  0.00    -0.400 OA
ATOM     42  H1  UNL     1     -14.734  69.122 109.731  1.00  0.00     0.209 HD
ENDBRANCH  40  41
ENDBRANCH  37  40
ENDBRANCH  34  37
ENDBRANCH  29  33
BRANCH  31  43
HETATM   43  C17 UNL     1     -12.266  67.819 108.156  1.00  0.00     0.267 C
HETATM   44  N12 UNL     1     -12.219  67.212 109.456  1.00  0.00    -0.057 NA
HETATM   45  O4  UNL     1     -11.750  68.953 108.022  1.00  0.00    -0.271 OA
ENDBRANCH  31  43
ENDBRANCH   1  26
TORSDOF 11
ENDMDL