MODEL 3
REMARK VINA RESULT: -9.471247483      2.278      2.699
REMARK  11 active torsions:
REMARK  status: ('A' for Active; 'I' for Inactive)
REMARK    1  A    between atoms: C3_5  and  C4_6
REMARK    2  A    between atoms: C4_6  and  C5_7
REMARK    3  A    between atoms: C4_6  and  C10_20
REMARK    4  A    between atoms: N2_9  and  C7_10
REMARK    5  A    between atoms: C7_10  and  C8_11
REMARK    6  A    between atoms: C8_11  and  C9_12
REMARK    7  A    between atoms: C9_12  and  N3_13
REMARK    8  A    between atoms: C11_23  and  C12_24
REMARK    9  A    between atoms: C12_24  and  N7_25
REMARK   10  A    between atoms: C12_24  and  C13_29
REMARK   11  A    between atoms: C16_39  and  N10_40
ROOT
HETATM    1  C4  UNL     1     -11.473  64.464 105.628  1.00  0.00     0.151 C
ENDROOT
BRANCH   1   2
HETATM    2  C3  UNL     1     -11.826  65.313 106.784  1.00  0.00     0.096 A
HETATM    3  C2  UNL     1     -11.374  66.582 106.919  1.00  0.00     0.271 A
HETATM    4  N1  UNL     1     -11.654  67.427 107.961  1.00  0.00    -0.311 N
HETATM    5  O1  UNL     1     -10.619  67.037 105.994  1.00  0.00    -0.266 OA
HETATM    6  C1  UNL     1     -11.120  68.759 108.005  1.00  0.00     0.160 C
HETATM    7  C18 UNL     1     -12.454  66.901 108.908  1.00  0.00     0.126 A
HETATM    8  C15 UNL     1     -12.954  65.597 108.828  1.00  0.00     0.152 A
HETATM    9  C17 UNL     1     -12.802  67.654 109.997  1.00  0.00     0.145 A
HETATM   10  N8  UNL     1     -12.634  64.832 107.777  1.00  0.00    -0.338 N
HETATM   11  N9  UNL     1     -13.746  65.128 109.803  1.00  0.00    -0.174 N
ATOM     12  H8  UNL     1     -12.997  63.880 107.717  1.00  0.00     0.167 HD
HETATM   13  C16 UNL     1     -14.083  65.880 110.871  1.00  0.00     0.679 A
ATOM     14  H9  UNL     1     -14.103  64.176 109.735  1.00  0.00     0.186 HD
HETATM   15  N11 UNL     1     -13.602  67.130 110.945  1.00  0.00    -0.175 N
ATOM     16  H11 UNL     1     -13.852  67.705 111.749  1.00  0.00     0.186 HD
HETATM   17  N12 UNL     1     -12.393  68.826 110.136  1.00  0.00    -0.383 N
ATOM     18 2H12 UNL     1     -12.653  69.387 110.948  1.00  0.00     0.157 HD
ATOM     19 1H12 UNL     1     -11.787  69.223 109.417  1.00  0.00     0.157 HD
BRANCH  13  20
HETATM   20  N10 UNL     1     -14.843  65.368 111.764  1.00  0.00    -0.234 N
ATOM     21 2H10 UNL     1     -14.573  64.567 112.335  1.00  0.00     0.174 HD
ATOM     22 1H10 UNL     1     -15.765  65.778 111.913  1.00  0.00     0.174 HD
ENDBRANCH  13  20
ENDBRANCH   1   2
BRANCH   1  23
HETATM   23  C5  UNL     1     -10.025  64.303 105.430  1.00  0.00     0.057 A
HETATM   24  C6  UNL     1      -9.323  64.651 104.286  1.00  0.00     0.135 A
HETATM   25  N2  UNL     1      -8.019  64.368 104.449  1.00  0.00    -0.285 N
HETATM   26  N4  UNL     1      -7.898  63.857 105.660  1.00  0.00    -0.021 NA
HETATM   27  N5  UNL     1      -9.081  63.810 106.259  1.00  0.00    -0.286 N
ATOM     28  H5  UNL     1      -9.250  63.456 107.201  1.00  0.00     0.184 HD
BRANCH  25  29
HETATM   29  C7  UNL     1      -6.966  64.586 103.480  1.00  0.00     0.147 C
BRANCH  29  30
HETATM   30  C8  UNL     1      -5.611  64.230 104.101  1.00  0.00     0.048 C
BRANCH  30  31
HETATM   31  C9  UNL     1      -5.050  65.443 104.804  1.00  0.00     0.231 C
BRANCH  31  32
HETATM   32  N3  UNL     1      -4.819  65.058 106.193  1.00  0.00    -0.079 N
ATOM     33  H33 UNL     1      -4.663  64.057 106.311  1.00  0.00     0.274 HD
ATOM     34  H32 UNL     1      -3.919  65.373 106.553  1.00  0.00     0.274 HD
ATOM     35  H31 UNL     1      -5.612  65.407 106.732  1.00  0.00     0.274 HD
ENDBRANCH  31  32
ENDBRANCH  30  31
ENDBRANCH  29  30
ENDBRANCH  25  29
ENDBRANCH   1  23
BRANCH   1  36
HETATM   36  C10 UNL     1     -12.180  63.142 105.614  1.00  0.00     0.067 A
HETATM   37  N6  UNL     1     -11.730  62.005 106.095  1.00  0.00    -0.354 N
HETATM   38  C11 UNL     1     -12.450  60.930 106.027  1.00  0.00     0.057 A
ATOM     39  H6  UNL     1     -10.806  61.969 106.526  1.00  0.00     0.166 HD
HETATM   40  C14 UNL     1     -13.679  61.023 105.442  1.00  0.00     0.079 A
HETATM   41  S1  UNL     1     -13.712  62.701 105.021  1.00  0.00    -0.085 SA
BRANCH  38  42
HETATM   42  C12 UNL     1     -11.934  59.613 106.589  1.00  0.00     0.333 C
BRANCH  42  43
HETATM   43  N7  UNL     1     -10.956  59.897 107.630  1.00  0.00    -0.060 N
ATOM     44  H73 UNL     1     -10.621  60.859 107.596  1.00  0.00     0.275 HD
ATOM     45  H72 UNL     1     -11.374  59.924 108.560  1.00  0.00     0.275 HD
ATOM     46  H71 UNL     1     -10.198  59.218 107.565  1.00  0.00     0.275 HD
ENDBRANCH  42  43
BRANCH  42  47
HETATM   47  C13 UNL     1     -13.015  58.804 107.161  1.00  0.00     0.210 C
HETATM   48  O2  UNL     1     -13.867  58.214 106.453  1.00  0.00    -0.646 OA
HETATM   49  O3  UNL     1     -13.138  58.656 108.534  1.00  0.00    -0.646 OA
ENDBRANCH  42  47
ENDBRANCH  38  42
ENDBRANCH   1  36
TORSDOF 11
ENDMDL