MODEL 5
REMARK VINA RESULT: -9.941722803      2.743      7.012
REMARK  9 active torsions:
REMARK  status: ('A' for Active; 'I' for Inactive)
REMARK       I    between atoms: C1_4  and  N3_6
REMARK    1  A    between atoms: C3_11  and  S1_12
REMARK    2  A    between atoms: S1_12  and  C4_13
REMARK    3  A    between atoms: C4_13  and  C5_14
REMARK    4  A    between atoms: C7_18  and  C8_19
REMARK       I    between atoms: C8_19  and  N6_21
REMARK    5  A    between atoms: N6_21  and  N7_23
REMARK    6  A    between atoms: C9_28  and  N9_29
REMARK    7  A    between atoms: C11_33  and  C12_34
REMARK    8  A    between atoms: C12_34  and  N10_35
REMARK    9  A    between atoms: C14_39  and  N12_40
ROOT
HETATM    1  N1  UNL     1     -15.123  68.588 103.991  1.00  0.00    -0.373 N
ATOM      2  H11 UNL     1     -14.389  69.285 104.117  1.00  0.00     0.158 HD
ATOM      3  H12 UNL     1     -16.045  68.867 103.658  1.00  0.00     0.158 HD
HETATM    4  C1  UNL     1     -14.898  67.359 104.250  1.00  0.00     0.187 C
HETATM    5  N2  UNL     1     -15.910  66.398 104.077  1.00  0.00    -0.064 NA
HETATM    6  N3  UNL     1     -13.624  66.974 104.711  1.00  0.00    -0.316 N
ATOM      7  H3  UNL     1     -12.924  66.592 104.074  1.00  0.00     0.170 HD
HETATM    8  C2  UNL     1     -13.374  67.121 105.968  1.00  0.00     0.116 A
HETATM    9  N4  UNL     1     -14.266  67.622 106.846  1.00  0.00    -0.334 N
ATOM     10  H4  UNL     1     -15.191  67.905 106.525  1.00  0.00     0.168 HD
HETATM   11  C3  UNL     1     -13.939  67.749 108.144  1.00  0.00     0.105 A
HETATM   12  C9  UNL     1     -12.691  67.379 108.644  1.00  0.00     0.137 A
HETATM   13  C10 UNL     1     -11.761  66.864 107.759  1.00  0.00     0.051 A
HETATM   14  C11 UNL     1     -12.131  66.749 106.439  1.00  0.00     0.008 A
ENDROOT
BRANCH  11  15
HETATM   15  S1  UNL     1     -15.122  68.410 109.302  1.00  0.00    -0.104 SA
BRANCH  15  16
HETATM   16  C4  UNL     1     -16.556  67.285 109.426  1.00  0.00     0.139 C
BRANCH  16  17
HETATM   17  C5  UNL     1     -16.035  65.918 109.114  1.00  0.00     0.036 A
HETATM   18  C6  UNL     1     -15.387  65.041 109.934  1.00  0.00     0.115 A
HETATM   19  N5  UNL     1     -15.108  63.930 109.215  1.00  0.00    -0.346 N
HETATM   20  C7  UNL     1     -15.560  64.082 107.968  1.00  0.00     0.176 A
ATOM     21  H5  UNL     1     -14.626  63.104 109.571  1.00  0.00     0.167 HD
HETATM   22  N8  UNL     1     -16.132  65.316 107.918  1.00  0.00    -0.339 N
ATOM     23  H8  UNL     1     -16.570  65.724 107.092  1.00  0.00     0.167 HD
BRANCH  20  24
HETATM   24  C8  UNL     1     -15.486  63.151 106.845  1.00  0.00     0.303 C
HETATM   25  O1  UNL     1     -15.103  63.609 105.741  1.00  0.00    -0.263 OA
HETATM   26  N6  UNL     1     -15.838  61.788 107.013  1.00  0.00    -0.270 N
ATOM     27  H6  UNL     1     -16.145  61.461 107.929  1.00  0.00     0.189 HD
BRANCH  26  28
HETATM   28  N7  UNL     1     -15.774  60.892 105.958  1.00  0.00    -0.342 N
ATOM     29  H72 UNL     1     -16.649  60.561 105.550  1.00  0.00     0.176 HD
ATOM     30  H71 UNL     1     -14.880  60.566 105.593  1.00  0.00     0.176 HD
ENDBRANCH  26  28
ENDBRANCH  20  24
ENDBRANCH  16  17
ENDBRANCH  15  16
ENDBRANCH  11  15
BRANCH  12  31
HETATM   31  N9  UNL     1     -12.412  67.540 110.030  1.00  0.00    -0.113 N
HETATM   32  O2  UNL     1     -12.788  66.753 110.914  1.00  0.00    -0.532 OA
HETATM   33  O3  UNL     1     -11.680  68.633 110.428  1.00  0.00    -0.532 OA
ENDBRANCH  12  31
BRANCH  14  34
HETATM   34  C12 UNL     1     -11.144  66.196 105.472  1.00  0.00     0.192 C
BRANCH  34  35
HETATM   35  N10 UNL     1     -11.068  64.752 105.582  1.00  0.00    -0.281 N
HETATM   36  C13 UNL     1      -9.935  63.993 105.580  1.00  0.00     0.203 A
HETATM   37  N11 UNL     1     -10.266  62.696 105.700  1.00  0.00    -0.317 N
HETATM   38  C14 UNL     1     -11.604  62.628 105.777  1.00  0.00     0.265 A
ATOM     39  H11 UNL     1      -9.619  61.907 105.727  1.00  0.00     0.169 HD
HETATM   40  N13 UNL     1     -12.048  63.892 105.703  1.00  0.00    -0.263 N
ATOM     41  H13 UNL     1     -13.034  64.153 105.736  1.00  0.00     0.190 HD
BRANCH  38  42
HETATM   42  N12 UNL     1     -12.425  61.471 105.913  1.00  0.00    -0.078 N
HETATM   43  O4  UNL     1     -12.810  60.829 104.919  1.00  0.00    -0.529 OA
HETATM   44  O5  UNL     1     -12.814  61.037 107.156  1.00  0.00    -0.529 OA
ENDBRANCH  38  42
ENDBRANCH  34  35
ENDBRANCH  14  34
TORSDOF 9
ENDMDL