MODEL 1
REMARK VINA RESULT: -10.026466999      0.000      0.000
REMARK  14 active torsions:
REMARK  status: ('A' for Active; 'I' for Inactive)
REMARK    1  A    between atoms: N1_1  and  C1_4
REMARK    2  A    between atoms: C2_7  and  N3_8
REMARK    3  A    between atoms: N3_8  and  C3_10
REMARK    4  A    between atoms: C3_10  and  C4_11
REMARK    5  A    between atoms: C4_11  and  N4_12
REMARK    6  A    between atoms: N4_12  and  O1_13
REMARK    7  A    between atoms: N4_12  and  N5_15
REMARK    8  A    between atoms: C6_19  and  N6_20
REMARK    9  A    between atoms: N6_20  and  C7_22
REMARK   10  A    between atoms: C7_22  and  N7_23
REMARK   11  A    between atoms: N7_23  and  C8_25
REMARK   12  A    between atoms: C11_28  and  N8_29
REMARK   13  A    between atoms: C13_33  and  N9_34
REMARK   14  A    between atoms: C14_39  and  N11_40
ROOT
HETATM    1  C1  UNL     1     -11.832  64.076 104.453  1.00  0.00     0.679 A
HETATM    2  N2  UNL     1     -12.309  65.166 105.075  1.00  0.00    -0.176 N
ATOM      3  H2  UNL     1     -11.749  66.017 105.028  1.00  0.00     0.186 HD
HETATM    4  C2  UNL     1     -13.462  65.222 105.752  1.00  0.00     0.134 A
HETATM    5  C5  UNL     1     -14.182  64.018 105.778  1.00  0.00     0.098 A
HETATM    6  C6  UNL     1     -15.380  63.950 106.441  1.00  0.00     0.136 A
HETATM    7  N10 UNL     1     -16.044  62.785 106.447  1.00  0.00    -0.176 N
ATOM      8  H10 UNL     1     -16.934  62.740 106.941  1.00  0.00     0.186 HD
HETATM    9  C14 UNL     1     -15.597  61.669 105.834  1.00  0.00     0.679 A
HETATM   10  N12 UNL     1     -14.426  61.733 105.185  1.00  0.00    -0.175 N
ATOM     11  H12 UNL     1     -14.066  60.904 104.713  1.00  0.00     0.186 HD
HETATM   12  C15 UNL     1     -13.713  62.889 105.148  1.00  0.00     0.154 A
HETATM   13  N13 UNL     1     -12.546  62.929 104.494  1.00  0.00    -0.175 N
ATOM     14  H13 UNL     1     -12.196  62.094 104.025  1.00  0.00     0.186 HD
ENDROOT
BRANCH   6  15
HETATM   15  N6  UNL     1     -15.786  65.021 107.016  1.00  0.00    -0.359 N
ATOM     16  H6  UNL     1     -15.591  65.936 106.609  1.00  0.00     0.162 HD
BRANCH  15  17
HETATM   17  C7  UNL     1     -16.525  64.910 108.251  1.00  0.00     0.245 C
BRANCH  17  18
HETATM   18  N7  UNL     1     -15.639  64.696 109.385  1.00  0.00    -0.372 N
ATOM     19  H7  UNL     1     -15.610  63.796 109.864  1.00  0.00     0.161 HD
BRANCH  18  20
HETATM   20  C8  UNL     1     -14.824  65.761 109.805  1.00  0.00     0.062 A
HETATM   21  C9  UNL     1     -15.394  67.017 110.023  1.00  0.00     0.034 A
HETATM   22  C10 UNL     1     -14.648  68.101 110.411  1.00  0.00     0.038 A
HETATM   23  C11 UNL     1     -13.282  67.950 110.597  1.00  0.00     0.105 A
HETATM   24  C12 UNL     1     -12.754  66.710 110.377  1.00  0.00     0.074 A
HETATM   25  C13 UNL     1     -13.488  65.596 109.983  1.00  0.00     0.131 A
BRANCH  23  26
HETATM   26  N8  UNL     1     -12.511  69.073 110.999  1.00  0.00    -0.116 N
HETATM   27  O4  UNL     1     -12.803  69.717 112.022  1.00  0.00    -0.532 OA
HETATM   28  O5  UNL     1     -11.432  69.449 110.249  1.00  0.00    -0.532 OA
ENDBRANCH  23  26
BRANCH  25  29
HETATM   29  N9  UNL     1     -12.796  64.382 109.793  1.00  0.00    -0.113 N
HETATM   30  O6  UNL     1     -12.801  63.683 108.782  1.00  0.00    -0.532 OA
HETATM   31  O7  UNL     1     -12.052  63.925 110.889  1.00  0.00    -0.532 OA
ENDBRANCH  25  29
ENDBRANCH  18  20
ENDBRANCH  17  18
ENDBRANCH  15  17
ENDBRANCH   6  15
BRANCH   4  32
HETATM   32  N3  UNL     1     -13.936  66.244 106.351  1.00  0.00    -0.373 N
ATOM     33  H3  UNL     1     -14.444  66.058 107.215  1.00  0.00     0.161 HD
BRANCH  32  34
HETATM   34  C3  UNL     1     -13.846  67.600 105.968  1.00  0.00     0.145 C
BRANCH  34  35
HETATM   35  C4  UNL     1     -15.158  68.194 105.503  1.00  0.00     0.202 C
BRANCH  35  36
HETATM   36  N4  UNL     1     -15.728  67.552 104.376  1.00  0.00    -0.139 N
BRANCH  36  37
HETATM   37  O1  UNL     1     -16.478  66.451 104.527  1.00  0.00    -0.268 OA
ATOM     38  H1  UNL     1     -16.111  65.592 104.358  1.00  0.00     0.246 HD
ENDBRANCH  36  37
BRANCH  36  39
HETATM   39  N5  UNL     1     -15.518  68.055 103.101  1.00  0.00    -0.016 N
HETATM   40  O2  UNL     1     -14.677  68.971 102.969  1.00  0.00    -0.515 OA
HETATM   41  O3  UNL     1     -16.191  67.586 102.020  1.00  0.00    -0.515 OA
ENDBRANCH  36  39
ENDBRANCH  35  36
ENDBRANCH  34  35
ENDBRANCH  32  34
ENDBRANCH   4  32
BRANCH   9  42
HETATM   42  N11 UNL     1     -16.292  60.559 105.874  1.00  0.00    -0.234 N
ATOM     43 2H11 UNL     1     -17.161  60.460 105.350  1.00  0.00     0.174 HD
ATOM     44 1H11 UNL     1     -15.977  59.766 106.434  1.00  0.00     0.174 HD
ENDBRANCH   9  42
BRANCH   1  45
HETATM   45  N1  UNL     1     -10.704  64.135 103.828  1.00  0.00    -0.234 N
ATOM     46  H12 UNL     1     -10.248  65.029 103.651  1.00  0.00     0.174 HD
ATOM     47  H11 UNL     1     -10.258  63.277 103.504  1.00  0.00     0.174 HD
ENDBRANCH   1  45
TORSDOF 14
ENDMDL