MODEL 5
REMARK VINA RESULT: -9.516672883      2.716      5.190
REMARK  11 active torsions:
REMARK  status: ('A' for Active; 'I' for Inactive)
REMARK    1  A    between atoms: C2_2  and  C3_3
REMARK    2  A    between atoms: C3_3  and  C4_4
REMARK    3  A    between atoms: C4_4  and  N1_5
REMARK       I    between atoms: N1_5  and  C5_7
REMARK    4  A    between atoms: C5_7  and  C6_9
REMARK    5  A    between atoms: C6_9  and  N2_10
REMARK    6  A    between atoms: N3_13  and  C8_14
REMARK    7  A    between atoms: C8_14  and  C9_15
REMARK    8  A    between atoms: C10_16  and  C11_17
REMARK    9  A    between atoms: C11_17  and  N5_19
REMARK   10  A    between atoms: N8_26  and  C13_27
REMARK   11  A    between atoms: C17_43  and  N14_44
ROOT
HETATM    1  N2  UNL     1     -13.728  64.306 108.345  1.00  0.00    -0.284 N
HETATM    2  C7  UNL     1     -12.542  64.989 108.406  1.00  0.00     0.331 A
HETATM    3  O2  UNL     1     -12.299  65.823 109.332  1.00  0.00    -0.246 OA
HETATM    4  N3  UNL     1     -11.738  64.659 107.406  1.00  0.00    -0.277 N
HETATM    5  C15 UNL     1     -12.457  63.731 106.694  1.00  0.00     0.144 A
HETATM    6  N12 UNL     1     -12.160  63.026 105.601  1.00  0.00    -0.336 N
ATOM      7  H12 UNL     1     -11.255  63.165 105.151  1.00  0.00     0.168 HD
HETATM    8  C16 UNL     1     -13.012  62.147 105.083  1.00  0.00     0.183 A
HETATM    9  N13 UNL     1     -14.236  61.922 105.645  1.00  0.00    -0.337 N
ATOM     10  H13 UNL     1     -14.875  61.243 105.229  1.00  0.00     0.168 HD
HETATM   11  C17 UNL     1     -14.592  62.595 106.740  1.00  0.00     0.131 A
HETATM   12  C18 UNL     1     -13.691  63.508 107.268  1.00  0.00     0.128 A
ENDROOT
BRANCH   4  13
HETATM   13  C8  UNL     1     -10.376  64.995 107.047  1.00  0.00     0.197 C
BRANCH  13  14
HETATM   14  C9  UNL     1     -10.183  65.999 106.007  1.00  0.00     0.087 A
HETATM   15  C10 UNL     1     -10.905  67.165 105.913  1.00  0.00     0.116 A
HETATM   16  N6  UNL     1     -10.484  67.748 104.740  1.00  0.00    -0.281 N
HETATM   17  N7  UNL     1      -9.584  66.990 104.196  1.00  0.00    -0.234 N
ATOM     18  H6  UNL     1     -10.823  68.631 104.360  1.00  0.00     0.188 HD
HETATM   19  N8  UNL     1      -9.366  65.900 104.947  1.00  0.00    -0.221 N
ATOM     20  H7  UNL     1      -9.108  67.194 103.318  1.00  0.00     0.209 HD
BRANCH  15  21
HETATM   21  C11 UNL     1     -11.810  67.885 106.798  1.00  0.00     0.142 C
HETATM   22  N4  UNL     1     -13.195  68.021 106.477  1.00  0.00    -0.081 NA
BRANCH  21  23
HETATM   23  N5  UNL     1     -11.474  68.444 107.907  1.00  0.00    -0.381 N
HETATM   24  C12 UNL     1     -10.501  69.480 108.066  1.00  0.00     0.147 C
ATOM     25  H5  UNL     1     -11.944  68.117 108.750  1.00  0.00     0.160 HD
ENDBRANCH  21  23
ENDBRANCH  15  21
BRANCH  19  26
HETATM   26  C13 UNL     1      -8.388  64.931 104.561  1.00  0.00     0.196 A
HETATM   27  N9  UNL     1      -8.452  63.593 104.668  1.00  0.00    -0.220 N
HETATM   28  O3  UNL     1      -7.348  63.100 104.207  1.00  0.00    -0.153 OA
ATOM     29  H9  UNL     1      -9.235  63.059 105.045  1.00  0.00     0.198 HD
HETATM   30  N10 UNL     1      -6.551  64.039 103.799  1.00  0.00    -0.222 N
HETATM   31  C14 UNL     1      -7.165  65.214 104.003  1.00  0.00     0.169 A
ATOM     32  H10 UNL     1      -5.623  63.906 103.396  1.00  0.00     0.198 HD
HETATM   33  N11 UNL     1      -6.654  66.366 103.710  1.00  0.00    -0.381 N
ATOM     34 2H11 UNL     1      -7.121  67.259 103.865  1.00  0.00     0.157 HD
ATOM     35 1H11 UNL     1      -5.746  66.575 103.296  1.00  0.00     0.157 HD
ENDBRANCH  19  26
ENDBRANCH  13  14
ENDBRANCH   4  13
BRANCH   1  36
HETATM   36  C6  UNL     1     -14.808  64.457 109.292  1.00  0.00     0.237 C
BRANCH  36  37
HETATM   37  C5  UNL     1     -15.680  65.642 108.933  1.00  0.00     0.239 C
HETATM   38  N1  UNL     1     -15.374  66.932 109.262  1.00  0.00    -0.336 N
ATOM     39  H1  UNL     1     -14.495  67.034 109.767  1.00  0.00     0.168 HD
HETATM   40  O1  UNL     1     -16.697  65.294 108.308  1.00  0.00    -0.271 OA
BRANCH  38  41
HETATM   41  C4  UNL     1     -16.044  68.139 109.034  1.00  0.00     0.087 C
BRANCH  41  42
HETATM   42  C3  UNL     1     -16.956  68.754 109.999  1.00  0.00    -0.010 C
BRANCH  42  43
HETATM   43  C2  UNL     1     -17.824  67.946 110.888  1.00  0.00     0.024 C
HETATM   44  C1  UNL     1     -19.283  68.365 110.824  1.00  0.00     0.009 C
ENDBRANCH  42  43
ENDBRANCH  41  42
ENDBRANCH  38  41
ENDBRANCH  36  37
ENDBRANCH   1  36
BRANCH  11  45
HETATM   45  N14 UNL     1     -15.730  62.402 107.280  1.00  0.00    -0.383 N
ATOM     46 2H14 UNL     1     -16.424  61.789 106.849  1.00  0.00     0.157 HD
ATOM     47 1H14 UNL     1     -15.973  62.857 108.160  1.00  0.00     0.157 HD
ENDBRANCH  11  45
TORSDOF 11
ENDMDL