MODEL 2
REMARK VINA RESULT: -7.916804279      1.479      1.791
REMARK  8 active torsions:
REMARK  status: ('A' for Active; 'I' for Inactive)
REMARK    1  A    between atoms: C1_4  and  C2_6
REMARK    2  A    between atoms: C2_6  and  C3_7
REMARK    3  A    between atoms: C3_7  and  N4_11
REMARK    4  A    between atoms: N4_11  and  C4_13
REMARK    5  A    between atoms: C4_13  and  C5_14
REMARK    6  A    between atoms: C5_14  and  N5_15
REMARK    7  A    between atoms: N5_15  and  S1_17
REMARK    8  A    between atoms: S1_17  and  N6_18
ROOT
HETATM    1  C3  UNL     1     -43.123   0.350  -2.815  1.00  0.00     0.086 C
HETATM    2  N3  UNL     1     -42.812  -0.292  -1.741  1.00  0.00    -0.388 N
ATOM      3  H31 UNL     1     -42.502  -1.258  -1.851  1.00  0.00     0.157 HD
ATOM      4  H32 UNL     1     -42.862   0.121  -0.809  1.00  0.00     0.157 HD
ENDROOT
BRANCH   1   5
HETATM    5  C2  UNL     1     -43.576   1.758  -2.654  1.00  0.00     0.073 C
HETATM    6  C6  UNL     1     -44.673   2.036  -3.676  1.00  0.00     0.025 C
HETATM    7  C7  UNL     1     -45.650   1.508  -2.640  1.00  0.00     0.003 C
HETATM    8  C8  UNL     1     -44.643   1.940  -1.592  1.00  0.00     0.025 C
BRANCH   5   9
HETATM    9  C1  UNL     1     -42.516   2.773  -2.652  1.00  0.00     0.103 C
HETATM   10  N1  UNL     1     -42.777   3.935  -2.162  1.00  0.00    -0.390 N
ATOM     11  H12 UNL     1     -42.039   4.640  -2.160  1.00  0.00     0.157 HD
ATOM     12  H11 UNL     1     -43.691   4.168  -1.777  1.00  0.00     0.157 HD
HETATM   13  N2  UNL     1     -41.231   2.445  -3.192  1.00  0.00    -0.087 NA
ENDBRANCH   5   9
ENDBRANCH   1   5
BRANCH   1  14
HETATM   14  N4  UNL     1     -43.053  -0.225  -4.111  1.00  0.00    -0.378 N
ATOM     15  H4  UNL     1     -42.789   0.366  -4.900  1.00  0.00     0.160 HD
BRANCH  14  16
HETATM   16  C4  UNL     1     -43.343  -1.617  -4.347  1.00  0.00     0.141 C
BRANCH  16  17
HETATM   17  C5  UNL     1     -44.843  -1.781  -4.392  1.00  0.00     0.153 C
BRANCH  17  18
HETATM   18  N5  UNL     1     -45.256  -2.992  -5.069  1.00  0.00    -0.301 N
ATOM     19  H5  UNL     1     -45.052  -3.948  -4.777  1.00  0.00     0.173 HD
BRANCH  18  20
HETATM   20  S1  UNL     1     -46.157  -2.520  -6.460  1.00  0.00     0.312 S
HETATM   21  O1  UNL     1     -46.163  -3.574  -7.520  1.00  0.00    -0.183 OA
HETATM   22  O2  UNL     1     -47.569  -2.138  -6.097  1.00  0.00    -0.183 OA
BRANCH  20  23
HETATM   23  N6  UNL     1     -45.370  -1.126  -7.150  1.00  0.00    -0.312 N
ATOM     24  H62 UNL     1     -44.367  -0.938  -7.122  1.00  0.00     0.170 HD
ATOM     25  H61 UNL     1     -46.091  -0.545  -7.578  1.00  0.00     0.170 HD
ENDBRANCH  20  23
ENDBRANCH  18  20
ENDBRANCH  17  18
ENDBRANCH  16  17
ENDBRANCH  14  16
ENDBRANCH   1  14
TORSDOF 8
ENDMDL