MODEL 1
REMARK VINA RESULT: -4.995785267      0.000      0.000
REMARK  7 active torsions:
REMARK  status: ('A' for Active; 'I' for Inactive)
REMARK    1  A    between atoms: O1_2  and  C2_3
REMARK    2  A    between atoms: C2_3  and  C3_4
REMARK    3  A    between atoms: C4_5  and  N1_6
REMARK       I    between atoms: N1_6  and  C5_8
REMARK    4  A    between atoms: C6_13  and  O2_14
REMARK    5  A    between atoms: C7_16  and  N4_17
REMARK    6  A    between atoms: N4_17  and  C8_18
REMARK    7  A    between atoms: N5_22  and  N6_23
ROOT
HETATM    1  C3  UNL     1     -43.575  -2.172  -3.676  1.00  0.00     0.128 C
HETATM    2  C4  UNL     1     -44.618  -1.477  -4.581  1.00  0.00     0.137 C
HETATM    3  C6  UNL     1     -44.578  -0.038  -4.420  1.00  0.00     0.180 C
HETATM    4  C7  UNL     1     -43.774   0.491  -3.304  1.00  0.00     0.216 C
HETATM    5  C9  UNL     1     -43.646  -0.431  -2.142  1.00  0.00     0.114 C
HETATM    6  C10 UNL     1     -44.447  -0.029  -0.913  1.00  0.00     0.031 C
HETATM    7  N5  UNL     1     -43.929  -1.836  -2.336  1.00  0.00    -0.222 NA
ENDROOT
BRANCH   2   8
HETATM    8  N1  UNL     1     -44.403  -2.039  -5.881  1.00  0.00    -0.356 N
HETATM    9  C5  UNL     1     -45.552  -2.251  -6.744  1.00  0.00     0.182 C
HETATM   10  N2  UNL     1     -46.413  -1.335  -6.955  1.00  0.00    -0.374 N
HETATM   11  N3  UNL     1     -45.652  -3.531  -7.324  1.00  0.00    -0.064 NA
ATOM     12  H22 UNL     1     -46.341  -0.409  -6.534  1.00  0.00     0.158 HD
ATOM     13  H21 UNL     1     -47.220  -1.484  -7.561  1.00  0.00     0.158 HD
ATOM     14  H1  UNL     1     -43.465  -2.286  -6.194  1.00  0.00     0.162 HD
ENDBRANCH   2   8
BRANCH   1  15
HETATM   15  C2  UNL     1     -43.649  -3.626  -4.032  1.00  0.00     0.190 C
BRANCH  15  16
HETATM   16  O1  UNL     1     -44.828  -4.241  -3.862  1.00  0.00    -0.394 OA
HETATM   17  C1  UNL     1     -44.884  -5.224  -2.933  1.00  0.00     0.201 C
ENDBRANCH  15  16
ENDBRANCH   1  15
BRANCH   3  18
HETATM   18  O2  UNL     1     -44.295   0.653  -5.627  1.00  0.00    -0.390 OA
ATOM     19  H2  UNL     1     -44.674   1.523  -5.658  1.00  0.00     0.210 HD
ENDBRANCH   3  18
BRANCH   7  20
HETATM   20  N6  UNL     1     -43.162  -2.498  -1.402  1.00  0.00    -0.362 NA
ATOM     21  H62 UNL     1     -43.091  -3.458  -1.739  1.00  0.00     0.171 HD
ATOM     22  H61 UNL     1     -43.598  -2.522  -0.481  1.00  0.00     0.171 HD
ENDBRANCH   7  20
BRANCH   4  23
HETATM   23  N4  UNL     1     -44.074   1.819  -2.864  1.00  0.00    -0.413 NA
BRANCH  23  24
HETATM   24  C8  UNL     1     -44.354   3.059  -2.454  1.00  0.00     0.435 C
HETATM   25  O3  UNL     1     -43.733   3.869  -1.734  1.00  0.00    -0.269 OA
ENDBRANCH  23  24
ENDBRANCH   4  23
TORSDOF 7
ENDMDL