MODEL 2
REMARK VINA RESULT: -7.536310378      1.037      1.088
REMARK  8 active torsions:
REMARK  status: ('A' for Active; 'I' for Inactive)
REMARK    1  A    between atoms: C2_4  and  N2_5
REMARK    2  A    between atoms: N2_5  and  C3_7
REMARK    3  A    between atoms: C4_8  and  N3_9
REMARK    4  A    between atoms: C6_14  and  N4_15
REMARK    5  A    between atoms: C7_19  and  C8_20
REMARK       I    between atoms: C8_20  and  N5_22
REMARK    6  A    between atoms: N5_22  and  C9_24
REMARK    7  A    between atoms: C9_24  and  C10_25
REMARK    8  A    between atoms: C10_25  and  C11_26
ROOT
HETATM    1  C3  UNL     1     -43.588   0.990  -3.241  1.00  0.00     0.127 C
HETATM    2  C4  UNL     1     -44.877   0.875  -2.558  1.00  0.00     0.209 C
HETATM    3  C5  UNL     1     -44.893  -0.374  -1.776  1.00  0.00     0.068 C
HETATM    4  C6  UNL     1     -43.680  -1.133  -2.229  1.00  0.00     0.200 C
HETATM    5  C7  UNL     1     -43.128  -0.425  -3.429  1.00  0.00     0.133 C
ENDROOT
BRANCH   5   6
HETATM    6  C8  UNL     1     -43.529  -1.025  -4.702  1.00  0.00     0.225 C
HETATM    7  O1  UNL     1     -42.815  -1.984  -5.157  1.00  0.00    -0.273 OA
HETATM    8  N5  UNL     1     -44.638  -0.643  -5.486  1.00  0.00    -0.360 N
ATOM      9  H5  UNL     1     -45.230   0.115  -5.146  1.00  0.00     0.162 HD
BRANCH   8  10
HETATM   10  C9  UNL     1     -44.978  -1.259  -6.729  1.00  0.00     0.131 C
BRANCH  10  11
HETATM   11  C10 UNL     1     -46.319  -1.899  -6.799  1.00  0.00     0.119 C
BRANCH  11  12
HETATM   12  C11 UNL     1     -46.195  -3.294  -6.251  1.00  0.00     0.232 C
HETATM   13  N6  UNL     1     -46.933  -4.327  -6.889  1.00  0.00    -0.062 NA
HETATM   14  O2  UNL     1     -45.470  -3.534  -5.270  1.00  0.00    -0.277 OA
ENDBRANCH  11  12
ENDBRANCH  10  11
ENDBRANCH   8  10
ENDBRANCH   5   6
BRANCH   1  15
HETATM   15  N2  UNL     1     -42.555   1.683  -2.523  1.00  0.00    -0.379 N
ATOM     16  H2  UNL     1     -42.490   1.525  -1.518  1.00  0.00     0.160 HD
BRANCH  15  17
HETATM   17  C2  UNL     1     -41.620   2.571  -3.112  1.00  0.00     0.171 C
HETATM   18  N1  UNL     1     -41.566   3.812  -2.760  1.00  0.00    -0.391 N
HETATM   19  C1  UNL     1     -42.454   4.372  -1.750  1.00  0.00     0.147 C
ATOM     20  H1  UNL     1     -40.879   4.421  -3.204  1.00  0.00     0.159 HD
ENDBRANCH  15  17
ENDBRANCH   1  15
BRANCH   4  21
HETATM   21  N4  UNL     1     -42.668  -1.199  -1.186  1.00  0.00    -0.074 N
ATOM     22  H43 UNL     1     -43.066  -1.006  -0.268  1.00  0.00     0.274 HD
ATOM     23  H42 UNL     1     -42.359  -2.158  -1.027  1.00  0.00     0.274 HD
ATOM     24  H41 UNL     1     -41.880  -0.583  -1.387  1.00  0.00     0.274 HD
ENDBRANCH   4  21
BRANCH   2  25
HETATM   25  N3  UNL     1     -45.258   2.049  -1.782  1.00  0.00    -0.073 N
ATOM     26  H33 UNL     1     -44.698   2.110  -0.931  1.00  0.00     0.274 HD
ATOM     27  H32 UNL     1     -44.953   2.900  -2.253  1.00  0.00     0.274 HD
ATOM     28  H31 UNL     1     -46.251   2.104  -1.557  1.00  0.00     0.274 HD
ENDBRANCH   2  25
TORSDOF 8
ENDMDL