MODEL 2
REMARK VINA RESULT: -7.706283980      1.610      1.804
REMARK  8 active torsions:
REMARK  status: ('A' for Active; 'I' for Inactive)
REMARK    1  A    between atoms: C2_2  and  C3_6
REMARK    2  A    between atoms: C3_6  and  N2_7
REMARK    3  A    between atoms: C3_6  and  C4_11
REMARK       I    between atoms: C4_11  and  N3_13
REMARK    4  A    between atoms: N3_13  and  C5_15
REMARK    5  A    between atoms: C5_15  and  C7_17
REMARK       I    between atoms: C7_17  and  N4_19
REMARK    6  A    between atoms: N4_19  and  C8_21
REMARK    7  A    between atoms: C8_21  and  C9_22
REMARK    8  A    between atoms: C8_21  and  C10_24
ROOT
HETATM    1  C4  UNL     1     -43.753   1.762  -2.755  1.00  0.00     0.254 C
HETATM    2  O1  UNL     1     -43.691   1.599  -3.996  1.00  0.00    -0.271 OA
HETATM    3  N3  UNL     1     -43.647   0.613  -1.934  1.00  0.00    -0.346 N
ATOM      4  H3  UNL     1     -43.698   0.746  -0.923  1.00  0.00     0.163 HD
ENDROOT
BRANCH   3   5
HETATM    5  C5  UNL     1     -43.474  -0.716  -2.422  1.00  0.00     0.172 C
HETATM    6  C6  UNL     1     -43.318  -1.637  -1.220  1.00  0.00     0.042 C
BRANCH   5   7
HETATM    7  C7  UNL     1     -44.582  -1.156  -3.308  1.00  0.00     0.241 C
HETATM    8  O2  UNL     1     -45.727  -1.368  -2.806  1.00  0.00    -0.271 OA
HETATM    9  N4  UNL     1     -44.397  -1.345  -4.702  1.00  0.00    -0.341 N
ATOM     10  H4  UNL     1     -43.470  -1.169  -5.090  1.00  0.00     0.163 HD
BRANCH   9  11
HETATM   11  C8  UNL     1     -45.429  -1.769  -5.599  1.00  0.00     0.235 C
BRANCH  11  12
HETATM   12  C9  UNL     1     -45.267  -1.272  -6.995  1.00  0.00     0.265 C
HETATM   13  O3  UNL     1     -44.329  -0.597  -7.378  1.00  0.00    -0.304 OA
ENDBRANCH  11  12
BRANCH  11  14
HETATM   14  C10 UNL     1     -45.654  -3.233  -5.590  1.00  0.00     0.260 C
HETATM   15  N5  UNL     1     -46.553  -3.817  -6.505  1.00  0.00    -0.060 NA
HETATM   16  O4  UNL     1     -45.039  -3.951  -4.762  1.00  0.00    -0.274 OA
ENDBRANCH  11  14
ENDBRANCH   9  11
ENDBRANCH   5   7
ENDBRANCH   3   5
BRANCH   1  17
HETATM   17  C3  UNL     1     -43.933   3.136  -2.239  1.00  0.00     0.319 C
BRANCH  17  18
HETATM   18  C2  UNL     1     -42.667   3.893  -2.211  1.00  0.00     0.015 C
HETATM   19  C1  UNL     1     -42.380   4.924  -1.173  1.00  0.00     0.065 C
HETATM   20  N1  UNL     1     -41.766   3.684  -3.086  1.00  0.00    -0.404 N
ATOM     21  H12 UNL     1     -40.891   4.207  -3.067  1.00  0.00     0.155 HD
ATOM     22  H11 UNL     1     -41.962   2.978  -3.796  1.00  0.00     0.155 HD
ENDBRANCH  17  18
BRANCH  17  23
HETATM   23  N2  UNL     1     -44.536   3.159  -0.923  1.00  0.00    -0.061 N
ATOM     24  H23 UNL     1     -43.918   3.567  -0.222  1.00  0.00     0.275 HD
ATOM     25  H22 UNL     1     -45.296   3.836  -0.858  1.00  0.00     0.275 HD
ATOM     26  H21 UNL     1     -44.836   2.216  -0.671  1.00  0.00     0.275 HD
ENDBRANCH  17  23
ENDBRANCH   1  17
TORSDOF 8
ENDMDL