MODEL 3
REMARK VINA RESULT: -7.415960414      1.442      1.575
REMARK  8 active torsions:
REMARK  status: ('A' for Active; 'I' for Inactive)
REMARK    1  A    between atoms: C2_2  and  N3_8
REMARK    2  A    between atoms: N1_3  and  N2_5
REMARK    3  A    between atoms: N3_8  and  C3_10
REMARK    4  A    between atoms: C6_14  and  C7_15
REMARK    5  A    between atoms: C7_15  and  N4_16
REMARK    6  A    between atoms: C7_15  and  C8_20
REMARK       I    between atoms: C8_20  and  N5_22
REMARK    7  A    between atoms: N5_22  and  C9_24
REMARK    8  A    between atoms: C9_24  and  C10_25
ROOT
HETATM    1  C3  UNL     1     -43.953   0.843  -1.740  1.00  0.00     0.116 C
HETATM    2  C4  UNL     1     -45.256   1.686  -1.871  1.00  0.00     0.054 C
HETATM    3  C5  UNL     1     -45.909   0.883  -2.997  1.00  0.00     0.170 C
HETATM    4  O1  UNL     1     -45.306  -0.372  -3.017  1.00  0.00    -0.381 OA
HETATM    5  C6  UNL     1     -44.645  -0.495  -1.817  1.00  0.00     0.183 C
ENDROOT
BRANCH   5   6
HETATM    6  C7  UNL     1     -43.813  -1.694  -1.621  1.00  0.00     0.305 C
BRANCH   6   7
HETATM    7  N4  UNL     1     -42.459  -1.409  -1.248  1.00  0.00    -0.064 N
ATOM      8  H43 UNL     1     -41.983  -0.896  -1.991  1.00  0.00     0.275 HD
ATOM      9  H42 UNL     1     -42.431  -0.706  -0.509  1.00  0.00     0.275 HD
ATOM     10  H41 UNL     1     -41.920  -2.232  -0.980  1.00  0.00     0.275 HD
ENDBRANCH   6   7
BRANCH   6  11
HETATM   11  C8  UNL     1     -43.781  -2.418  -2.939  1.00  0.00     0.251 C
HETATM   12  O2  UNL     1     -44.303  -3.546  -3.007  1.00  0.00    -0.271 OA
HETATM   13  N5  UNL     1     -43.184  -1.860  -4.087  1.00  0.00    -0.351 N
ATOM     14  H5  UNL     1     -42.758  -0.935  -4.028  1.00  0.00     0.163 HD
BRANCH  13  15
HETATM   15  C9  UNL     1     -43.162  -2.569  -5.345  1.00  0.00     0.222 C
BRANCH  15  16
HETATM   16  C10 UNL     1     -44.277  -2.187  -6.229  1.00  0.00     0.248 C
HETATM   17  N6  UNL     1     -44.235  -0.976  -6.949  1.00  0.00    -0.061 NA
HETATM   18  O3  UNL     1     -45.265  -2.939  -6.342  1.00  0.00    -0.275 OA
ENDBRANCH  15  16
ENDBRANCH  13  15
ENDBRANCH   6  11
ENDBRANCH   5   6
BRANCH   1  19
HETATM   19  N3  UNL     1     -43.162   1.179  -2.892  1.00  0.00    -0.372 N
ATOM     20  H3  UNL     1     -43.139   0.583  -3.720  1.00  0.00     0.161 HD
BRANCH  19  21
HETATM   21  C2  UNL     1     -42.408   2.395  -2.816  1.00  0.00     0.087 C
HETATM   22  C1  UNL     1     -41.139   2.514  -3.568  1.00  0.00     0.090 C
HETATM   23  N1  UNL     1     -42.802   3.385  -2.112  1.00  0.00    -0.296 N
ATOM     24  H1  UNL     1     -43.672   3.329  -1.582  1.00  0.00     0.187 HD
BRANCH  23  25
HETATM   25  N2  UNL     1     -42.028   4.542  -2.075  1.00  0.00    -0.344 N
ATOM     26  H22 UNL     1     -42.481   5.443  -1.923  1.00  0.00     0.176 HD
ATOM     27  H21 UNL     1     -41.019   4.470  -2.201  1.00  0.00     0.176 HD
ENDBRANCH  23  25
ENDBRANCH  19  21
ENDBRANCH   1  19
TORSDOF 8
ENDMDL