MODEL 4
REMARK VINA RESULT: -6.144769515      4.397      8.943
REMARK  6 active torsions:
REMARK  status: ('A' for Active; 'I' for Inactive)
REMARK    1  A    between atoms: N1_3  and  N2_5
REMARK       I    between atoms: N2_5  and  C4_7
REMARK       I    between atoms: C4_7  and  N4_11
REMARK    2  A    between atoms: N4_11  and  N5_13
REMARK       I    between atoms: N5_13  and  C5_15
REMARK    3  A    between atoms: N7_17  and  C6_19
REMARK    4  A    between atoms: C6_19  and  C7_20
REMARK    5  A    between atoms: C7_20  and  C8_21
REMARK    6  A    between atoms: C8_21  and  C9_23
ROOT
HETATM    1  C1  UNL     1     -46.520  -2.438  -6.638  1.00  0.00     0.038 C
HETATM    2  C2  UNL     1     -45.721  -1.940  -5.866  1.00  0.00     0.017 C
HETATM    3  N1  UNL     1     -44.807  -1.352  -4.999  1.00  0.00    -0.240 N
HETATM    4  C3  UNL     1     -43.489  -1.927  -4.879  1.00  0.00     0.189 C
ENDROOT
BRANCH   3   5
HETATM    5  N2  UNL     1     -45.173  -0.228  -4.267  1.00  0.00    -0.122 N
HETATM    6  C4  UNL     1     -44.641   0.119  -3.018  1.00  0.00     0.705 C
HETATM    7  N3  UNL     1     -44.973  -0.550  -1.976  1.00  0.00    -0.232 N
HETATM    8  N4  UNL     1     -43.743   1.209  -2.919  1.00  0.00    -0.129 N
ATOM      9  H32 UNL     1     -45.621  -1.334  -2.048  1.00  0.00     0.174 HD
ATOM     10  H31 UNL     1     -44.585  -0.298  -1.067  1.00  0.00     0.174 HD
ATOM     11  H4  UNL     1     -42.848   1.144  -3.405  1.00  0.00     0.205 HD
ATOM     12  H2  UNL     1     -45.880   0.389  -4.669  1.00  0.00     0.206 HD
BRANCH   8  13
HETATM   13  N5  UNL     1     -44.016   2.362  -2.194  1.00  0.00    -0.259 N
HETATM   14  C5  UNL     1     -43.037   3.400  -2.098  1.00  0.00     0.203 C
HETATM   15  N6  UNL     1     -41.903   3.403  -2.959  1.00  0.00    -0.062 NA
HETATM   16  N7  UNL     1     -43.150   4.348  -1.241  1.00  0.00    -0.363 N
ATOM     17  H7  UNL     1     -43.952   4.365  -0.611  1.00  0.00     0.162 HD
ATOM     18  H5  UNL     1     -44.917   2.468  -1.728  1.00  0.00     0.190 HD
BRANCH  16  19
HETATM   19  C6  UNL     1     -42.160   5.385  -1.157  1.00  0.00     0.130 C
BRANCH  19  20
HETATM   20  C7  UNL     1     -41.386   5.129   0.137  1.00  0.00     0.108 C
BRANCH  20  21
HETATM   21  C8  UNL     1     -41.389   6.361   0.956  1.00  0.00     0.215 C
HETATM   22  O1  UNL     1     -42.480   6.837   1.334  1.00  0.00    -0.288 OA
BRANCH  21  23
HETATM   23  C9  UNL     1     -40.132   6.984   1.301  1.00  0.00     0.300 C
HETATM   24  N8  UNL     1     -40.011   7.643   2.562  1.00  0.00    -0.054 NA
HETATM   25  O2  UNL     1     -39.166   6.954   0.517  1.00  0.00    -0.268 OA
ENDBRANCH  21  23
ENDBRANCH  20  21
ENDBRANCH  19  20
ENDBRANCH  16  19
ENDBRANCH   8  13
ENDBRANCH   3   5
TORSDOF 6
ENDMDL