MODEL 5
REMARK VINA RESULT: -6.462941025      1.283      1.306
REMARK  7 active torsions:
REMARK  status: ('A' for Active; 'I' for Inactive)
REMARK       I    between atoms: N1_2  and  C2_4
REMARK    1  A    between atoms: C2_4  and  C3_6
REMARK    2  A    between atoms: C3_6  and  N2_7
REMARK       I    between atoms: N2_7  and  C4_9
REMARK    3  A    between atoms: C4_9  and  C5_11
REMARK    4  A    between atoms: C5_11  and  N3_12
REMARK       I    between atoms: N3_12  and  C6_14
REMARK    5  A    between atoms: C6_14  and  C7_16
REMARK    6  A    between atoms: C7_16  and  N4_17
REMARK    7  A    between atoms: N5_24  and  N6_25
ROOT
HETATM    1  N2  UNL     1     -45.077  -0.762  -3.692  1.00  0.00    -0.328 N
ATOM      2  H2  UNL     1     -45.881  -0.701  -3.068  1.00  0.00     0.165 HD
HETATM    3  C4  UNL     1     -44.393   0.423  -4.046  1.00  0.00     0.237 C
HETATM    4  O2  UNL     1     -43.396   0.328  -4.819  1.00  0.00    -0.272 OA
ENDROOT
BRANCH   1   5
HETATM    5  C3  UNL     1     -44.676  -2.047  -4.186  1.00  0.00     0.189 C
HETATM    6  C8  UNL     1     -43.174  -2.153  -4.391  1.00  0.00     0.081 C
HETATM    7  C9  UNL     1     -43.185  -2.853  -3.077  1.00  0.00     0.082 C
HETATM    8  C10 UNL     1     -42.684  -2.092  -1.891  1.00  0.00     0.028 C
HETATM    9  N5  UNL     1     -44.577  -3.090  -3.180  1.00  0.00    -0.196 NA
BRANCH   5  10
HETATM   10  C2  UNL     1     -45.471  -2.580  -5.323  1.00  0.00     0.262 C
HETATM   11  N1  UNL     1     -46.093  -1.730  -6.269  1.00  0.00    -0.362 N
HETATM   12  C1  UNL     1     -46.868  -2.189  -7.380  1.00  0.00     0.149 C
ATOM     13  H1  UNL     1     -45.982  -0.722  -6.150  1.00  0.00     0.162 HD
HETATM   14  O1  UNL     1     -45.617  -3.814  -5.485  1.00  0.00    -0.269 OA
ENDBRANCH   5  10
BRANCH   9  15
HETATM   15  N6  UNL     1     -45.359  -2.914  -2.055  1.00  0.00    -0.360 NA
ATOM     16  H62 UNL     1     -46.093  -2.205  -2.080  1.00  0.00     0.171 HD
ATOM     17  H61 UNL     1     -46.064  -3.633  -1.888  1.00  0.00     0.171 HD
ENDBRANCH   9  15
ENDBRANCH   1   5
BRANCH   3  18
HETATM   18  C5  UNL     1     -44.815   1.751  -3.534  1.00  0.00     0.225 C
BRANCH  18  19
HETATM   19  N3  UNL     1     -43.689   2.639  -3.427  1.00  0.00    -0.351 N
HETATM   20  C6  UNL     1     -43.383   3.401  -2.278  1.00  0.00     0.243 C
HETATM   21  O3  UNL     1     -44.078   3.369  -1.227  1.00  0.00    -0.272 OA
ATOM     22  H3  UNL     1     -43.070   2.724  -4.233  1.00  0.00     0.163 HD
BRANCH  20  23
HETATM   23  C7  UNL     1     -42.191   4.293  -2.285  1.00  0.00     0.332 C
BRANCH  23  24
HETATM   24  N4  UNL     1     -41.210   3.899  -3.270  1.00  0.00    -0.071 N
ATOM     25  H43 UNL     1     -41.657   3.638  -4.149  1.00  0.00     0.274 HD
ATOM     26  H42 UNL     1     -40.671   4.702  -3.593  1.00  0.00     0.274 HD
ATOM     27  H41 UNL     1     -40.596   3.156  -2.936  1.00  0.00     0.274 HD
ENDBRANCH  23  24
ENDBRANCH  20  23
ENDBRANCH  18  19
ENDBRANCH   3  18
TORSDOF 7
ENDMDL