MODEL 1
REMARK VINA RESULT: -8.080395264      0.000      0.000
REMARK  7 active torsions:
REMARK  status: ('A' for Active; 'I' for Inactive)
REMARK    1  A    between atoms: C2_2  and  N1_3
REMARK    2  A    between atoms: C2_2  and  C3_7
REMARK       I    between atoms: C3_7  and  N2_9
REMARK    3  A    between atoms: N2_9  and  C4_10
REMARK    4  A    between atoms: N2_9  and  N3_12
REMARK    5  A    between atoms: N3_12  and  C5_13
REMARK    6  A    between atoms: C7_15  and  O3_16
REMARK    7  A    between atoms: C8_18  and  N4_19
REMARK       I    between atoms: N4_19  and  C9_21
ROOT
HETATM    1  C5  UNL     1     -43.756  -0.339  -2.152  1.00  0.00     0.099 C
HETATM    2  C6  UNL     1     -45.192  -0.008  -2.593  1.00  0.00     0.056 C
HETATM    3  C7  UNL     1     -45.221   1.462  -2.237  1.00  0.00     0.142 C
HETATM    4  C8  UNL     1     -43.942   1.950  -2.860  1.00  0.00     0.114 C
HETATM    5  C10 UNL     1     -42.954   0.879  -2.542  1.00  0.00     0.050 C
ENDROOT
BRANCH   1   6
HETATM    6  N3  UNL     1     -43.370  -1.536  -2.850  1.00  0.00    -0.145 NA
BRANCH   6   7
HETATM    7  N2  UNL     1     -44.477  -1.932  -3.688  1.00  0.00    -0.105 NA
HETATM    8  C3  UNL     1     -44.174  -1.684  -5.035  1.00  0.00     0.251 C
HETATM    9  O1  UNL     1     -43.067  -1.267  -5.408  1.00  0.00    -0.276 OA
BRANCH   8  10
HETATM   10  C2  UNL     1     -45.146  -1.892  -6.125  1.00  0.00     0.266 C
HETATM   11  C1  UNL     1     -46.580  -1.828  -5.631  1.00  0.00     0.049 C
BRANCH  10  12
HETATM   12  N1  UNL     1     -44.979  -0.935  -7.172  1.00  0.00    -0.067 N
ATOM     13  H13 UNL     1     -45.126  -1.339  -8.097  1.00  0.00     0.275 HD
ATOM     14  H12 UNL     1     -45.732  -0.248  -7.197  1.00  0.00     0.275 HD
ATOM     15  H11 UNL     1     -44.060  -0.502  -7.077  1.00  0.00     0.275 HD
ENDBRANCH  10  12
ENDBRANCH   8  10
BRANCH   7  16
HETATM   16  C4  UNL     1     -44.578  -3.338  -3.480  1.00  0.00     0.347 C
HETATM   17  O2  UNL     1     -43.888  -4.141  -4.028  1.00  0.00    -0.288 OA
ENDBRANCH   7  16
ENDBRANCH   6   7
ENDBRANCH   1   6
BRANCH   3  18
HETATM   18  O3  UNL     1     -46.344   2.090  -2.759  1.00  0.00    -0.393 OA
ATOM     19  H3  UNL     1     -46.501   2.928  -2.339  1.00  0.00     0.210 HD
ENDBRANCH   3  18
BRANCH   4  20
HETATM   20  N4  UNL     1     -43.601   3.231  -2.289  1.00  0.00    -0.358 N
HETATM   21  C9  UNL     1     -42.338   3.845  -2.368  1.00  0.00     0.182 C
HETATM   22  N5  UNL     1     -41.978   4.706  -1.498  1.00  0.00    -0.374 N
HETATM   23  N6  UNL     1     -41.453   3.508  -3.413  1.00  0.00    -0.064 NA
ATOM     24  H52 UNL     1     -42.618   4.950  -0.742  1.00  0.00     0.158 HD
ATOM     25  H51 UNL     1     -41.062   5.151  -1.555  1.00  0.00     0.158 HD
ATOM     26  H4  UNL     1     -44.336   3.732  -1.789  1.00  0.00     0.162 HD
ENDBRANCH   4  20
TORSDOF 7
ENDMDL