MODEL 3
REMARK VINA RESULT: -7.221391447      2.707      5.870
REMARK  8 active torsions:
REMARK  status: ('A' for Active; 'I' for Inactive)
REMARK    1  A    between atoms: C1_2  and  C2_4
REMARK    2  A    between atoms: C2_4  and  C3_5
REMARK    3  A    between atoms: C3_5  and  N2_6
REMARK    4  A    between atoms: C3_5  and  C4_10
REMARK       I    between atoms: C4_10  and  N3_12
REMARK    5  A    between atoms: N3_12  and  C5_14
REMARK    6  A    between atoms: C9_18  and  N4_19
REMARK    7  A    between atoms: C10_23  and  N5_24
REMARK    8  A    between atoms: N5_24  and  C11_26
ROOT
HETATM    1  C5  UNL     1     -43.767   0.084  -4.050  1.00  0.00     0.109 C
HETATM    2  C6  UNL     1     -43.420  -0.798  -5.209  1.00  0.00     0.027 C
HETATM    3  C7  UNL     1     -44.690  -1.366  -5.746  1.00  0.00     0.004 C
HETATM    4  C8  UNL     1     -45.741  -1.637  -4.736  1.00  0.00     0.035 C
HETATM    5  C9  UNL     1     -45.302  -1.745  -3.323  1.00  0.00     0.208 C
HETATM    6  C10 UNL     1     -44.194  -0.823  -2.917  1.00  0.00     0.137 C
ENDROOT
BRANCH   1   7
HETATM    7  N3  UNL     1     -42.714   0.938  -3.617  1.00  0.00    -0.353 N
HETATM    8  C4  UNL     1     -42.905   2.297  -3.261  1.00  0.00     0.249 C
HETATM    9  O2  UNL     1     -44.067   2.754  -3.336  1.00  0.00    -0.271 OA
ATOM     10  H3  UNL     1     -41.772   0.552  -3.560  1.00  0.00     0.163 HD
BRANCH   8  11
HETATM   11  C3  UNL     1     -41.818   3.192  -2.810  1.00  0.00     0.283 C
BRANCH  11  12
HETATM   12  C2  UNL     1     -42.438   4.492  -2.406  1.00  0.00     0.142 C
BRANCH  12  13
HETATM   13  C1  UNL     1     -42.627   4.672  -0.968  1.00  0.00     0.233 C
HETATM   14  N1  UNL     1     -41.853   5.498  -0.126  1.00  0.00    -0.062 NA
HETATM   15  O1  UNL     1     -43.568   4.031  -0.427  1.00  0.00    -0.277 OA
ENDBRANCH  12  13
ENDBRANCH  11  12
BRANCH  11  16
HETATM   16  N2  UNL     1     -40.827   3.289  -3.825  1.00  0.00    -0.066 N
ATOM     17  H23 UNL     1     -41.261   3.240  -4.747  1.00  0.00     0.275 HD
ATOM     18  H22 UNL     1     -40.447   4.235  -3.857  1.00  0.00     0.275 HD
ATOM     19  H21 UNL     1     -40.071   2.608  -3.755  1.00  0.00     0.275 HD
ENDBRANCH  11  16
ENDBRANCH   8  11
ENDBRANCH   1   7
BRANCH   6  20
HETATM   20  N5  UNL     1     -43.049  -1.597  -2.429  1.00  0.00    -0.360 N
ATOM     21  H5  UNL     1     -42.510  -2.157  -3.090  1.00  0.00     0.162 HD
BRANCH  20  22
HETATM   22  C11 UNL     1     -42.671  -1.590  -1.063  1.00  0.00     0.348 C
HETATM   23  O3  UNL     1     -43.476  -1.944  -0.141  1.00  0.00    -0.284 OA
ENDBRANCH  20  22
ENDBRANCH   6  20
BRANCH   5  24
HETATM   24  N4  UNL     1     -44.923  -3.130  -3.027  1.00  0.00    -0.073 N
ATOM     25  H43 UNL     1     -45.732  -3.749  -2.984  1.00  0.00     0.274 HD
ATOM     26  H42 UNL     1     -44.441  -3.572  -3.810  1.00  0.00     0.274 HD
ATOM     27  H41 UNL     1     -44.370  -3.160  -2.170  1.00  0.00     0.274 HD
ENDBRANCH   5  24
TORSDOF 8
ENDMDL