MODEL 5
REMARK VINA RESULT: -6.909280548      1.830      2.188
REMARK  6 active torsions:
REMARK  status: ('A' for Active; 'I' for Inactive)
REMARK    1  A    between atoms: C2_2  and  C4_4
REMARK       I    between atoms: C4_4  and  N1_6
REMARK    2  A    between atoms: N1_6  and  C5_8
REMARK    3  A    between atoms: C7_10  and  C8_11
REMARK    4  A    between atoms: C8_11  and  N2_12
REMARK    5  A    between atoms: C8_11  and  C9_16
REMARK       I    between atoms: C9_16  and  N3_18
REMARK    6  A    between atoms: N3_18  and  N4_20
REMARK       I    between atoms: N4_20  and  C10_22
ROOT
HETATM    1  C8  UNL     1      15.402  13.692  62.099  1.00  0.00     0.282 C
ENDROOT
BRANCH   1   2
HETATM    2  C7  UNL     1      15.839  12.407  61.469  1.00  0.00     0.050 A
HETATM    3  C5  UNL     1      16.275  12.520  60.019  1.00  0.00     0.091 A
HETATM    4  C6  UNL     1      17.226  12.142  61.084  1.00  0.00     0.034 A
BRANCH   3   5
HETATM    5  N1  UNL     1      15.685  11.543  59.148  1.00  0.00    -0.352 N
HETATM    6  C4  UNL     1      14.940  11.874  57.977  1.00  0.00     0.246 C
HETATM    7  O1  UNL     1      14.808  13.095  57.711  1.00  0.00    -0.268 OA
ATOM      8  H1  UNL     1      15.805  10.557  59.379  1.00  0.00     0.163 HD
BRANCH   6   9
HETATM    9  C2  UNL     1      14.348  10.891  57.106  1.00  0.00    -0.004 C
HETATM   10  C1  UNL     1      14.795  10.736  55.882  1.00  0.00     0.024 C
HETATM   11  C3  UNL     1      13.232  10.061  57.594  1.00  0.00     0.053 C
ENDBRANCH   6   9
ENDBRANCH   3   5
ENDBRANCH   1   2
BRANCH   1  12
HETATM   12  N2  UNL     1      15.412  13.547  63.529  1.00  0.00    -0.066 N
ATOM     13  H23 UNL     1      14.545  13.144  63.882  1.00  0.00     0.275 HD
ATOM     14  H22 UNL     1      16.050  12.814  63.838  1.00  0.00     0.275 HD
ATOM     15  H21 UNL     1      15.623  14.449  63.958  1.00  0.00     0.275 HD
ENDBRANCH   1  12
BRANCH   1  16
HETATM   16  C9  UNL     1      14.143  14.210  61.565  1.00  0.00     0.267 C
HETATM   17  O2  UNL     1      14.164  15.175  60.764  1.00  0.00    -0.269 OA
HETATM   18  N3  UNL     1      12.900  13.651  61.930  1.00  0.00    -0.265 N
ATOM     19  H3  UNL     1      12.856  12.868  62.581  1.00  0.00     0.190 HD
BRANCH  18  20
HETATM   20  N4  UNL     1      11.730  14.187  61.385  1.00  0.00    -0.251 N
HETATM   21  C10 UNL     1      11.263  13.801  60.109  1.00  0.00     0.347 C
HETATM   22  N5  UNL     1      10.052  14.402  59.629  1.00  0.00    -0.038 NA
HETATM   23  O3  UNL     1      11.842  12.970  59.378  1.00  0.00    -0.249 OA
ATOM     24  H4  UNL     1      11.199  14.874  61.922  1.00  0.00     0.191 HD
ENDBRANCH  18  20
ENDBRANCH   1  16
TORSDOF 6
ENDMDL