MODEL 5
REMARK VINA RESULT: -6.777466965      2.481      3.710
REMARK  5 active torsions:
REMARK  status: ('A' for Active; 'I' for Inactive)
REMARK    1  A    between atoms: N1_2  and  C2_5
REMARK    2  A    between atoms: C5_8  and  N2_9
REMARK    3  A    between atoms: C5_8  and  C7_12
REMARK    4  A    between atoms: C7_12  and  N3_13
REMARK    5  A    between atoms: C7_12  and  C9_18
ROOT
HETATM    1  C2  UNL     1      15.084  11.694  60.075  1.00  0.00     0.188 C
HETATM    2  C3  UNL     1      15.834  12.703  59.237  1.00  0.00     0.035 C
HETATM    3  C4  UNL     1      14.940  13.929  59.297  1.00  0.00     0.035 C
HETATM    4  C5  UNL     1      14.361  13.922  60.687  1.00  0.00     0.056 C
HETATM    5  C10 UNL     1      14.150  12.428  60.973  1.00  0.00     0.066 C
ENDROOT
BRANCH   4   6
HETATM    6  N2  UNL     1      15.365  14.358  61.599  1.00  0.00    -0.414 N
HETATM    7  C6  UNL     1      15.379  13.715  62.880  1.00  0.00     0.141 C
ATOM      8  H2  UNL     1      16.035  15.086  61.354  1.00  0.00     0.153 HD
ENDBRANCH   4   6
BRANCH   4   9
HETATM    9  C7  UNL     1      13.039  14.661  60.799  1.00  0.00     0.200 C
BRANCH   9  10
HETATM   10  N3  UNL     1      13.023  15.524  61.889  1.00  0.00    -0.352 N
HETATM   11  C8  UNL     1      12.406  16.434  62.411  1.00  0.00     0.197 C
HETATM   12  N4  UNL     1      12.928  16.978  63.654  1.00  0.00    -0.067 NA
HETATM   13  N5  UNL     1      11.217  17.067  61.980  1.00  0.00    -0.067 NA
ATOM     14  H3  UNL     1      13.834  15.316  62.471  1.00  0.00     0.162 HD
ENDBRANCH   9  10
BRANCH   9  15
HETATM   15  C9  UNL     1      11.867  13.815  60.559  1.00  0.00     0.256 C
HETATM   16  N6  UNL     1      10.984  13.407  61.628  1.00  0.00    -0.060 NA
HETATM   17  O1  UNL     1      11.520  13.372  59.439  1.00  0.00    -0.274 OA
ENDBRANCH   9  15
ENDBRANCH   4   9
BRANCH   1  18
HETATM   18  N1  UNL     1      16.041  10.862  60.749  1.00  0.00    -0.075 N
HETATM   19  C1  UNL     1      17.365  11.457  60.589  1.00  0.00     0.267 C
ATOM     20  H12 UNL     1      16.007   9.892  60.434  1.00  0.00     0.277 HD
ATOM     21  H11 UNL     1      15.800  10.700  61.726  1.00  0.00     0.277 HD
ENDBRANCH   1  18
TORSDOF 5
ENDMDL