MODEL 4
REMARK VINA RESULT: -7.259915563      1.440      2.982
REMARK  5 active torsions:
REMARK  status: ('A' for Active; 'I' for Inactive)
REMARK    1  A    between atoms: C2_2  and  N1_3
REMARK    2  A    between atoms: C2_2  and  C3_7
REMARK    3  A    between atoms: C2_2  and  C6_21
REMARK    4  A    between atoms: C3_7  and  N2_8
REMARK       I    between atoms: N2_8  and  C4_10
REMARK       I    between atoms: C4_10  and  N4_14
REMARK    5  A    between atoms: N4_14  and  N5_16
REMARK       I    between atoms: C6_21  and  N8_23
ROOT
HETATM    1  C3  UNL     1      14.818  13.149  58.347  1.00  0.00     0.186 C
ENDROOT
BRANCH   1   2
HETATM    2  C2  UNL     1      15.481  11.783  58.487  1.00  0.00     0.215 C
HETATM    3  C1  UNL     1      14.713  11.003  59.555  1.00  0.00     0.058 C
BRANCH   2   4
HETATM    4  N1  UNL     1      16.808  11.941  58.940  1.00  0.00    -0.060 N
ATOM      5  H13 UNL     1      16.917  12.729  59.577  1.00  0.00     0.275 HD
ATOM      6  H12 UNL     1      17.096  11.205  59.585  1.00  0.00     0.275 HD
ATOM      7  H11 UNL     1      17.411  12.007  58.120  1.00  0.00     0.275 HD
ENDBRANCH   2   4
BRANCH   2   8
HETATM    8  C6  UNL     1      15.310  11.064  57.221  1.00  0.00     0.257 C
HETATM    9  O1  UNL     1      16.302  11.100  56.416  1.00  0.00    -0.270 OA
HETATM   10  N8  UNL     1      14.136  10.354  56.857  1.00  0.00    -0.350 N
HETATM   11  C7  UNL     1      12.843  10.071  57.441  1.00  0.00     0.127 C
HETATM   12  C9  UNL     1      13.723   9.586  55.701  1.00  0.00     0.127 C
HETATM   13  C8  UNL     1      12.817   8.782  56.608  1.00  0.00     0.040 C
ENDBRANCH   2   8
ENDBRANCH   1   2
BRANCH   1  14
HETATM   14  N2  UNL     1      13.630  13.236  59.159  1.00  0.00    -0.222 N
HETATM   15  C4  UNL     1      13.586  14.262  60.143  1.00  0.00     0.686 C
HETATM   16  N3  UNL     1      14.680  14.650  60.710  1.00  0.00    -0.234 N
HETATM   17  N4  UNL     1      12.342  14.872  60.517  1.00  0.00    -0.131 N
ATOM     18  H32 UNL     1      15.564  14.216  60.444  1.00  0.00     0.174 HD
ATOM     19  H31 UNL     1      14.649  15.386  61.416  1.00  0.00     0.174 HD
ATOM     20  H4  UNL     1      11.582  14.924  59.838  1.00  0.00     0.205 HD
ATOM     21  H2  UNL     1      12.852  12.589  59.033  1.00  0.00     0.177 HD
BRANCH  17  22
HETATM   22  N5  UNL     1      12.157  15.397  61.798  1.00  0.00    -0.262 N
HETATM   23  C5  UNL     1      12.486  16.615  62.062  1.00  0.00     0.216 C
HETATM   24  N6  UNL     1      12.299  17.152  63.364  1.00  0.00    -0.065 NA
HETATM   25  N7  UNL     1      13.040  17.426  61.037  1.00  0.00    -0.065 NA
ATOM     26  H5  UNL     1      11.759  14.811  62.531  1.00  0.00     0.190 HD
ENDBRANCH  17  22
ENDBRANCH   1  14
TORSDOF 5
ENDMDL