MODEL 1
REMARK VINA RESULT: -7.513684578      0.000      0.000
REMARK  5 active torsions:
REMARK  status: ('A' for Active; 'I' for Inactive)
REMARK    1  A    between atoms: C4_5  and  C5_6
REMARK    2  A    between atoms: C5_6  and  N1_7
REMARK    3  A    between atoms: N1_7  and  N2_9
REMARK    4  A    between atoms: C6_14  and  C7_15
REMARK    5  A    between atoms: C7_15  and  N4_16
REMARK       I    between atoms: N4_16  and  C8_18
ROOT
HETATM    1  C1  UNL     1      17.124  11.726  59.916  1.00  0.00     0.078 C
HETATM    2  C2  UNL     1      16.040  12.612  60.525  1.00  0.00     0.158 C
HETATM    3  C3  UNL     1      16.552  13.094  61.844  1.00  0.00     0.078 C
HETATM    4  O1  UNL     1      14.887  11.851  60.610  1.00  0.00    -0.346 OA
HETATM    5  C4  UNL     1      14.028  12.287  59.618  1.00  0.00     0.175 C
HETATM    6  C6  UNL     1      14.404  13.771  59.545  1.00  0.00     0.173 C
HETATM    7  O2  UNL     1      15.763  13.713  59.725  1.00  0.00    -0.346 OA
ENDROOT
BRANCH   5   8
HETATM    8  C5  UNL     1      14.351  11.690  58.261  1.00  0.00     0.175 C
BRANCH   8   9
HETATM    9  N1  UNL     1      14.488  12.794  57.329  1.00  0.00    -0.320 N
ATOM     10  H1  UNL     1      13.800  13.545  57.286  1.00  0.00     0.181 HD
BRANCH   9  11
HETATM   11  N2  UNL     1      15.608  12.779  56.492  1.00  0.00    -0.254 N
HETATM   12  N3  UNL     1      16.055  11.644  56.150  1.00  0.00    -0.331 N
ATOM     13  H32 UNL     1      15.607  10.789  56.478  1.00  0.00     0.178 HD
ATOM     14  H31 UNL     1      16.872  11.632  55.539  1.00  0.00     0.178 HD
ATOM     15  H2  UNL     1      16.046  13.642  56.172  1.00  0.00     0.207 HD
ENDBRANCH   9  11
ENDBRANCH   8   9
ENDBRANCH   5   8
BRANCH   6  16
HETATM   16  C7  UNL     1      13.690  14.474  60.683  1.00  0.00     0.157 C
BRANCH  16  17
HETATM   17  N4  UNL     1      12.470  15.069  60.169  1.00  0.00    -0.362 N
HETATM   18  C8  UNL     1      11.238  14.367  60.248  1.00  0.00     0.181 C
HETATM   19  N5  UNL     1      10.378  14.540  59.323  1.00  0.00    -0.374 N
HETATM   20  N6  UNL     1      11.017  13.509  61.344  1.00  0.00    -0.064 NA
ATOM     21  H52 UNL     1      10.538  15.161  58.530  1.00  0.00     0.158 HD
ATOM     22  H51 UNL     1       9.492  14.035  59.380  1.00  0.00     0.158 HD
ATOM     23  H4  UNL     1      12.498  15.998  59.748  1.00  0.00     0.162 HD
ENDBRANCH  16  17
ENDBRANCH   6  16
TORSDOF 5
ENDMDL