MODEL 1
REMARK VINA RESULT: -7.094504302      0.000      0.000
REMARK  6 active torsions:
REMARK  status: ('A' for Active; 'I' for Inactive)
REMARK    1  A    between atoms: C2_2  and  N1_3
REMARK    2  A    between atoms: C2_2  and  C4_8
REMARK       I    between atoms: N1_3  and  C3_5
REMARK       I    between atoms: C4_8  and  N3_10
REMARK    3  A    between atoms: N3_10  and  C5_12
REMARK    4  A    between atoms: C5_12  and  C6_13
REMARK    5  A    between atoms: C6_13  and  N4_14
REMARK    6  A    between atoms: C6_13  and  C7_18
ROOT
HETATM    1  C5  UNL     1      15.262  12.176  59.789  1.00  0.00     0.069 A
HETATM    2  C8  UNL     1      16.678  12.222  60.306  1.00  0.00     0.036 A
HETATM    3  C9  UNL     1      15.681  11.359  60.940  1.00  0.00     0.036 A
ENDROOT
BRANCH   1   4
HETATM    4  N3  UNL     1      14.444  13.353  59.914  1.00  0.00    -0.348 N
HETATM    5  C4  UNL     1      13.085  13.393  60.285  1.00  0.00     0.240 C
HETATM    6  O2  UNL     1      12.493  12.322  60.535  1.00  0.00    -0.271 OA
ATOM      7  H3  UNL     1      14.893  14.246  59.715  1.00  0.00     0.163 HD
BRANCH   5   8
HETATM    8  C2  UNL     1      12.299  14.645  60.399  1.00  0.00     0.174 C
HETATM    9  C1  UNL     1      10.890  14.328  59.952  1.00  0.00     0.042 C
BRANCH   8  10
HETATM   10  N1  UNL     1      12.240  15.154  61.729  1.00  0.00    -0.333 N
HETATM   11  C3  UNL     1      12.581  16.487  62.022  1.00  0.00     0.329 C
HETATM   12  N2  UNL     1      12.516  16.982  63.366  1.00  0.00    -0.040 NA
HETATM   13  O1  UNL     1      12.945  17.245  61.096  1.00  0.00    -0.251 OA
ATOM     14  H1  UNL     1      11.944  14.538  62.487  1.00  0.00     0.164 HD
ENDBRANCH   8  10
ENDBRANCH   5   8
ENDBRANCH   1   4
BRANCH   1  15
HETATM   15  C6  UNL     1      15.039  11.401  58.483  1.00  0.00     0.299 C
BRANCH  15  16
HETATM   16  N4  UNL     1      14.078  10.359  58.751  1.00  0.00    -0.064 N
ATOM     17  H43 UNL     1      14.429   9.653  59.397  1.00  0.00     0.275 HD
ATOM     18  H42 UNL     1      13.293  10.680  59.316  1.00  0.00     0.275 HD
ATOM     19  H41 UNL     1      13.789   9.968  57.854  1.00  0.00     0.275 HD
ENDBRANCH  15  16
BRANCH  15  20
HETATM   20  C7  UNL     1      14.577  12.302  57.399  1.00  0.00     0.264 C
HETATM   21  N5  UNL     1      15.514  13.195  56.826  1.00  0.00    -0.060 NA
HETATM   22  O3  UNL     1      13.399  12.306  56.971  1.00  0.00    -0.274 OA
ENDBRANCH  15  20
ENDBRANCH   1  15
TORSDOF 6
ENDMDL