MODEL 3
REMARK VINA RESULT: -7.651557648      1.446      1.496
REMARK  5 active torsions:
REMARK  status: ('A' for Active; 'I' for Inactive)
REMARK       I    between atoms: C1_4  and  N3_6
REMARK    1  A    between atoms: N3_6  and  C2_8
REMARK    2  A    between atoms: C4_10  and  O1_11
REMARK    3  A    between atoms: O1_11  and  C5_12
REMARK    4  A    between atoms: C5_12  and  C6_13
REMARK    5  A    between atoms: C8_17  and  C9_18
ROOT
HETATM    1  C2  UNL     1      15.027  12.675  59.267  1.00  0.00     0.099 C
HETATM    2  C3  UNL     1      13.543  12.525  59.554  1.00  0.00     0.058 C
HETATM    3  C4  UNL     1      13.333  12.837  61.011  1.00  0.00     0.124 C
HETATM    4  C7  UNL     1      14.756  13.234  61.486  1.00  0.00     0.047 C
HETATM    5  C8  UNL     1      15.563  12.265  60.648  1.00  0.00     0.100 C
ENDROOT
BRANCH   1   6
HETATM    6  N3  UNL     1      15.469  11.778  58.247  1.00  0.00    -0.359 N
HETATM    7  C1  UNL     1      15.364  12.122  56.873  1.00  0.00     0.182 C
HETATM    8  N1  UNL     1      15.736  13.302  56.451  1.00  0.00    -0.374 N
HETATM    9  N2  UNL     1      14.857  11.211  55.913  1.00  0.00    -0.064 NA
ATOM     10  H12 UNL     1      15.660  13.549  55.464  1.00  0.00     0.158 HD
ATOM     11  H11 UNL     1      16.100  13.957  57.143  1.00  0.00     0.158 HD
ATOM     12  H3  UNL     1      15.867  10.876  58.509  1.00  0.00     0.162 HD
ENDBRANCH   1   6
BRANCH   5  13
HETATM   13  C9  UNL     1      17.008  12.470  60.756  1.00  0.00     0.237 C
HETATM   14  N5  UNL     1      17.902  11.440  60.435  1.00  0.00    -0.062 NA
HETATM   15  O3  UNL     1      17.422  13.592  61.142  1.00  0.00    -0.276 OA
ENDBRANCH   5  13
BRANCH   3  16
HETATM   16  O1  UNL     1      12.450  13.848  61.273  1.00  0.00    -0.377 OA
BRANCH  16  17
HETATM   17  C5  UNL     1      12.813  14.995  60.602  1.00  0.00     0.267 C
BRANCH  17  18
HETATM   18  C6  UNL     1      12.430  16.214  61.326  1.00  0.00     0.254 C
HETATM   19  N4  UNL     1      11.389  16.119  62.310  1.00  0.00    -0.060 NA
HETATM   20  O2  UNL     1      12.976  17.304  61.110  1.00  0.00    -0.275 OA
ENDBRANCH  17  18
ENDBRANCH  16  17
ENDBRANCH   3  16
TORSDOF 5
ENDMDL