MODEL 3
REMARK VINA RESULT: -7.193656114      1.439      1.567
REMARK  6 active torsions:
REMARK  status: ('A' for Active; 'I' for Inactive)
REMARK    1  A    between atoms: C2_2  and  N1_3
REMARK    2  A    between atoms: C2_2  and  C7_14
REMARK       I    between atoms: N1_3  and  C3_5
REMARK    3  A    between atoms: C3_5  and  C4_7
REMARK    4  A    between atoms: C4_7  and  N2_10
REMARK    5  A    between atoms: C7_14  and  N3_15
REMARK    6  A    between atoms: C7_14  and  C8_19
REMARK       I    between atoms: C8_19  and  N4_21
REMARK       I    between atoms: N4_21  and  C9_23
ROOT
HETATM    1  C1  UNL     1      16.972  11.938  60.912  1.00  0.00     0.035 C
HETATM    2  C2  UNL     1      15.604  12.505  60.703  1.00  0.00     0.120 C
ENDROOT
BRANCH   2   3
HETATM    3  N1  UNL     1      15.303  12.396  59.288  1.00  0.00    -0.352 N
HETATM    4  C3  UNL     1      14.436  11.403  58.808  1.00  0.00     0.253 C
HETATM    5  O1  UNL     1      13.913  10.601  59.599  1.00  0.00    -0.271 OA
ATOM      6  H1  UNL     1      15.729  13.051  58.632  1.00  0.00     0.163 HD
BRANCH   4   7
HETATM    7  C4  UNL     1      14.147  11.319  57.343  1.00  0.00     0.196 C
HETATM    8  C5  UNL     1      15.413  11.579  56.597  1.00  0.00     0.056 C
HETATM    9  C6  UNL     1      13.584   9.939  57.013  1.00  0.00     0.056 C
BRANCH   7  10
HETATM   10  N2  UNL     1      13.138  12.281  56.995  1.00  0.00    -0.062 N
ATOM     11  H23 UNL     1      12.363  12.282  57.659  1.00  0.00     0.275 HD
ATOM     12  H22 UNL     1      13.455  13.240  57.139  1.00  0.00     0.275 HD
ATOM     13  H21 UNL     1      12.826  12.118  56.038  1.00  0.00     0.275 HD
ENDBRANCH   7  10
ENDBRANCH   4   7
ENDBRANCH   2   3
BRANCH   2  14
HETATM   14  C7  UNL     1      15.452  13.933  61.099  1.00  0.00     0.297 C
BRANCH  14  15
HETATM   15  N3  UNL     1      16.255  14.303  62.241  1.00  0.00    -0.064 N
ATOM     16  H33 UNL     1      15.831  15.084  62.742  1.00  0.00     0.275 HD
ATOM     17  H32 UNL     1      16.203  13.588  62.966  1.00  0.00     0.275 HD
ATOM     18  H31 UNL     1      17.226  14.509  62.006  1.00  0.00     0.275 HD
ENDBRANCH  14  15
BRANCH  14  19
HETATM   19  C8  UNL     1      14.078  14.373  61.336  1.00  0.00     0.258 C
HETATM   20  O2  UNL     1      13.064  13.855  60.819  1.00  0.00    -0.271 OA
HETATM   21  N4  UNL     1      13.883  15.475  62.225  1.00  0.00    -0.280 N
HETATM   22  C9  UNL     1      12.604  15.987  62.530  1.00  0.00     0.335 C
ATOM     23  H4  UNL     1      14.700  15.909  62.656  1.00  0.00     0.173 HD
HETATM   24  N5  UNL     1      11.444  15.380  61.928  1.00  0.00    -0.040 NA
HETATM   25  O3  UNL     1      12.483  16.954  63.315  1.00  0.00    -0.251 OA
ENDBRANCH  14  19
ENDBRANCH   2  14
TORSDOF 6
ENDMDL