MODEL 1
REMARK VINA RESULT: -7.778688908      0.000      0.000
REMARK  4 active torsions:
REMARK  status: ('A' for Active; 'I' for Inactive)
REMARK       I    between atoms: C1_2  and  N2_4
REMARK       I    between atoms: N2_4  and  C2_6
REMARK    1  A    between atoms: C2_6  and  C3_8
REMARK    2  A    between atoms: C6_11  and  N3_12
REMARK       I    between atoms: N3_12  and  C7_14
REMARK       I    between atoms: C7_14  and  N4_16
REMARK    3  A    between atoms: N4_16  and  N5_18
REMARK    4  A    between atoms: N5_18  and  C8_19
ROOT
HETATM    1  C3  UNL     1      14.437  13.613  61.955  1.00  0.00     0.080 C
HETATM    2  C4  UNL     1      15.952  13.612  62.024  1.00  0.00     0.016 C
HETATM    3  C5  UNL     1      16.377  12.662  60.987  1.00  0.00     0.026 C
HETATM    4  C6  UNL     1      15.214  12.412  60.061  1.00  0.00     0.087 C
HETATM    5  C9  UNL     1      14.196  13.433  60.445  1.00  0.00     0.039 C
ENDROOT
BRANCH   4   6
HETATM    6  N3  UNL     1      15.615  12.491  58.688  1.00  0.00    -0.336 N
HETATM    7  C7  UNL     1      15.118  11.431  57.842  1.00  0.00     0.345 C
HETATM    8  O3  UNL     1      14.417  10.515  58.279  1.00  0.00    -0.245 OA
HETATM    9  N4  UNL     1      15.441  11.423  56.431  1.00  0.00    -0.182 N
ATOM     10  H4  UNL     1      15.993  12.207  56.083  1.00  0.00     0.207 HD
ATOM     11  H3  UNL     1      16.208  13.241  58.333  1.00  0.00     0.164 HD
BRANCH   9  12
HETATM   12  N5  UNL     1      15.092  10.497  55.542  1.00  0.00    -0.293 NA
BRANCH  12  13
HETATM   13  C8  UNL     1      14.745   9.537  54.650  1.00  0.00     0.466 C
HETATM   14  O4  UNL     1      15.366   8.543  54.186  1.00  0.00    -0.266 OA
ENDBRANCH  12  13
ENDBRANCH   9  12
ENDBRANCH   4   6
BRANCH   1  15
HETATM   15  C2  UNL     1      13.831  14.809  62.524  1.00  0.00     0.229 C
HETATM   16  N2  UNL     1      12.723  15.428  61.898  1.00  0.00    -0.281 N
HETATM   17  C1  UNL     1      12.100  16.562  62.447  1.00  0.00     0.335 C
ATOM     18  H2  UNL     1      12.368  15.041  61.023  1.00  0.00     0.173 HD
HETATM   19  N1  UNL     1      12.559  17.164  63.615  1.00  0.00    -0.040 NA
HETATM   20  O1  UNL     1      11.087  17.048  61.863  1.00  0.00    -0.251 OA
HETATM   21  O2  UNL     1      14.325  15.263  63.606  1.00  0.00    -0.273 OA
ENDBRANCH   1  15
TORSDOF 4
ENDMDL