MODEL 4
REMARK VINA RESULT: -6.925403235      2.820      3.468
REMARK  6 active torsions:
REMARK  status: ('A' for Active; 'I' for Inactive)
REMARK    1  A    between atoms: C2_2  and  N1_4
REMARK    2  A    between atoms: C2_2  and  C4_8
REMARK       I    between atoms: C4_8  and  N2_10
REMARK    3  A    between atoms: N2_10  and  C5_12
REMARK    4  A    between atoms: C5_12  and  C6_13
REMARK       I    between atoms: C6_13  and  N3_15
REMARK    5  A    between atoms: N3_15  and  C7_17
REMARK    6  A    between atoms: C7_17  and  C8_18
ROOT
HETATM    1  C4  UNL     1      14.818  11.171  58.237  1.00  0.00     0.253 C
HETATM    2  O1  UNL     1      15.728  12.068  58.381  1.00  0.00    -0.271 OA
HETATM    3  N2  UNL     1      14.376  10.545  59.397  1.00  0.00    -0.350 N
ATOM      4  H2  UNL     1      13.673   9.811  59.314  1.00  0.00     0.163 HD
ENDROOT
BRANCH   3   5
HETATM    5  C5  UNL     1      14.870  10.888  60.727  1.00  0.00     0.225 C
BRANCH   5   6
HETATM    6  C6  UNL     1      14.106  11.964  61.365  1.00  0.00     0.236 C
HETATM    7  O2  UNL     1      13.885  11.871  62.630  1.00  0.00    -0.272 OA
HETATM    8  N3  UNL     1      13.597  13.079  60.592  1.00  0.00    -0.342 N
ATOM      9  H3  UNL     1      13.824  13.106  59.598  1.00  0.00     0.163 HD
BRANCH   8  10
HETATM   10  C7  UNL     1      12.805  14.138  61.111  1.00  0.00     0.111 A
HETATM   11  C9  UNL     1      13.241  15.143  62.091  1.00  0.00     0.043 A
HETATM   12  C10 UNL     1      13.126  15.552  60.659  1.00  0.00     0.043 A
BRANCH  10  13
HETATM   13  C8  UNL     1      11.347  13.867  61.101  1.00  0.00     0.259 C
HETATM   14  N4  UNL     1      10.519  14.049  59.980  1.00  0.00    -0.060 NA
HETATM   15  O3  UNL     1      10.823  13.460  62.207  1.00  0.00    -0.274 OA
ENDBRANCH  10  13
ENDBRANCH   8  10
ENDBRANCH   5   6
ENDBRANCH   3   5
BRANCH   1  16
HETATM   16  C2  UNL     1      14.282  10.846  56.917  1.00  0.00     0.196 C
HETATM   17  C1  UNL     1      15.339  10.682  55.874  1.00  0.00     0.056 C
HETATM   18  C3  UNL     1      13.538   9.487  57.121  1.00  0.00     0.056 C
BRANCH  16  19
HETATM   19  N1  UNL     1      13.230  11.779  56.545  1.00  0.00    -0.062 N
ATOM     20  H13 UNL     1      13.539  12.742  56.678  1.00  0.00     0.275 HD
ATOM     21  H12 UNL     1      13.093  11.781  55.534  1.00  0.00     0.275 HD
ATOM     22  H11 UNL     1      12.346  11.616  57.027  1.00  0.00     0.275 HD
ENDBRANCH  16  19
ENDBRANCH   1  16
TORSDOF 6
ENDMDL