MODEL 5
REMARK VINA RESULT: -6.377925075      1.538      1.987
REMARK  7 active torsions:
REMARK  status: ('A' for Active; 'I' for Inactive)
REMARK    1  A    between atoms: C2_2  and  N1_3
REMARK    2  A    between atoms: C2_2  and  C6_19
REMARK       I    between atoms: N1_3  and  C3_5
REMARK    3  A    between atoms: C3_5  and  C4_7
REMARK    4  A    between atoms: C4_7  and  N2_8
REMARK    5  A    between atoms: C4_7  and  C5_12
REMARK    6  A    between atoms: N4_14  and  N5_16
REMARK       I    between atoms: C6_19  and  N6_21
REMARK    7  A    between atoms: N6_21  and  C7_23
ROOT
HETATM    1  N1  UNL     1      14.317  12.629  60.937  1.00  0.00    -0.346 N
ATOM      2  H1  UNL     1      14.994  13.295  60.565  1.00  0.00     0.163 HD
HETATM    3  C3  UNL     1      13.342  13.093  61.850  1.00  0.00     0.256 C
HETATM    4  O1  UNL     1      12.506  12.260  62.307  1.00  0.00    -0.271 OA
ENDROOT
BRANCH   3   5
HETATM    5  C4  UNL     1      13.259  14.504  62.294  1.00  0.00     0.339 C
BRANCH   5   6
HETATM    6  N2  UNL     1      14.452  14.818  63.085  1.00  0.00    -0.060 N
ATOM      7  H23 UNL     1      15.304  14.436  62.675  1.00  0.00     0.275 HD
ATOM      8  H22 UNL     1      14.702  15.805  63.037  1.00  0.00     0.275 HD
ATOM      9  H21 UNL     1      14.302  14.498  64.042  1.00  0.00     0.275 HD
ENDBRANCH   5   6
BRANCH   5  10
HETATM   10  C5  UNL     1      13.179  15.451  61.176  1.00  0.00     0.147 C
HETATM   11  N3  UNL     1      14.137  15.494  60.142  1.00  0.00    -0.083 NA
HETATM   12  N4  UNL     1      12.201  16.281  61.123  1.00  0.00    -0.296 N
ATOM     13  H4  UNL     1      12.142  16.940  60.346  1.00  0.00     0.187 HD
BRANCH  12  14
HETATM   14  N5  UNL     1      11.221  16.294  62.107  1.00  0.00    -0.344 N
ATOM     15  H52 UNL     1      11.412  16.790  62.978  1.00  0.00     0.176 HD
ATOM     16  H51 UNL     1      10.330  15.818  61.967  1.00  0.00     0.176 HD
ENDBRANCH  12  14
ENDBRANCH   5  10
ENDBRANCH   3   5
BRANCH   1  17
HETATM   17  C2  UNL     1      14.394  11.256  60.508  1.00  0.00     0.172 C
HETATM   18  C1  UNL     1      15.839  10.769  60.487  1.00  0.00     0.042 C
BRANCH  17  19
HETATM   19  C6  UNL     1      13.795  11.126  59.164  1.00  0.00     0.240 C
HETATM   20  O2  UNL     1      12.546  11.094  59.073  1.00  0.00    -0.271 OA
HETATM   21  N6  UNL     1      14.562  11.036  57.997  1.00  0.00    -0.355 N
ATOM     22  H6  UNL     1      15.576  11.064  58.105  1.00  0.00     0.162 HD
BRANCH  21  23
HETATM   23  C7  UNL     1      14.052  10.909  56.668  1.00  0.00     0.084 A
HETATM   24  C8  UNL     1      13.906   9.636  55.970  1.00  0.00     0.027 A
HETATM   25  C9  UNL     1      15.113  10.473  55.652  1.00  0.00     0.027 A
ENDBRANCH  21  23
ENDBRANCH  17  19
ENDBRANCH   1  17
TORSDOF 7
ENDMDL