MODEL 1
REMARK VINA RESULT: -6.154992462      0.000      0.000
REMARK  7 active torsions:
REMARK  status: ('A' for Active; 'I' for Inactive)
REMARK    1  A    between atoms: C2_4  and  N2_5
REMARK    2  A    between atoms: C2_4  and  O1_11
REMARK    3  A    between atoms: N2_5  and  C3_7
REMARK    4  A    between atoms: O1_11  and  N3_12
REMARK    5  A    between atoms: N3_12  and  C7_13
REMARK    6  A    between atoms: C7_13  and  C14_23
REMARK    7  A    between atoms: N4_14  and  C8_16
ROOT
HETATM    1  C7  UNL     1      68.136  78.681  23.342  1.00  0.00     0.193 C
HETATM    2  N4  UNL     1      67.655  77.454  23.349  1.00  0.00    -0.332 N
ATOM      3  H4  UNL     1      67.536  76.977  22.456  1.00  0.00     0.168 HD
ENDROOT
BRANCH   1   4
HETATM    4  N3  UNL     1      68.488  79.365  22.207  1.00  0.00    -0.258 NA
BRANCH   4   5
HETATM    5  O1  UNL     1      68.814  79.996  21.159  1.00  0.00    -0.127 OA
BRANCH   5   6
HETATM    6  C2  UNL     1      69.795  80.717  20.579  1.00  0.00     0.254 C
HETATM    7  N1  UNL     1      69.613  81.324  19.500  1.00  0.00    -0.358 N
HETATM    8  C1  UNL     1      68.543  81.485  18.618  1.00  0.00     0.150 C
ATOM      9  H1  UNL     1      70.448  81.822  19.191  1.00  0.00     0.162 HD
BRANCH   6  10
HETATM   10  N2  UNL     1      71.112  80.791  21.229  1.00  0.00    -0.346 N
ATOM     11  H2  UNL     1      71.800  80.068  21.018  1.00  0.00     0.164 HD
BRANCH  10  12
HETATM   12  C3  UNL     1      71.472  81.824  22.138  1.00  0.00     0.022 C
HETATM   13  C4  UNL     1      70.296  82.626  22.651  1.00  0.00     0.037 C
HETATM   14  C5  UNL     1      72.241  81.198  23.294  1.00  0.00     0.037 C
HETATM   15  C6  UNL     1      72.443  82.760  21.451  1.00  0.00     0.037 C
ENDBRANCH  10  12
ENDBRANCH   6  10
ENDBRANCH   5   6
ENDBRANCH   4   5
ENDBRANCH   1   4
BRANCH   1  16
HETATM   16  C14 UNL     1      68.230  79.288  24.717  1.00  0.00     0.063 C
HETATM   17  C15 UNL     1      69.627  79.456  25.210  1.00  0.00     0.018 C
HETATM   18  C16 UNL     1      67.580  80.684  24.685  1.00  0.00     0.018 C
ENDBRANCH   1  16
BRANCH   2  19
HETATM   19  C8  UNL     1      67.298  76.771  24.520  1.00  0.00     0.034 A
HETATM   20  C9  UNL     1      66.036  76.870  25.089  1.00  0.00     0.031 A
HETATM   21  C10 UNL     1      65.666  76.208  26.240  1.00  0.00     0.026 A
HETATM   22  C11 UNL     1      66.572  75.401  26.876  1.00  0.00     0.034 A
HETATM   23 CL1  UNL     1      66.090  74.563  28.337  1.00  0.00    -0.084 Cl
HETATM   24  C12 UNL     1      67.841  75.269  26.350  1.00  0.00     0.026 A
HETATM   25  C13 UNL     1      68.189  75.938  25.202  1.00  0.00     0.031 A
ENDBRANCH   2  19
TORSDOF 7
ENDMDL