MODEL 4
REMARK VINA RESULT: -5.939445833      1.940      2.100
REMARK  2 active torsions:
REMARK  status: ('A' for Active; 'I' for Inactive)
REMARK    1  A    between atoms: N2_8  and  C4_9
REMARK    2  A    between atoms: C4_9  and  C5_10
ROOT
HETATM    1  C5  UNL     1      69.923  77.530  25.758  1.00  0.00     0.008 C
HETATM    2  C6  UNL     1      71.315  77.101  26.034  1.00  0.00     0.039 C
HETATM    3  C7  UNL     1      72.085  78.080  26.886  1.00  0.00     0.186 C
HETATM    4  C8  UNL     1      73.462  78.315  26.306  1.00  0.00     0.033 C
HETATM    5  C9  UNL     1      73.467  79.260  25.147  1.00  0.00     0.004 C
HETATM    6  C10 UNL     1      72.126  79.627  24.612  1.00  0.00     0.033 C
HETATM    7  C11 UNL     1      71.048  79.766  25.644  1.00  0.00     0.186 C
HETATM    8  C12 UNL     1      69.811  78.955  25.275  1.00  0.00     0.039 C
HETATM    9  N3  UNL     1      71.432  79.370  26.964  1.00  0.00    -0.067 N
ATOM     10  H31 UNL     1      72.006  80.072  27.432  1.00  0.00     0.278 HD
ATOM     11  H32 UNL     1      70.648  79.373  27.617  1.00  0.00     0.278 HD
ENDROOT
BRANCH   1  12
HETATM   12  C4  UNL     1      69.171  76.638  24.818  1.00  0.00     0.137 C
BRANCH  12  13
HETATM   13  N2  UNL     1      67.768  76.531  25.061  1.00  0.00    -0.316 N
HETATM   14  C1  UNL     1      67.049  75.922  26.015  1.00  0.00     0.178 A
HETATM   15  S1  UNL     1      67.658  75.045  27.237  1.00  0.00    -0.040 SA
HETATM   16  N1  UNL     1      65.720  76.122  25.822  1.00  0.00    -0.340 N
HETATM   17  C2  UNL     1      65.572  76.873  24.723  1.00  0.00     0.128 A
ATOM     18  H1  UNL     1      64.967  75.765  26.410  1.00  0.00     0.167 HD
HETATM   19  C3  UNL     1      66.845  77.121  24.260  1.00  0.00     0.099 A
HETATM   20 BR1  UNL     1      67.193  78.158  22.702  1.00  0.00    -0.029 Br
ENDBRANCH  12  13
ENDBRANCH   1  12
TORSDOF 2
ENDMDL