MODEL 3
REMARK VINA RESULT: -7.053818985      4.081      4.473
REMARK  4 active torsions:
REMARK  status: ('A' for Active; 'I' for Inactive)
REMARK    1  A    between atoms: C2_2  and  O1_4
REMARK    2  A    between atoms: O1_4  and  C4_5
REMARK    3  A    between atoms: C8_11  and  N2_12
REMARK    4  A    between atoms: C10_16  and  C11_17
ROOT
HETATM    1  C4  UNL     1      68.490  83.780  24.986  1.00  0.00     0.110 A
HETATM    2  C5  UNL     1      67.970  82.643  24.345  1.00  0.00     0.070 A
HETATM    3  C6  UNL     1      68.236  81.364  24.731  1.00  0.00     0.045 A
HETATM    4  N1  UNL     1      67.738  80.278  24.110  1.00  0.00    -0.352 N
ATOM      5  H1  UNL     1      67.124  80.402  23.305  1.00  0.00     0.166 HD
HETATM    6  C7  UNL     1      68.032  79.036  24.526  1.00  0.00     0.086 A
HETATM    7  C8  UNL     1      67.503  77.937  23.864  1.00  0.00     0.057 A
HETATM    8  C9  UNL     1      67.832  76.686  24.324  1.00  0.00     0.057 A
HETATM    9  C10 UNL     1      68.652  76.465  25.399  1.00  0.00     0.019 A
HETATM   10  N3  UNL     1      69.151  77.556  26.021  1.00  0.00    -0.357 N
ATOM     11  H3  UNL     1      69.766  77.428  26.824  1.00  0.00     0.166 HD
HETATM   12  C15 UNL     1      68.862  78.803  25.614  1.00  0.00     0.062 A
HETATM   13  C16 UNL     1      69.362  79.925  26.236  1.00  0.00     0.045 A
HETATM   14  C17 UNL     1      69.073  81.204  25.825  1.00  0.00    -0.004 A
HETATM   15  C18 UNL     1      69.593  82.296  26.469  1.00  0.00     0.059 A
HETATM   16  C19 UNL     1      69.307  83.602  26.058  1.00  0.00     0.150 A
HETATM   17  F1  UNL     1      69.868  84.644  26.757  1.00  0.00    -0.203 F
ENDROOT
BRANCH   1  18
HETATM   18  O1  UNL     1      68.142  84.976  24.497  1.00  0.00    -0.344 OA
BRANCH  18  19
HETATM   19  C2  UNL     1      68.062  86.260  24.907  1.00  0.00     0.121 C
HETATM   20  C1  UNL     1      68.462  87.179  23.743  1.00  0.00     0.040 C
HETATM   21  C3  UNL     1      66.637  86.661  25.317  1.00  0.00     0.040 C
ENDBRANCH  18  19
ENDBRANCH   1  18
BRANCH   7  22
HETATM   22  N2  UNL     1      66.731  78.091  22.852  1.00  0.00    -0.397 N
ATOM     23  H22 UNL     1      67.089  78.018  21.899  1.00  0.00     0.156 HD
ATOM     24  H21 UNL     1      65.739  78.290  22.977  1.00  0.00     0.156 HD
ENDBRANCH   7  22
BRANCH   9  25
HETATM   25  C11 UNL     1      69.045  75.165  25.946  1.00  0.00    -0.009 C
HETATM   26  C12 UNL     1      68.910  73.999  25.053  1.00  0.00     0.021 C
HETATM   27  C13 UNL     1      70.480  75.276  26.484  1.00  0.00     0.021 C
HETATM   28  C14 UNL     1      68.169  74.926  27.175  1.00  0.00     0.021 C
ENDBRANCH   9  25
TORSDOF 4
ENDMDL