MODEL 3
REMARK VINA RESULT: -7.266893531      2.649      4.163
REMARK  4 active torsions:
REMARK  status: ('A' for Active; 'I' for Inactive)
REMARK    1  A    between atoms: C2_2  and  C4_4
REMARK    2  A    between atoms: C6_6  and  N1_7
REMARK    3  A    between atoms: N1_7  and  C7_9
REMARK    4  A    between atoms: C16_19  and  O1_20
ROOT
HETATM    1  C7  UNL     1      70.861  79.515  24.290  1.00  0.00     0.096 C
HETATM    2  C8  UNL     1      72.229  79.989  24.626  1.00  0.00     0.005 C
HETATM    3  C9  UNL     1      72.306  80.055  26.161  1.00  0.00     0.012 C
HETATM    4  C10 UNL     1      72.635  81.308  24.112  1.00  0.00     0.007 C
HETATM    5  C11 UNL     1      72.159  81.681  22.754  1.00  0.00     0.009 C
HETATM    6  C12 UNL     1      71.316  80.568  22.188  1.00  0.00     0.035 C
HETATM    7  C13 UNL     1      70.867  80.787  20.790  1.00  0.00     0.106 C
HETATM    8  C14 UNL     1      71.782  81.763  20.078  1.00  0.00     0.052 C
HETATM    9  F1  UNL     1      70.948  79.597  20.066  1.00  0.00    -0.243 F
HETATM   10  C15 UNL     1      69.440  81.256  20.654  1.00  0.00     0.075 C
HETATM   11  C16 UNL     1      68.478  80.462  21.468  1.00  0.00     0.122 C
HETATM   12  C17 UNL     1      69.139  79.529  22.457  1.00  0.00     0.043 C
HETATM   13  C18 UNL     1      70.209  80.316  23.167  1.00  0.00    -0.014 C
HETATM   14  C19 UNL     1      69.601  81.520  23.771  1.00  0.00     0.018 C
ENDROOT
BRANCH   1  15
HETATM   15  N1  UNL     1      69.981  79.374  25.420  1.00  0.00    -0.363 N
ATOM     16  H1  UNL     1      69.996  80.096  26.140  1.00  0.00     0.162 HD
BRANCH  15  17
HETATM   17  C6  UNL     1      69.166  78.371  25.570  1.00  0.00     0.168 A
HETATM   18  C5  UNL     1      69.521  77.065  25.834  1.00  0.00     0.085 A
HETATM   19  C4  UNL     1      68.355  76.295  25.923  1.00  0.00     0.040 A
HETATM   20  N2  UNL     1      67.367  77.190  25.704  1.00  0.00    -0.263 N
HETATM   21  O2  UNL     1      67.861  78.373  25.505  1.00  0.00    -0.220 OA
ATOM     22  H2  UNL     1      66.372  76.967  25.697  1.00  0.00     0.194 HD
BRANCH  19  23
HETATM   23  C2  UNL     1      68.268  74.855  26.192  1.00  0.00     0.029 C
HETATM   24  C1  UNL     1      69.384  74.073  25.526  1.00  0.00     0.016 C
HETATM   25  C3  UNL     1      68.298  74.527  27.660  1.00  0.00     0.016 C
ENDBRANCH  19  23
ENDBRANCH  15  17
ENDBRANCH   1  15
BRANCH  11  26
HETATM   26  O1  UNL     1      67.541  79.764  20.672  1.00  0.00    -0.395 OA
ATOM     27  H1  UNL     1      67.671  78.823  20.699  1.00  0.00     0.210 HD
ENDBRANCH  11  26
TORSDOF 4
ENDMDL