MODEL 1
REMARK VINA RESULT: -7.067421729      0.000      0.000
REMARK  4 active torsions:
REMARK  status: ('A' for Active; 'I' for Inactive)
REMARK    1  A    between atoms: C5_5  and  O1_6
REMARK    2  A    between atoms: O1_6  and  C6_7
REMARK    3  A    between atoms: C6_7  and  N1_9
REMARK    4  A    between atoms: N1_9  and  C7_11
ROOT
HETATM    1  C1  UNL     1      69.399  81.678  22.802  1.00  0.00     0.037 C
HETATM    2  C2  UNL     1      68.978  81.870  24.266  1.00  0.00     0.021 C
HETATM    3  C3  UNL     1      68.552  83.327  24.382  1.00  0.00     0.037 C
HETATM    4  C4  UNL     1      67.776  81.016  24.481  1.00  0.00     0.064 C
HETATM    5  C5  UNL     1      68.222  79.597  24.681  1.00  0.00     0.154 C
HETATM    6  C13 UNL     1      69.103  79.479  25.889  1.00  0.00     0.139 C
HETATM    7 CL1  UNL     1      70.223  78.118  25.603  1.00  0.00    -0.120 Cl
HETATM    8  C14 UNL     1      69.868  80.723  26.198  1.00  0.00     0.038 C
HETATM    9  C15 UNL     1      69.280  81.483  27.382  1.00  0.00     0.039 C
HETATM   10  C16 UNL     1      71.258  80.276  26.682  1.00  0.00     0.039 C
HETATM   11  N2  UNL     1      70.097  81.564  25.069  1.00  0.00    -0.404 N
ATOM     12  H2  UNL     1      71.025  81.927  24.852  1.00  0.00     0.154 HD
ENDROOT
BRANCH   5  13
HETATM   13  O1  UNL     1      67.183  78.673  24.760  1.00  0.00    -0.320 OA
BRANCH  13  14
HETATM   14  C6  UNL     1      67.043  77.595  23.886  1.00  0.00     0.210 C
HETATM   15  S1  UNL     1      66.606  77.791  22.334  1.00  0.00    -0.033 SA
BRANCH  14  16
HETATM   16  N1  UNL     1      67.304  76.294  24.418  1.00  0.00    -0.357 N
ATOM     17  H1  UNL     1      67.481  75.504  23.797  1.00  0.00     0.162 HD
BRANCH  16  18
HETATM   18  C7  UNL     1      67.314  76.119  25.851  1.00  0.00     0.084 C
HETATM   19  C8  UNL     1      65.880  76.069  26.334  1.00  0.00     0.025 C
HETATM   20  C9  UNL     1      65.665  74.857  27.228  1.00  0.00     0.002 C
HETATM   21  C10 UNL     1      66.741  74.896  28.304  1.00  0.00     0.000 C
HETATM   22  C11 UNL     1      68.083  74.700  27.682  1.00  0.00     0.002 C
HETATM   23  C12 UNL     1      68.041  74.834  26.175  1.00  0.00     0.025 C
ENDBRANCH  16  18
ENDBRANCH  14  16
ENDBRANCH  13  14
ENDBRANCH   5  13
TORSDOF 4
ENDMDL