MODEL 5
REMARK VINA RESULT: -5.698791649      1.492      1.884
REMARK  2 active torsions:
REMARK  status: ('A' for Active; 'I' for Inactive)
REMARK    1  A    between atoms: C2_2  and  C3_4
REMARK    2  A    between atoms: C3_4  and  C6_7
ROOT
HETATM    1  C6  UNL     1      68.349  78.762  23.636  1.00  0.00     0.012 A
HETATM    2  C7  UNL     1      67.994  79.065  22.341  1.00  0.00     0.097 A
HETATM    3  C8  UNL     1      68.673  79.971  21.411  1.00  0.00     0.107 C
HETATM    4  N1  UNL     1      69.186  80.682  20.669  1.00  0.00    -0.191 NA
HETATM    5  S1  UNL     1      66.571  78.162  22.098  1.00  0.00    -0.058 SA
HETATM    6  C9  UNL     1      66.452  77.425  23.625  1.00  0.00     0.105 A
HETATM    7  N2  UNL     1      65.714  76.579  24.383  1.00  0.00    -0.325 N
ATOM      8  H2  UNL     1      64.862  76.095  24.102  1.00  0.00     0.169 HD
HETATM    9  C10 UNL     1      66.324  76.502  25.573  1.00  0.00     0.177 A
HETATM   10  S2  UNL     1      65.849  75.605  26.881  1.00  0.00    -0.040 SA
HETATM   11  N3  UNL     1      67.413  77.291  25.530  1.00  0.00    -0.330 N
ATOM     12  H3  UNL     1      68.063  77.418  26.306  1.00  0.00     0.168 HD
HETATM   13  C11 UNL     1      67.536  77.902  24.305  1.00  0.00     0.078 A
ENDROOT
BRANCH   1  14
HETATM   14  C3  UNL     1      69.622  79.390  24.195  1.00  0.00     0.017 C
HETATM   15  C4  UNL     1      69.835  78.800  25.597  1.00  0.00     0.026 C
HETATM   16  C5  UNL     1      70.846  79.065  23.409  1.00  0.00     0.026 C
BRANCH  14  17
HETATM   17  C2  UNL     1      69.512  80.869  24.277  1.00  0.00    -0.008 C
HETATM   18  C1  UNL     1      70.578  81.609  24.071  1.00  0.00     0.028 C
HETATM   19 BR1  UNL     1      67.866  81.702  24.720  1.00  0.00    -0.055 Br
ENDBRANCH  14  17
ENDBRANCH   1  14
TORSDOF 2
ENDMDL