MODEL 1
REMARK VINA RESULT: -6.912456825      0.000      0.000
REMARK  7 active torsions:
REMARK  status: ('A' for Active; 'I' for Inactive)
REMARK    1  A    between atoms: C2_2  and  C5_5
REMARK    2  A    between atoms: C6_6  and  C7_7
REMARK    3  A    between atoms: C7_7  and  N1_10
REMARK    4  A    between atoms: N1_10  and  C10_12
REMARK    5  A    between atoms: C10_12  and  N2_14
REMARK    6  A    between atoms: N2_14  and  C11_16
REMARK    7  A    between atoms: C14_19  and  N3_20
ROOT
HETATM    1  C10 UNL     1      66.980  76.796  25.524  1.00  0.00     0.173 C
HETATM    2  S1  UNL     1      65.504  76.200  25.870  1.00  0.00    -0.041 SA
ENDROOT
BRANCH   1   3
HETATM    3  N1  UNL     1      67.924  75.814  25.071  1.00  0.00    -0.348 N
ATOM      4  H1  UNL     1      67.843  75.474  24.113  1.00  0.00     0.163 HD
BRANCH   3   5
HETATM    5  C7  UNL     1      68.975  75.283  25.891  1.00  0.00     0.088 C
HETATM    6  C8  UNL     1      68.466  74.893  27.268  1.00  0.00     0.053 C
HETATM    7  C9  UNL     1      69.550  73.998  25.276  1.00  0.00     0.053 C
BRANCH   5   8
HETATM    8  C6  UNL     1      70.036  76.288  25.985  1.00  0.00    -0.075 C
HETATM    9  C5  UNL     1      70.903  77.133  26.052  1.00  0.00    -0.095 C
BRANCH   9  10
HETATM   10  C2  UNL     1      71.940  78.171  26.149  1.00  0.00     0.013 C
HETATM   11  C1  UNL     1      71.218  79.451  26.502  1.00  0.00     0.028 C
HETATM   12  C3  UNL     1      72.982  77.807  27.206  1.00  0.00     0.028 C
HETATM   13  C4  UNL     1      72.708  78.309  24.846  1.00  0.00     0.028 C
ENDBRANCH   9  10
ENDBRANCH   5   8
ENDBRANCH   3   5
ENDBRANCH   1   3
BRANCH   1  14
HETATM   14  N2  UNL     1      67.381  78.128  25.606  1.00  0.00    -0.333 N
ATOM     15  H2  UNL     1      67.356  78.529  26.544  1.00  0.00     0.168 HD
BRANCH  14  16
HETATM   16  C11 UNL     1      67.818  79.007  24.591  1.00  0.00     0.034 A
HETATM   17  C12 UNL     1      67.691  80.388  24.803  1.00  0.00     0.032 A
HETATM   18  C13 UNL     1      68.079  81.289  23.844  1.00  0.00     0.038 A
HETATM   19  C14 UNL     1      68.608  80.904  22.632  1.00  0.00     0.103 A
HETATM   20  C15 UNL     1      68.736  79.559  22.412  1.00  0.00     0.038 A
HETATM   21  C16 UNL     1      68.343  78.634  23.385  1.00  0.00     0.032 A
BRANCH  19  22
HETATM   22  N3  UNL     1      69.002  81.857  21.657  1.00  0.00    -0.116 N
HETATM   23  O1  UNL     1      69.812  82.751  21.969  1.00  0.00    -0.532 OA
HETATM   24  O2  UNL     1      68.534  81.846  20.381  1.00  0.00    -0.532 OA
ENDBRANCH  19  22
ENDBRANCH  14  16
ENDBRANCH   1  14
TORSDOF 7
ENDMDL