MODEL 5
REMARK VINA RESULT: -6.174166637      2.101      2.809
REMARK  4 active torsions:
REMARK  status: ('A' for Active; 'I' for Inactive)
REMARK    1  A    between atoms: C8_13  and  N3_14
REMARK    2  A    between atoms: N3_14  and  C9_16
REMARK    3  A    between atoms: C9_16  and  O1_18
REMARK    4  A    between atoms: O1_18  and  C10_19
ROOT
HETATM    1  C1  UNL     1      67.090  78.245  22.921  1.00  0.00     0.050 C
HETATM    2  C2  UNL     1      67.163  77.382  24.126  1.00  0.00    -0.032 A
HETATM    3  C3  UNL     1      65.996  76.984  24.750  1.00  0.00     0.041 A
HETATM    4  C4  UNL     1      66.016  76.181  25.874  1.00  0.00     0.061 A
HETATM    5  N1  UNL     1      65.080  75.646  26.677  1.00  0.00    -0.300 N
ATOM      6  H1  UNL     1      64.072  75.762  26.573  1.00  0.00     0.187 HD
HETATM    7  N2  UNL     1      65.682  74.947  27.622  1.00  0.00    -0.311 N
ATOM      8  H2  UNL     1      65.194  74.439  28.359  1.00  0.00     0.186 HD
HETATM    9  C5  UNL     1      67.013  74.988  27.488  1.00  0.00     0.122 A
HETATM   10  C6  UNL     1      67.256  75.776  26.370  1.00  0.00     0.029 A
HETATM   11  C7  UNL     1      68.407  76.182  25.735  1.00  0.00     0.052 A
HETATM   12 BR1  UNL     1      70.080  75.595  26.464  1.00  0.00    -0.048 Br
HETATM   13  C8  UNL     1      68.378  76.981  24.618  1.00  0.00     0.059 A
ENDROOT
BRANCH  13  14
HETATM   14  N3  UNL     1      69.551  77.402  23.961  1.00  0.00    -0.326 N
ATOM     15  H3  UNL     1      69.988  76.778  23.284  1.00  0.00     0.169 HD
BRANCH  14  16
HETATM   16  C9  UNL     1      70.145  78.671  24.210  1.00  0.00     0.215 C
HETATM   17  S1  UNL     1      69.974  79.350  25.680  1.00  0.00    -0.033 SA
BRANCH  16  18
HETATM   18  O1  UNL     1      70.846  79.297  23.218  1.00  0.00    -0.322 OA
BRANCH  18  19
HETATM   19  C10 UNL     1      70.261  79.811  22.037  1.00  0.00     0.123 C
HETATM   20  C11 UNL     1      71.213  79.895  20.888  1.00  0.00     0.040 C
HETATM   21  C12 UNL     1      69.649  81.173  22.262  1.00  0.00     0.040 C
ENDBRANCH  18  19
ENDBRANCH  16  18
ENDBRANCH  14  16
ENDBRANCH  13  14
TORSDOF 4
ENDMDL