MODEL 4
REMARK VINA RESULT: -6.408135090      3.643      6.026
REMARK  5 active torsions:
REMARK  status: ('A' for Active; 'I' for Inactive)
REMARK    1  A    between atoms: C5_7  and  N2_8
REMARK    2  A    between atoms: C10_16  and  C11_17
REMARK    3  A    between atoms: C12_19  and  O1_21
REMARK    4  A    between atoms: O1_21  and  C14_22
REMARK    5  A    between atoms: C14_22  and  C15_23
ROOT
HETATM    1  C1  UNL     1      71.545  77.220  26.492  1.00  0.00     0.050 C
HETATM    2  C2  UNL     1      71.957  78.610  26.377  1.00  0.00    -0.026 A
HETATM    3  C3  UNL     1      71.132  79.572  25.880  1.00  0.00     0.006 A
HETATM    4  C4  UNL     1      71.679  80.872  25.705  1.00  0.00     0.020 A
HETATM    5  N1  UNL     1      72.954  81.139  26.029  1.00  0.00    -0.344 N
ATOM      6  H1  UNL     1      73.306  82.087  25.890  1.00  0.00     0.167 HD
HETATM    7  C5  UNL     1      73.783  80.214  26.527  1.00  0.00     0.120 A
HETATM    8  C6  UNL     1      73.296  78.941  26.706  1.00  0.00     0.094 A
HETATM    9  C7  UNL     1      74.117  77.881  27.234  1.00  0.00     0.104 C
HETATM   10  N3  UNL     1      74.796  77.038  27.663  1.00  0.00    -0.191 NA
HETATM   11  C8  UNL     1      70.953  81.956  25.056  1.00  0.00     0.058 C
HETATM   12  C9  UNL     1      69.905  81.511  24.096  1.00  0.00     0.015 C
HETATM   13  C10 UNL     1      69.551  80.087  24.144  1.00  0.00     0.039 C
HETATM   14  C12 UNL     1      69.737  79.444  25.553  1.00  0.00     0.091 C
HETATM   15  C13 UNL     1      69.092  80.582  26.486  1.00  0.00     0.052 C
ENDROOT
BRANCH   7  16
HETATM   16  N2  UNL     1      75.009  80.439  26.849  1.00  0.00    -0.384 N
ATOM     17  H22 UNL     1      75.244  80.465  27.842  1.00  0.00     0.157 HD
ATOM     18  H21 UNL     1      75.759  80.593  26.176  1.00  0.00     0.157 HD
ENDBRANCH   7  16
BRANCH  14  19
HETATM   19  O1  UNL     1      68.938  78.414  25.654  1.00  0.00    -0.374 OA
BRANCH  19  20
HETATM   20  C14 UNL     1      67.654  78.213  25.513  1.00  0.00     0.177 C
BRANCH  20  21
HETATM   21  C15 UNL     1      67.311  76.869  24.811  1.00  0.00    -0.030 C
HETATM   22  C16 UNL     1      66.984  77.198  23.397  1.00  0.00     0.016 C
HETATM   23  C17 UNL     1      68.294  75.797  25.017  1.00  0.00     0.016 C
HETATM   24  C18 UNL     1      66.006  76.430  25.486  1.00  0.00     0.016 C
ENDBRANCH  20  21
ENDBRANCH  19  20
ENDBRANCH  14  19
BRANCH  13  25
HETATM   25  C11 UNL     1      70.081  79.213  23.060  1.00  0.00     0.122 C
HETATM   26 CL1  UNL     1      71.435  79.833  22.152  1.00  0.00    -0.130 Cl
ENDBRANCH  13  25
TORSDOF 5
ENDMDL