MODEL 1
REMARK VINA RESULT: -4.921634722      0.000      0.000
REMARK  2 active torsions:
REMARK  status: ('A' for Active; 'I' for Inactive)
REMARK    1  A    between atoms: C8_9  and  O1_10
REMARK    2  A    between atoms: C13_16  and  C15_18
ROOT
HETATM    1  C15 UNL     1      48.344  71.040  60.296  1.00  0.00     0.134 C
HETATM    2  C16 UNL     1      47.451  71.764  61.230  1.00  0.00     0.059 C
HETATM    3  N2  UNL     1      46.759  72.339  61.958  1.00  0.00    -0.197 NA
ENDROOT
BRANCH   1   4
HETATM    4  C13 UNL     1      49.049  72.068  59.480  1.00  0.00    -0.022 C
HETATM    5  C6  UNL     1      50.052  71.466  58.523  1.00  0.00    -0.002 C
HETATM    6  C5  UNL     1      50.734  72.462  57.677  1.00  0.00     0.010 C
HETATM    7  C7  UNL     1      49.359  70.384  57.757  1.00  0.00     0.045 C
HETATM    8  C4  UNL     1      49.898  73.566  57.135  1.00  0.00    -0.012 C
HETATM    9  C3  UNL     1      49.480  73.369  55.699  1.00  0.00     0.040 C
HETATM   10  C12 UNL     1      48.753  73.982  58.023  1.00  0.00     0.012 C
HETATM   11  C2  UNL     1      48.215  72.618  55.514  1.00  0.00     0.226 C
HETATM   12  N1  UNL     1      47.184  72.848  56.440  1.00  0.00     0.097 N
HETATM   13  C9  UNL     1      48.510  71.140  55.609  1.00  0.00     0.076 C
HETATM   14  C1  UNL     1      45.857  72.844  55.960  1.00  0.00     0.311 C
HETATM   15  C10 UNL     1      47.392  71.950  57.587  1.00  0.00     0.262 C
HETATM   16  C8  UNL     1      48.126  70.798  57.053  1.00  0.00     0.091 C
HETATM   17  C11 UNL     1      48.035  72.772  58.628  1.00  0.00     0.032 C
HETATM   18  C14 UNL     1      49.685  73.064  60.418  1.00  0.00     0.017 C
BRANCH  16  19
HETATM   19  O1  UNL     1      47.308  69.646  56.937  1.00  0.00    -0.388 OA
ATOM     20  H1  UNL     1      47.230  69.452  56.011  1.00  0.00     0.210 HD
ENDBRANCH  16  19
ENDBRANCH   1   4
TORSDOF 2
ENDMDL