MODEL 3
REMARK VINA RESULT: -4.919289947      2.320      3.985
REMARK  2 active torsions:
REMARK  status: ('A' for Active; 'I' for Inactive)
REMARK    1  A    between atoms: N1_1  and  C1_5
REMARK    2  A    between atoms: C10_14  and  N2_15
ROOT
HETATM    1  C1  UNL     1      51.945  70.916  56.781  1.00  0.00     0.188 C
HETATM    2  C2  UNL     1      50.827  70.050  56.313  1.00  0.00     0.043 C
HETATM    3  C3  UNL     1      49.477  70.703  56.684  1.00  0.00    -0.032 C
HETATM    4  C4  UNL     1      49.192  71.702  55.662  1.00  0.00     0.010 C
HETATM    5  C5  UNL     1      49.632  73.110  55.920  1.00  0.00     0.001 C
HETATM    6  C6  UNL     1      51.135  73.190  56.168  1.00  0.00     0.007 C
HETATM    7  C7  UNL     1      51.572  72.267  57.264  1.00  0.00     0.016 C
HETATM    8  C8  UNL     1      50.525  72.287  58.338  1.00  0.00     0.014 C
HETATM    9  C9  UNL     1      49.617  71.099  58.105  1.00  0.00     0.029 C
HETATM   10  C10 UNL     1      48.345  71.142  58.895  1.00  0.00     0.101 C
HETATM   11  C11 UNL     1      47.103  71.309  58.088  1.00  0.00     0.042 C
HETATM   12  C12 UNL     1      47.290  69.895  57.635  1.00  0.00    -0.009 C
HETATM   13  C13 UNL     1      48.356  69.657  56.640  1.00  0.00     0.014 C
HETATM   14  C14 UNL     1      47.894  69.671  59.036  1.00  0.00     0.042 C
ENDROOT
BRANCH   1  15
HETATM   15  N1  UNL     1      52.759  70.252  57.810  1.00  0.00    -0.075 N
ATOM     16  H13 UNL     1      52.373  70.403  58.742  1.00  0.00     0.274 HD
ATOM     17  H12 UNL     1      52.663  69.237  57.761  1.00  0.00     0.274 HD
ATOM     18  H11 UNL     1      53.738  70.535  57.762  1.00  0.00     0.274 HD
ENDBRANCH   1  15
BRANCH  10  19
HETATM   19  N2  UNL     1      48.418  71.855  60.121  1.00  0.00    -0.145 N
HETATM   20  O1  UNL     1      48.927  71.292  61.136  1.00  0.00    -0.536 OA
HETATM   21  O2  UNL     1      47.974  73.136  60.312  1.00  0.00    -0.536 OA
ENDBRANCH  10  19
TORSDOF 2
ENDMDL