MODEL 2
REMARK VINA RESULT: -4.546007797      7.057      9.430
REMARK  1 active torsions:
REMARK  status: ('A' for Active; 'I' for Inactive)
REMARK    1  A    between atoms: C2_2  and  N1_4
ROOT
HETATM    1  N1  UNL     1      47.859  73.510  58.163  1.00  0.00     0.106 N
HETATM    2  C4  UNL     1      49.280  73.663  58.391  1.00  0.00     0.224 C
HETATM    3  C5  UNL     1      49.839  72.716  59.310  1.00  0.00     0.042 C
HETATM    4  C6  UNL     1      49.377  73.178  60.710  1.00  0.00     0.071 C
HETATM    5  C7  UNL     1      48.087  73.827  60.758  1.00  0.00     0.075 C
HETATM    6  S1  UNL     1      47.063  73.079  61.813  1.00  0.00    -0.066 SA
HETATM    7  N2  UNL     1      47.368  74.943  60.184  1.00  0.00    -0.349 N
ATOM      8  H2  UNL     1      46.662  75.308  60.824  1.00  0.00     0.163 HD
HETATM    9  C8  UNL     1      47.391  75.674  58.939  1.00  0.00     0.241 C
HETATM   10  C9  UNL     1      46.002  76.225  58.815  1.00  0.00     0.109 C
HETATM   11  N3  UNL     1      44.909  76.636  58.716  1.00  0.00    -0.193 NA
HETATM   12  C10 UNL     1      48.198  76.916  59.036  1.00  0.00     0.109 C
HETATM   13  N4  UNL     1      48.850  77.877  59.110  1.00  0.00    -0.193 NA
HETATM   14  C11 UNL     1      47.617  74.897  57.715  1.00  0.00     0.281 C
HETATM   15  C12 UNL     1      48.785  75.191  56.834  1.00  0.00     0.043 C
HETATM   16  C13 UNL     1      49.752  73.982  57.032  1.00  0.00     0.038 C
ENDROOT
BRANCH   1  17
HETATM   17  C2  UNL     1      47.480  72.649  57.133  1.00  0.00     0.216 C
HETATM   18  C1  UNL     1      46.182  73.216  56.521  1.00  0.00     0.042 C
HETATM   19  C3  UNL     1      47.132  71.245  57.468  1.00  0.00     0.042 C
ENDBRANCH   1  17
TORSDOF 1
ENDMDL