MODEL 1
REMARK VINA RESULT: -8.473623276      0.000      0.000
REMARK  2 active torsions:
REMARK  status: ('A' for Active; 'I' for Inactive)
REMARK    1  A    between atoms: O1_1  and  C1_3
REMARK    2  A    between atoms: N1_6  and  C4_7
ROOT
HETATM    1  C4  UNL     1      46.738  72.056  63.451  1.00  0.00     0.224 C
HETATM    2  C5  UNL     1      47.355  70.700  63.143  1.00  0.00     0.036 C
HETATM    3  C6  UNL     1      46.635  69.836  64.174  1.00  0.00     0.014 C
HETATM    4  C7  UNL     1      46.726  70.701  65.385  1.00  0.00    -0.011 C
HETATM    5  C8  UNL     1      47.955  70.196  66.146  1.00  0.00     0.178 C
HETATM    6  O2  UNL     1      47.454  68.945  66.546  1.00  0.00    -0.385 OA
HETATM    7  C9  UNL     1      46.216  69.219  67.097  1.00  0.00     0.126 C
HETATM    8  C10 UNL     1      45.151  68.222  66.695  1.00  0.00     0.032 C
HETATM    9  C11 UNL     1      43.893  69.071  66.846  1.00  0.00     0.003 C
HETATM   10  C12 UNL     1      44.309  70.300  66.042  1.00  0.00     0.008 C
HETATM   11  C13 UNL     1      45.703  70.486  66.434  1.00  0.00     0.025 C
HETATM   12  C14 UNL     1      46.880  72.127  64.949  1.00  0.00     0.048 C
ENDROOT
BRANCH   1  13
HETATM   13  N1  UNL     1      47.558  73.066  62.836  1.00  0.00     0.095 N
HETATM   14  C3  UNL     1      48.331  72.538  61.735  1.00  0.00     0.275 C
HETATM   15  C2  UNL     1      48.861  73.822  61.108  1.00  0.00     0.064 C
HETATM   16  C1  UNL     1      47.603  74.674  61.104  1.00  0.00     0.148 C
HETATM   17  C15 UNL     1      46.778  74.128  62.259  1.00  0.00     0.304 C
BRANCH  16  18
HETATM   18  O1  UNL     1      47.876  76.024  61.249  1.00  0.00    -0.394 OA
ATOM     19  H1  UNL     1      47.536  76.379  62.062  1.00  0.00     0.210 HD
ENDBRANCH  16  18
ENDBRANCH   1  13
TORSDOF 2
ENDMDL