MODEL 3
REMARK VINA RESULT: -5.690378553      2.099      3.507
REMARK  2 active torsions:
REMARK  status: ('A' for Active; 'I' for Inactive)
REMARK    1  A    between atoms: C6_6  and  C7_7
REMARK    2  A    between atoms: C7_7  and  N1_8
ROOT
HETATM    1  C1  UNL     1      46.689  76.934  59.229  1.00  0.00     0.045 C
HETATM    2  C2  UNL     1      48.025  76.397  59.677  1.00  0.00     0.055 C
HETATM    3  C3  UNL     1      48.948  77.563  60.046  1.00  0.00     0.045 C
HETATM    4  C4  UNL     1      47.908  75.459  60.856  1.00  0.00     0.045 C
HETATM    5  C5  UNL     1      47.785  74.119  60.168  1.00  0.00     0.032 C
HETATM    6  C6  UNL     1      48.542  73.026  60.847  1.00  0.00     0.031 C
HETATM    7  C12 UNL     1      49.752  72.716  59.980  1.00  0.00     0.013 C
HETATM    8  C13 UNL     1      49.731  73.655  58.825  1.00  0.00     0.039 C
HETATM    9  C14 UNL     1      48.392  74.355  58.830  1.00  0.00     0.063 C
HETATM   10  C15 UNL     1      47.468  73.797  57.755  1.00  0.00     0.046 C
HETATM   11  O1  UNL     1      48.611  75.696  58.655  1.00  0.00    -0.370 OA
ENDROOT
BRANCH   6  12
HETATM   12  C7  UNL     1      47.729  71.782  60.956  1.00  0.00     0.068 C
BRANCH  12  13
HETATM   13  N1  UNL     1      47.737  71.141  62.208  1.00  0.00    -0.370 N
HETATM   14  C8  UNL     1      47.853  71.938  63.359  1.00  0.00     0.090 C
HETATM   15  C9  UNL     1      46.452  72.306  63.836  1.00  0.00     0.277 C
HETATM   16  N2  UNL     1      45.608  71.143  63.799  1.00  0.00    -0.069 N
HETATM   17  C10 UNL     1      46.346  69.906  63.678  1.00  0.00     0.252 C
ATOM     18  H22 UNL     1      44.989  71.117  64.609  1.00  0.00     0.277 HD
ATOM     19  H21 UNL     1      44.912  71.223  63.057  1.00  0.00     0.277 HD
HETATM   20  C11 UNL     1      47.109  69.889  62.342  1.00  0.00     0.154 C
ENDBRANCH  12  13
ENDBRANCH   6  12
TORSDOF 2
ENDMDL