MODEL 3
REMARK VINA RESULT: -6.777663690      1.997      3.210
REMARK  2 active torsions:
REMARK  status: ('A' for Active; 'I' for Inactive)
REMARK    1  A    between atoms: C6_7  and  N1_8
REMARK    2  A    between atoms: C13_15  and  O2_16
ROOT
HETATM    1  C1  UNL     1      45.999  73.497  62.392  1.00  0.00     0.046 C
HETATM    2  C2  UNL     1      47.200  72.703  62.926  1.00  0.00     0.058 C
HETATM    3  C3  UNL     1      48.394  73.619  62.839  1.00  0.00     0.046 C
HETATM    4  O1  UNL     1      47.408  71.586  62.117  1.00  0.00    -0.380 OA
HETATM    5  C4  UNL     1      47.192  70.455  62.927  1.00  0.00     0.176 C
HETATM    6  C5  UNL     1      47.564  70.892  64.224  1.00  0.00     0.042 C
HETATM    7  C6  UNL     1      47.518  70.327  65.522  1.00  0.00     0.118 C
HETATM    8  C13 UNL     1      47.730  71.600  66.382  1.00  0.00     0.142 C
HETATM    9  C14 UNL     1      47.685  72.795  65.410  1.00  0.00     0.042 C
HETATM   10  C15 UNL     1      46.863  72.259  64.292  1.00  0.00     0.030 C
ENDROOT
BRANCH   7  11
HETATM   11  N1  UNL     1      46.455  69.618  66.097  1.00  0.00    -0.385 N
HETATM   12  C7  UNL     1      46.746  68.925  67.241  1.00  0.00     0.059 C
HETATM   13  C8  UNL     1      46.364  67.533  67.568  1.00  0.00     0.055 C
HETATM   14  C9  UNL     1      44.875  67.201  67.216  1.00  0.00     0.085 C
HETATM   15  C10 UNL     1      44.371  68.331  66.559  1.00  0.00    -0.181 C
HETATM   16  C11 UNL     1      44.006  69.512  65.882  1.00  0.00     0.099 C
HETATM   17  C12 UNL     1      45.275  70.439  66.010  1.00  0.00     0.133 C
ENDBRANCH   7  11
BRANCH   8  18
HETATM   18  O2  UNL     1      48.985  71.650  66.945  1.00  0.00    -0.393 OA
ATOM     19  H2  UNL     1      49.350  70.786  67.095  1.00  0.00     0.210 HD
ENDBRANCH   8  18
TORSDOF 2
ENDMDL