MODEL 4
REMARK VINA RESULT: -4.855411832      1.207      1.263
REMARK  2 active torsions:
REMARK  status: ('A' for Active; 'I' for Inactive)
REMARK    1  A    between atoms: C2_2  and  N1_3
REMARK    2  A    between atoms: C5_7  and  O2_8
ROOT
HETATM    1  N1  UNL     1      48.060  71.066  60.833  1.00  0.00    -0.192 NA
HETATM    2  O1  UNL     1      48.690  71.670  61.845  1.00  0.00    -0.303 OA
HETATM    3  C3  UNL     1      48.596  73.040  61.859  1.00  0.00     0.197 C
HETATM    4  C4  UNL     1      48.014  73.652  60.629  1.00  0.00     0.067 C
HETATM    5  C5  UNL     1      48.744  73.328  59.352  1.00  0.00     0.069 C
HETATM    6  C6  UNL     1      47.784  72.642  58.386  1.00  0.00     0.026 C
HETATM    7  C7  UNL     1      47.735  73.278  57.044  1.00  0.00     0.008 C
HETATM    8  C8  UNL     1      48.391  72.519  55.937  1.00  0.00     0.005 C
HETATM    9  C9  UNL     1      49.508  71.630  56.458  1.00  0.00    -0.014 C
HETATM   10  C10 UNL     1      50.552  72.443  57.151  1.00  0.00     0.005 C
HETATM   11  C11 UNL     1      50.816  72.090  58.564  1.00  0.00     0.010 C
HETATM   12  C12 UNL     1      49.771  72.279  59.567  1.00  0.00     0.041 C
HETATM   13  C13 UNL     1      48.920  71.023  59.683  1.00  0.00     0.097 C
HETATM   14  C14 UNL     1      48.057  71.186  58.436  1.00  0.00     0.013 C
HETATM   15  C15 UNL     1      48.842  70.603  57.318  1.00  0.00     0.011 C
ENDROOT
BRANCH   1  16
HETATM   16  C2  UNL     1      47.746  69.701  61.188  1.00  0.00     0.116 C
HETATM   17  C1  UNL     1      46.948  69.582  62.461  1.00  0.00     0.023 C
ENDBRANCH   1  16
BRANCH   5  18
HETATM   18  O2  UNL     1      49.228  74.525  58.860  1.00  0.00    -0.389 OA
ATOM     19  H2  UNL     1      48.570  74.857  58.262  1.00  0.00     0.210 HD
ENDBRANCH   5  18
TORSDOF 2
ENDMDL