MODEL 2
REMARK VINA RESULT: -6.914189823      1.703      3.103
REMARK  2 active torsions:
REMARK  status: ('A' for Active; 'I' for Inactive)
REMARK    1  A    between atoms: N2_5  and  C4_6
REMARK    2  A    between atoms: C12_14  and  O1_15
ROOT
HETATM    1  C4  UNL     1      48.014  72.728  62.166  1.00  0.00     0.225 C
HETATM    2  C5  UNL     1      47.476  72.251  60.883  1.00  0.00     0.036 C
HETATM    3  C6  UNL     1      48.487  71.638  59.949  1.00  0.00     0.002 C
HETATM    4  C7  UNL     1      49.686  72.439  59.632  1.00  0.00     0.000 C
HETATM    5  C8  UNL     1      49.552  73.452  58.555  1.00  0.00     0.000 C
HETATM    6  C9  UNL     1      48.733  74.643  58.814  1.00  0.00     0.000 C
HETATM    7  C10 UNL     1      48.920  75.289  60.161  1.00  0.00     0.002 C
HETATM    8  C11 UNL     1      47.619  75.817  60.648  1.00  0.00     0.032 C
HETATM    9  C12 UNL     1      46.902  74.977  61.666  1.00  0.00     0.120 C
HETATM   10  C13 UNL     1      47.746  74.150  62.539  1.00  0.00     0.067 C
ENDROOT
BRANCH   1  11
HETATM   11  N2  UNL     1      47.621  71.855  63.283  1.00  0.00     0.096 N
HETATM   12  C3  UNL     1      47.538  72.527  64.530  1.00  0.00     0.303 C
HETATM   13  C2  UNL     1      46.388  72.026  65.362  1.00  0.00     0.302 C
HETATM   14  N1  UNL     1      46.477  70.582  65.396  1.00  0.00     0.087 N
HETATM   15  C1  UNL     1      45.442  70.110  66.288  1.00  0.00     0.310 C
HETATM   16  C15 UNL     1      46.423  69.978  64.091  1.00  0.00     0.302 C
HETATM   17  C14 UNL     1      46.505  71.015  62.969  1.00  0.00     0.303 C
ENDBRANCH   1  11
BRANCH   9  18
HETATM   18  O1  UNL     1      46.247  75.940  62.500  1.00  0.00    -0.396 OA
ATOM     19  H1  UNL     1      45.440  76.129  62.034  1.00  0.00     0.210 HD
ENDBRANCH   9  18
TORSDOF 2
ENDMDL