MODEL 1
REMARK VINA RESULT: -5.765477523      0.000      0.000
REMARK  1 active torsions:
REMARK  status: ('A' for Active; 'I' for Inactive)
REMARK    1  A    between atoms: N1_3  and  C3_4
ROOT
HETATM    1  C1  UNL     1      46.357  75.565  61.498  1.00  0.00     0.158 C
HETATM    2  C2  UNL     1      47.203  74.936  62.581  1.00  0.00     0.079 C
HETATM    3  N1  UNL     1      47.643  73.663  62.225  1.00  0.00    -0.376 N
HETATM    4  C8  UNL     1      48.029  73.374  60.920  1.00  0.00     0.051 C
HETATM    5  C9  UNL     1      49.549  73.138  60.945  1.00  0.00     0.059 C
HETATM    6  C10 UNL     1      50.071  72.613  59.651  1.00  0.00     0.170 C
HETATM    7  O1  UNL     1      49.468  71.436  59.230  1.00  0.00    -0.391 OA
HETATM    8  C11 UNL     1      48.538  71.032  60.157  1.00  0.00     0.170 C
HETATM    9  C12 UNL     1      47.453  72.064  60.373  1.00  0.00     0.059 C
HETATM   10  C13 UNL     1      47.788  74.431  59.893  1.00  0.00     0.145 C
HETATM   11  N2  UNL     1      47.137  75.612  60.322  1.00  0.00    -0.414 N
ATOM     12  H2  UNL     1      47.229  76.478  59.792  1.00  0.00     0.153 HD
ENDROOT
BRANCH   3  13
HETATM   13  C3  UNL     1      47.433  72.655  63.161  1.00  0.00     0.086 C
HETATM   14  C4  UNL     1      46.072  71.950  63.051  1.00  0.00     0.035 C
HETATM   15  C5  UNL     1      46.169  70.522  63.570  1.00  0.00     0.076 C
HETATM   16  S1  UNL     1      47.347  70.505  64.938  1.00  0.00    -0.169 SA
HETATM   17  C6  UNL     1      47.441  72.167  65.619  1.00  0.00     0.076 C
HETATM   18  C7  UNL     1      47.453  73.243  64.558  1.00  0.00     0.035 C
ENDBRANCH   3  13
TORSDOF 1
ENDMDL