MODEL 5
REMARK VINA RESULT: -4.450085550      3.252      4.372
REMARK  2 active torsions:
REMARK  status: ('A' for Active; 'I' for Inactive)
REMARK    1  A    between atoms: C2_2  and  C3_3
REMARK       I    between atoms: C3_3  and  N1_5
REMARK    2  A    between atoms: N1_5  and  C4_7
ROOT
HETATM    1  C4  UNL     1      47.664  74.575  60.041  1.00  0.00     0.161 C
HETATM    2  S1  UNL     1      47.133  76.262  59.913  1.00  0.00    -0.013 SA
HETATM    3  N2  UNL     1      48.416  74.273  58.943  1.00  0.00    -0.324 N
HETATM    4  C5  UNL     1      48.404  75.242  57.753  1.00  0.00     0.205 C
HETATM    5  S2  UNL     1      48.147  74.003  56.401  1.00  0.00    -0.134 SA
HETATM    6  C6  UNL     1      48.639  72.518  57.407  1.00  0.00     0.041 C
HETATM    7  C7  UNL     1      49.651  71.690  56.694  1.00  0.00     0.033 C
HETATM    8  C8  UNL     1      47.389  71.827  57.788  1.00  0.00     0.033 C
HETATM    9  C9  UNL     1      49.319  73.285  58.521  1.00  0.00     0.006 C
HETATM   10  C10 UNL     1      50.121  72.575  59.477  1.00  0.00     0.065 C
ENDROOT
BRANCH   1  11
HETATM   11  N1  UNL     1      47.295  74.048  61.259  1.00  0.00    -0.307 N
HETATM   12  C3  UNL     1      47.069  72.829  61.860  1.00  0.00     0.223 C
HETATM   13  O1  UNL     1      47.140  71.716  61.352  1.00  0.00    -0.273 OA
ATOM     14  H1  UNL     1      47.138  74.800  61.929  1.00  0.00     0.171 HD
BRANCH  12  15
HETATM   15  C2  UNL     1      46.679  72.799  63.345  1.00  0.00     0.099 C
HETATM   16  C1  UNL     1      47.636  73.590  64.152  1.00  0.00     0.014 C
ENDBRANCH  12  15
ENDBRANCH   1  11
TORSDOF 2
ENDMDL