MODEL 3
REMARK VINA RESULT: -7.505493482      1.530      1.834
REMARK  10 active torsions:
REMARK  status: ('A' for Active; 'I' for Inactive)
REMARK    1  A    between atoms: C2_2  and  C4_10
REMARK    2  A    between atoms: N1_3  and  N2_5
REMARK       I    between atoms: N2_5  and  C3_7
REMARK    3  A    between atoms: C4_10  and  C5_11
REMARK    4  A    between atoms: C4_10  and  C13_25
REMARK    5  A    between atoms: C5_11  and  S1_12
REMARK    6  A    between atoms: S1_12  and  C6_13
REMARK    7  A    between atoms: C11_21  and  C12_22
REMARK       I    between atoms: C13_25  and  N6_27
REMARK    8  A    between atoms: N6_27  and  N7_29
REMARK       I    between atoms: N7_29  and  C14_31
REMARK    9  A    between atoms: C14_31  and  C15_33
REMARK   10  A    between atoms: C15_33  and  N8_36
ROOT
HETATM    1  C4  UNL     1       4.536  50.454  -5.629  1.00  0.00     0.136 C
ENDROOT
BRANCH   1   2
HETATM    2  C2  UNL     1       5.279  49.431  -6.385  1.00  0.00     0.014 C
HETATM    3  C1  UNL     1       6.015  49.738  -7.627  1.00  0.00     0.066 C
HETATM    4  N1  UNL     1       5.313  48.221  -5.922  1.00  0.00    -0.305 N
ATOM      5  H1  UNL     1       4.798  48.032  -5.062  1.00  0.00     0.186 HD
BRANCH   4   6
HETATM    6  N2  UNL     1       5.997  47.160  -6.507  1.00  0.00    -0.254 N
HETATM    7  C3  UNL     1       6.505  46.124  -5.703  1.00  0.00     0.347 C
HETATM    8  N3  UNL     1       7.213  45.030  -6.276  1.00  0.00    -0.038 NA
HETATM    9  O1  UNL     1       6.339  46.154  -4.464  1.00  0.00    -0.249 OA
ATOM     10  H2  UNL     1       6.129  47.134  -7.517  1.00  0.00     0.191 HD
ENDBRANCH   4   6
ENDBRANCH   1   2
BRANCH   1  11
HETATM   11  C5  UNL     1       3.585  51.221  -6.571  1.00  0.00     0.100 C
BRANCH  11  12
HETATM   12  S1  UNL     1       4.171  52.890  -6.863  1.00  0.00    -0.116 SA
BRANCH  12  13
HETATM   13  C6  UNL     1       5.597  53.214  -5.844  1.00  0.00     0.043 C
HETATM   14  N4  UNL     1       5.711  52.653  -4.727  1.00  0.00    -0.382 N
HETATM   15  C7  UNL     1       6.809  52.833  -3.815  1.00  0.00     0.105 C
ATOM     16  H4  UNL     1       4.964  52.019  -4.442  1.00  0.00     0.160 HD
HETATM   17  C8  UNL     1       7.868  51.832  -4.188  1.00  0.00     0.100 C
HETATM   18  C11 UNL     1       7.368  54.203  -4.047  1.00  0.00     0.112 C
HETATM   19  S2  UNL     1       8.657  52.649  -5.628  1.00  0.00    -0.161 SA
HETATM   20  C9  UNL     1       7.800  54.248  -5.521  1.00  0.00     0.068 C
HETATM   21  C10 UNL     1       6.601  54.174  -6.401  1.00  0.00     0.080 C
BRANCH  18  22
HETATM   22  C12 UNL     1       8.456  54.614  -3.168  1.00  0.00     0.238 C
HETATM   23  N5  UNL     1       8.603  54.203  -1.812  1.00  0.00    -0.062 NA
HETATM   24  O2  UNL     1       9.378  55.403  -3.584  1.00  0.00    -0.276 OA
ENDBRANCH  18  22
ENDBRANCH  12  13
ENDBRANCH  11  12
ENDBRANCH   1  11
BRANCH   1  25
HETATM   25  C13 UNL     1       3.655  49.872  -4.573  1.00  0.00     0.246 C
HETATM   26  O3  UNL     1       4.159  49.307  -3.561  1.00  0.00    -0.271 OA
HETATM   27  N6  UNL     1       2.233  49.940  -4.686  1.00  0.00    -0.267 N
ATOM     28  H6  UNL     1       1.804  50.387  -5.497  1.00  0.00     0.190 HD
BRANCH  27  29
HETATM   29  N7  UNL     1       1.439  49.393  -3.686  1.00  0.00    -0.265 N
HETATM   30  C14 UNL     1       0.857  50.217  -2.706  1.00  0.00     0.271 C
HETATM   31  O4  UNL     1       1.061  51.454  -2.748  1.00  0.00    -0.269 OA
ATOM     32  H7  UNL     1       1.275  48.386  -3.662  1.00  0.00     0.190 HD
BRANCH  30  33
HETATM   33  C15 UNL     1       0.010  49.673  -1.620  1.00  0.00     0.197 C
HETATM   34  C16 UNL     1      -1.405  49.512  -2.120  1.00  0.00     0.056 C
HETATM   35  C17 UNL     1       0.572  48.347  -1.132  1.00  0.00     0.056 C
BRANCH  33  36
HETATM   36  N8  UNL     1       0.005  50.615  -0.520  1.00  0.00    -0.062 N
ATOM     37  H83 UNL     1      -0.841  51.183  -0.496  1.00  0.00     0.275 HD
ATOM     38  H82 UNL     1      -0.106  50.159   0.385  1.00  0.00     0.275 HD
ATOM     39  H81 UNL     1       0.853  51.179  -0.572  1.00  0.00     0.275 HD
ENDBRANCH  33  36
ENDBRANCH  30  33
ENDBRANCH  27  29
ENDBRANCH   1  25
TORSDOF 10
ENDMDL