MODEL 3
REMARK VINA RESULT: -6.362320412      2.292      3.376
REMARK  12 active torsions:
REMARK  status: ('A' for Active; 'I' for Inactive)
REMARK       I    between atoms: C2_4  and  N2_5
REMARK       I    between atoms: C2_4  and  N4_28
REMARK    1  A    between atoms: N2_5  and  C3_7
REMARK    2  A    between atoms: C3_7  and  C4_8
REMARK    3  A    between atoms: C4_8  and  S1_9
REMARK    4  A    between atoms: S1_9  and  S2_10
REMARK    5  A    between atoms: S2_10  and  C5_11
REMARK    6  A    between atoms: C6_13  and  C7_14
REMARK    7  A    between atoms: C7_14  and  S3_15
REMARK    8  A    between atoms: S3_15  and  C8_16
REMARK    9  A    between atoms: C9_19  and  O3_20
REMARK   10  A    between atoms: C10_22  and  O4_23
REMARK   11  A    between atoms: C11_25  and  O5_26
REMARK   12  A    between atoms: C15_32  and  O6_33
ROOT
HETATM    1  C5  UNL     1       4.829  51.167  -5.526  1.00  0.00     0.225 C
HETATM    2  O1  UNL     1       5.282  50.168  -6.337  1.00  0.00    -0.363 OA
HETATM    3  C6  UNL     1       4.752  48.925  -6.169  1.00  0.00     0.164 C
HETATM    4  C9  UNL     1       3.820  48.719  -5.031  1.00  0.00     0.179 C
HETATM    5  C10 UNL     1       3.998  49.622  -3.860  1.00  0.00     0.181 C
HETATM    6  C11 UNL     1       4.977  50.736  -4.083  1.00  0.00     0.189 C
ENDROOT
BRANCH   1   7
HETATM    7  S2  UNL     1       5.882  52.632  -5.730  1.00  0.00    -0.063 SA
BRANCH   7   8
HETATM    8  S1  UNL     1       7.541  52.216  -6.986  1.00  0.00    -0.093 SA
BRANCH   8   9
HETATM    9  C4  UNL     1       9.124  52.365  -6.072  1.00  0.00     0.106 C
BRANCH   9  10
HETATM   10  C3  UNL     1       8.824  52.904  -4.716  1.00  0.00     0.149 C
BRANCH  10  11
HETATM   11  N2  UNL     1       9.523  54.147  -4.518  1.00  0.00    -0.226 N
HETATM   12  C2  UNL     1       9.751  54.613  -3.200  1.00  0.00     0.673 C
HETATM   13  N1  UNL     1      10.700  54.178  -2.494  1.00  0.00    -0.231 N
HETATM   14  N4  UNL     1       8.872  55.596  -2.704  1.00  0.00    -0.192 N
HETATM   15  C1  UNL     1      11.074  54.531  -1.165  1.00  0.00     0.165 C
ATOM     16  H1  UNL     1      11.286  53.471  -2.939  1.00  0.00     0.177 HD
HETATM   17  C12 UNL     1       9.143  56.914  -2.156  1.00  0.00     0.144 C
HETATM   18  C15 UNL     1       7.421  55.402  -2.677  1.00  0.00     0.237 C
HETATM   19  C13 UNL     1       8.101  57.028  -1.069  1.00  0.00     0.025 C
HETATM   20  C14 UNL     1       6.886  56.399  -1.704  1.00  0.00     0.056 C
ATOM     21  H2  UNL     1       9.850  54.687  -5.318  1.00  0.00     0.177 HD
BRANCH  18  22
HETATM   22  O6  UNL     1       6.926  55.652  -3.967  1.00  0.00    -0.376 OA
ATOM     23  H6  UNL     1       6.711  56.575  -4.026  1.00  0.00     0.212 HD
ENDBRANCH  18  22
ENDBRANCH  10  11
ENDBRANCH   9  10
ENDBRANCH   8   9
ENDBRANCH   7   8
ENDBRANCH   1   7
BRANCH   6  24
HETATM   24  O5  UNL     1       6.279  50.427  -3.782  1.00  0.00    -0.389 OA
ATOM     25  H5  UNL     1       6.332  49.766  -3.102  1.00  0.00     0.210 HD
ENDBRANCH   6  24
BRANCH   3  26
HETATM   26  C7  UNL     1       5.878  47.910  -6.209  1.00  0.00     0.118 C
BRANCH  26  27
HETATM   27  S3  UNL     1       5.856  46.736  -4.860  1.00  0.00    -0.070 SA
BRANCH  27  28
HETATM   28  C8  UNL     1       6.638  45.193  -5.288  1.00  0.00     0.292 C
HETATM   29  N3  UNL     1       7.499  45.120  -6.412  1.00  0.00    -0.051 NA
HETATM   30  O2  UNL     1       6.452  44.147  -4.620  1.00  0.00    -0.264 OA
ENDBRANCH  27  28
ENDBRANCH  26  27
ENDBRANCH   3  26
BRANCH   5  31
HETATM   31  O4  UNL     1       2.807  50.215  -3.441  1.00  0.00    -0.390 OA
ATOM     32  H4  UNL     1       2.724  50.255  -2.496  1.00  0.00     0.210 HD
ENDBRANCH   5  31
BRANCH   4  33
HETATM   33  O3  UNL     1       2.467  48.680  -5.457  1.00  0.00    -0.390 OA
ATOM     34  H3  UNL     1       1.867  48.621  -4.723  1.00  0.00     0.210 HD
ENDBRANCH   4  33
TORSDOF 12
ENDMDL