MODEL 3
REMARK VINA RESULT: -5.502273747      4.484      7.884
REMARK  15 active torsions:
REMARK  status: ('A' for Active; 'I' for Inactive)
REMARK    1  A    between atoms: C6_6  and  O1_7
REMARK    2  A    between atoms: O1_7  and  C7_8
REMARK    3  A    between atoms: C8_10  and  C9_11
REMARK    4  A    between atoms: C9_11  and  O3_12
REMARK    5  A    between atoms: C10_14  and  O4_15
REMARK    6  A    between atoms: C11_17  and  O5_18
REMARK    7  A    between atoms: C12_20  and  O6_21
REMARK    8  A    between atoms: C13_23  and  O7_24
REMARK    9  A    between atoms: C14_26  and  O8_27
REMARK   10  A    between atoms: C15_29  and  S1_30
REMARK   11  A    between atoms: S1_30  and  C16_32
REMARK   12  A    between atoms: C16_32  and  C17_33
REMARK   13  A    between atoms: C17_33  and  N1_34
REMARK   14  A    between atoms: N1_34  and  N2_36
REMARK   15  A    between atoms: N2_36  and  N3_37
ROOT
HETATM    1  C1  UNL     1      -0.240  50.429  -5.630  1.00  0.00     0.011 C
HETATM    2  C2  UNL     1       1.242  50.810  -5.741  1.00  0.00     0.000 C
HETATM    3  C3  UNL     1       1.576  50.825  -7.205  1.00  0.00     0.005 C
HETATM    4  C4  UNL     1       2.522  51.971  -7.472  1.00  0.00     0.003 C
HETATM    5  C5  UNL     1       3.912  51.445  -7.756  1.00  0.00     0.035 C
HETATM    6  C6  UNL     1       4.752  51.645  -6.529  1.00  0.00     0.156 C
HETATM    7  C13 UNL     1       4.088  51.124  -5.272  1.00  0.00     0.177 C
HETATM    8  C14 UNL     1       3.494  49.771  -5.424  1.00  0.00     0.165 C
HETATM    9  C15 UNL     1       2.023  49.687  -5.091  1.00  0.00     0.114 C
ENDROOT
BRANCH   6  10
HETATM   10  O1  UNL     1       6.007  51.097  -6.607  1.00  0.00    -0.351 OA
BRANCH  10  11
HETATM   11  C7  UNL     1       6.848  51.686  -7.531  1.00  0.00     0.292 C
HETATM   12  O2  UNL     1       7.005  53.004  -7.241  1.00  0.00    -0.348 OA
HETATM   13  C8  UNL     1       8.118  53.396  -6.567  1.00  0.00     0.179 C
HETATM   14  C10 UNL     1       9.399  52.722  -6.919  1.00  0.00     0.180 C
HETATM   15  C11 UNL     1       9.228  51.235  -6.904  1.00  0.00     0.183 C
HETATM   16  C12 UNL     1       8.079  50.903  -7.828  1.00  0.00     0.204 C
BRANCH  13  17
HETATM   17  C9  UNL     1       7.868  53.171  -5.071  1.00  0.00     0.198 C
BRANCH  17  18
HETATM   18  O3  UNL     1       6.629  53.670  -4.679  1.00  0.00    -0.398 OA
ATOM     19  H3  UNL     1       6.435  53.450  -3.775  1.00  0.00     0.209 HD
ENDBRANCH  17  18
ENDBRANCH  13  17
BRANCH  14  20
HETATM   20  O4  UNL     1       9.949  53.188  -8.110  1.00  0.00    -0.390 OA
ATOM     21  H4  UNL     1       9.948  52.534  -8.799  1.00  0.00     0.210 HD
ENDBRANCH  14  20
BRANCH  15  22
HETATM   22  O5  UNL     1      10.390  50.558  -7.277  1.00  0.00    -0.390 OA
ATOM     23  H5  UNL     1      10.209  49.735  -7.716  1.00  0.00     0.210 HD
ENDBRANCH  15  22
BRANCH  16  24
HETATM   24  O6  UNL     1       8.540  51.188  -9.134  1.00  0.00    -0.388 OA
ATOM     25  H6  UNL     1       9.447  51.468  -9.111  1.00  0.00     0.210 HD
ENDBRANCH  16  24
ENDBRANCH  10  11
ENDBRANCH   6  10
BRANCH   7  26
HETATM   26  O7  UNL     1       5.070  51.142  -4.264  1.00  0.00    -0.390 OA
ATOM     27  H7  UNL     1       5.229  50.236  -4.027  1.00  0.00     0.210 HD
ENDBRANCH   7  26
BRANCH   8  28
HETATM   28  O8  UNL     1       4.154  48.884  -4.577  1.00  0.00    -0.392 OA
ATOM     29  H8  UNL     1       3.632  48.096  -4.483  1.00  0.00     0.210 HD
ENDBRANCH   8  28
BRANCH   9  30
HETATM   30  S1  UNL     1       1.800  49.602  -3.369  1.00  0.00     0.024 S
HETATM   31  O9  UNL     1       1.820  48.103  -2.702  1.00  0.00    -0.258 OA
BRANCH  30  32
HETATM   32  C16 UNL     1       0.716  50.767  -2.675  1.00  0.00     0.131 C
BRANCH  32  33
HETATM   33  C17 UNL     1       0.217  50.374  -1.299  1.00  0.00     0.168 C
BRANCH  33  34
HETATM   34  N1  UNL     1      -0.839  49.393  -1.459  1.00  0.00    -0.252 N
ATOM     35  H1  UNL     1      -0.811  48.537  -0.907  1.00  0.00     0.197 HD
BRANCH  34  36
HETATM   36  N2  UNL     1      -1.779  49.572  -2.254  1.00  0.00    -0.249 NA
BRANCH  36  37
HETATM   37  N3  UNL     1      -2.877  49.551  -2.804  1.00  0.00    -0.261 N
ATOM     38  H32 UNL     1      -3.400  49.504  -1.929  1.00  0.00     0.193 HD
ATOM     39  H31 UNL     1      -3.621  49.547  -3.500  1.00  0.00     0.193 HD
ENDBRANCH  36  37
ENDBRANCH  34  36
ENDBRANCH  33  34
ENDBRANCH  32  33
ENDBRANCH  30  32
ENDBRANCH   9  30
TORSDOF 15
ENDMDL