MODEL 3
REMARK VINA RESULT: -6.208751299      3.013      4.271
REMARK  12 active torsions:
REMARK  status: ('A' for Active; 'I' for Inactive)
REMARK    1  A    between atoms: C2_2  and  O1_3
REMARK    2  A    between atoms: C2_2  and  C20_44
REMARK    3  A    between atoms: O1_3  and  C3_4
REMARK    4  A    between atoms: C5_6  and  N1_7
REMARK    5  A    between atoms: C6_11  and  C7_12
REMARK    6  A    between atoms: C7_12  and  N2_13
REMARK    7  A    between atoms: C10_16  and  N3_17
REMARK    8  A    between atoms: C13_24  and  O2_25
REMARK    9  A    between atoms: O2_25  and  C14_26
REMARK   10  A    between atoms: C15_27  and  N4_28
REMARK   11  A    between atoms: C17_33  and  N5_34
REMARK   12  A    between atoms: C19_39  and  N6_40
ROOT
HETATM    1  C3  UNL     1       6.750  52.303  -5.154  1.00  0.00     0.163 C
HETATM    2  C4  UNL     1       6.412  51.516  -3.893  1.00  0.00     0.069 C
HETATM    3  C5  UNL     1       5.625  50.303  -4.348  1.00  0.00     0.204 C
HETATM    4  C6  UNL     1       4.187  50.749  -4.492  1.00  0.00     0.118 C
HETATM    5  S1  UNL     1       4.149  51.868  -5.941  1.00  0.00    -0.122 SA
HETATM    6  C13 UNL     1       5.548  52.998  -5.715  1.00  0.00     0.213 C
ENDROOT
BRANCH   6   7
HETATM    7  O2  UNL     1       5.898  53.699  -6.833  1.00  0.00    -0.363 OA
BRANCH   7   8
HETATM    8  C14 UNL     1       4.811  54.165  -7.565  1.00  0.00     0.184 C
HETATM    9  C15 UNL     1       5.181  54.023  -9.027  1.00  0.00     0.216 C
HETATM   10  C16 UNL     1       6.433  54.849  -9.239  1.00  0.00     0.068 C
HETATM   11  C17 UNL     1       6.024  56.299  -9.118  1.00  0.00     0.187 C
HETATM   12  C18 UNL     1       5.424  56.606  -7.780  1.00  0.00     0.068 C
HETATM   13  C19 UNL     1       4.467  55.585  -7.274  1.00  0.00     0.216 C
BRANCH   9  14
HETATM   14  N4  UNL     1       5.533  52.636  -9.267  1.00  0.00    -0.072 N
ATOM     15  H43 UNL     1       6.505  52.520  -9.555  1.00  0.00     0.274 HD
ATOM     16  H42 UNL     1       5.579  52.086  -8.409  1.00  0.00     0.274 HD
ATOM     17  H41 UNL     1       4.872  52.256  -9.945  1.00  0.00     0.274 HD
ENDBRANCH   9  14
BRANCH  11  18
HETATM   18  N5  UNL     1       5.203  56.686 -10.225  1.00  0.00    -0.075 N
ATOM     19  H53 UNL     1       4.357  57.169  -9.918  1.00  0.00     0.274 HD
ATOM     20  H52 UNL     1       5.624  57.444 -10.762  1.00  0.00     0.274 HD
ATOM     21  H51 UNL     1       4.987  55.881 -10.811  1.00  0.00     0.274 HD
ENDBRANCH  11  18
BRANCH  13  22
HETATM   22  N6  UNL     1       3.097  55.853  -7.691  1.00  0.00    -0.072 N
ATOM     23  H63 UNL     1       2.676  55.054  -8.164  1.00  0.00     0.274 HD
ATOM     24  H62 UNL     1       2.458  55.909  -6.897  1.00  0.00     0.274 HD
ATOM     25  H61 UNL     1       3.071  56.696  -8.265  1.00  0.00     0.274 HD
ENDBRANCH  13  22
ENDBRANCH   7   8
ENDBRANCH   6   7
BRANCH   1  26
HETATM   26  O1  UNL     1       7.327  51.383  -6.017  1.00  0.00    -0.367 OA
BRANCH  26  27
HETATM   27  C2  UNL     1       8.253  51.906  -6.884  1.00  0.00     0.218 C
HETATM   28  C1  UNL     1       9.558  52.262  -6.179  1.00  0.00     0.051 C
BRANCH  27  29
HETATM   29  C20 UNL     1       8.602  50.899  -7.903  1.00  0.00     0.202 C
HETATM   30  O3  UNL     1       7.974  50.846  -8.980  1.00  0.00    -0.646 OA
HETATM   31  O4  UNL     1       9.624  50.010  -7.670  1.00  0.00    -0.646 OA
ENDBRANCH  27  29
ENDBRANCH  26  27
ENDBRANCH   1  26
BRANCH   4  32
HETATM   32  C7  UNL     1       3.256  49.575  -4.703  1.00  0.00     0.080 C
BRANCH  32  33
HETATM   33  N2  UNL     1       2.236  49.628  -3.750  1.00  0.00    -0.373 N
HETATM   34  C8  UNL     1       2.222  48.737  -2.666  1.00  0.00     0.129 C
HETATM   35  C9  UNL     1       0.819  48.596  -2.067  1.00  0.00     0.053 C
HETATM   36  C10 UNL     1       0.333  49.932  -1.626  1.00  0.00     0.189 C
HETATM   37  C11 UNL     1       0.587  50.982  -2.643  1.00  0.00     0.077 C
HETATM   38  C12 UNL     1       1.153  50.499  -3.950  1.00  0.00     0.065 C
BRANCH  36  39
HETATM   39  N3  UNL     1      -1.097  49.844  -1.349  1.00  0.00    -0.075 N
ATOM     40  H33 UNL     1      -1.326  50.109  -0.391  1.00  0.00     0.274 HD
ATOM     41  H32 UNL     1      -1.632  50.569  -1.828  1.00  0.00     0.274 HD
ATOM     42  H31 UNL     1      -1.419  48.904  -1.582  1.00  0.00     0.274 HD
ENDBRANCH  36  39
ENDBRANCH  32  33
ENDBRANCH   4  32
BRANCH   3  43
HETATM   43  N1  UNL     1       5.756  49.182  -3.446  1.00  0.00    -0.073 N
ATOM     44  H13 UNL     1       5.841  48.306  -3.960  1.00  0.00     0.274 HD
ATOM     45  H12 UNL     1       6.665  49.190  -2.981  1.00  0.00     0.274 HD
ATOM     46  H11 UNL     1       4.998  49.135  -2.765  1.00  0.00     0.274 HD
ENDBRANCH   3  43
TORSDOF 12
ENDMDL