MODEL 2
REMARK VINA RESULT: -6.284346751      1.993      3.148
REMARK  10 active torsions:
REMARK  status: ('A' for Active; 'I' for Inactive)
REMARK    1  A    between atoms: C2_2  and  C3_3
REMARK    2  A    between atoms: C5_8  and  N2_9
REMARK    3  A    between atoms: C7_14  and  O1_15
REMARK    4  A    between atoms: O1_15  and  C8_16
REMARK    5  A    between atoms: C9_17  and  N3_18
REMARK    6  A    between atoms: C11_23  and  O2_24
REMARK    7  A    between atoms: O2_24  and  C12_25
REMARK    8  A    between atoms: C16_29  and  C17_30
REMARK    9  A    between atoms: C17_30  and  N4_31
REMARK   10  A    between atoms: C19_38  and  N5_39
ROOT
HETATM    1  C8  UNL     1       5.794  49.715  -6.519  1.00  0.00     0.182 C
HETATM    2  C9  UNL     1       4.505  50.491  -6.344  1.00  0.00     0.217 C
HETATM    3  C10 UNL     1       3.401  49.676  -5.721  1.00  0.00     0.075 C
HETATM    4  C11 UNL     1       3.779  49.463  -4.261  1.00  0.00     0.198 C
HETATM    5  C18 UNL     1       5.222  49.153  -4.201  1.00  0.00     0.180 C
HETATM    6  O4  UNL     1       5.813  49.294  -3.151  1.00  0.00    -0.293 OA
HETATM    7  C19 UNL     1       5.955  48.675  -5.401  1.00  0.00     0.187 C
ENDROOT
BRANCH   1   8
HETATM    8  O1  UNL     1       6.815  50.637  -6.501  1.00  0.00    -0.376 OA
BRANCH   8   9
HETATM    9  C7  UNL     1       7.406  50.889  -7.711  1.00  0.00     0.125 C
HETATM   10  C6  UNL     1       7.535  52.321  -8.081  1.00  0.00     0.064 C
HETATM   11  C5  UNL     1       8.741  52.998  -7.469  1.00  0.00     0.187 C
HETATM   12  C4  UNL     1       9.966  52.397  -8.085  1.00  0.00     0.047 C
HETATM   13  C2  UNL     1       9.826  50.945  -8.425  1.00  0.00    -0.008 C
HETATM   14  C1  UNL     1       9.714  50.765  -9.938  1.00  0.00     0.021 C
HETATM   15  C21 UNL     1       8.764  50.230  -7.682  1.00  0.00     0.046 C
BRANCH  11  16
HETATM   16  N2  UNL     1       8.677  54.402  -7.861  1.00  0.00    -0.075 N
ATOM     17  H23 UNL     1       9.533  54.911  -7.639  1.00  0.00     0.274 HD
ATOM     18  H22 UNL     1       8.699  54.530  -8.872  1.00  0.00     0.274 HD
ATOM     19  H21 UNL     1       7.851  54.815  -7.429  1.00  0.00     0.274 HD
ENDBRANCH  11  16
BRANCH  13  20
HETATM   20  C3  UNL     1      11.140  50.306  -8.034  1.00  0.00     0.062 C
HETATM   21  N1  UNL     1      11.141  49.015  -8.025  1.00  0.00    -0.410 N
ATOM     22  H12 UNL     1      10.308  48.479  -8.267  1.00  0.00     0.155 HD
ATOM     23  H11 UNL     1      12.027  48.584  -7.762  1.00  0.00     0.155 HD
ENDBRANCH  13  20
ENDBRANCH   8   9
ENDBRANCH   1   8
BRANCH   2  24
HETATM   24  N3  UNL     1       4.134  51.003  -7.652  1.00  0.00    -0.072 N
ATOM     25  H33 UNL     1       4.912  51.015  -8.311  1.00  0.00     0.274 HD
ATOM     26  H32 UNL     1       3.529  50.368  -8.173  1.00  0.00     0.274 HD
ATOM     27  H31 UNL     1       3.718  51.923  -7.507  1.00  0.00     0.274 HD
ENDBRANCH   2  24
BRANCH   7  28
HETATM   28  N5  UNL     1       5.357  47.416  -5.790  1.00  0.00    -0.353 N
HETATM   29  C20 UNL     1       5.985  46.340  -5.991  1.00  0.00     0.197 C
HETATM   30  N6  UNL     1       5.295  45.168  -6.370  1.00  0.00    -0.067 NA
HETATM   31  N7  UNL     1       7.387  46.287  -5.844  1.00  0.00    -0.067 NA
ATOM     32  H5  UNL     1       4.345  47.396  -5.912  1.00  0.00     0.162 HD
ENDBRANCH   7  28
BRANCH   4  33
HETATM   33  O2  UNL     1       3.075  48.431  -3.688  1.00  0.00    -0.348 OA
BRANCH  33  34
HETATM   34  C12 UNL     1       1.822  48.799  -3.202  1.00  0.00     0.261 C
HETATM   35  C13 UNL     1       1.601  48.087  -1.909  1.00  0.00     0.061 C
HETATM   36  C14 UNL     1       0.461  48.591  -1.088  1.00  0.00     0.007 C
HETATM   37  C15 UNL     1       0.387  50.087  -1.111  1.00  0.00     0.034 C
HETATM   38  C16 UNL     1       0.511  50.602  -2.548  1.00  0.00     0.150 C
HETATM   39  O3  UNL     1       1.643  50.157  -3.174  1.00  0.00    -0.354 OA
BRANCH  38  40
HETATM   40  C17 UNL     1      -0.701  50.073  -3.283  1.00  0.00     0.261 C
BRANCH  40  41
HETATM   41  N4  UNL     1      -0.684  50.426  -4.683  1.00  0.00    -0.077 N
ATOM     42  H43 UNL     1       0.242  50.289  -5.087  1.00  0.00     0.274 HD
ATOM     43  H42 UNL     1      -1.205  49.749  -5.240  1.00  0.00     0.274 HD
ATOM     44  H41 UNL     1      -1.021  51.374  -4.844  1.00  0.00     0.274 HD
ENDBRANCH  40  41
ENDBRANCH  38  40
ENDBRANCH  33  34
ENDBRANCH   4  33
TORSDOF 10
ENDMDL