MODEL 5
REMARK VINA RESULT: -6.555905167      3.895      8.884
REMARK  13 active torsions:
REMARK  status: ('A' for Active; 'I' for Inactive)
REMARK    1  A    between atoms: C2_2  and  C3_3
REMARK    2  A    between atoms: C3_3  and  C4_4
REMARK    3  A    between atoms: C10_10  and  O1_11
REMARK    4  A    between atoms: C11_13  and  O2_14
REMARK    5  A    between atoms: O2_14  and  C12_15
REMARK    6  A    between atoms: C14_18  and  O4_19
REMARK    7  A    between atoms: O4_19  and  C15_20
REMARK    8  A    between atoms: C17_23  and  O6_24
REMARK    9  A    between atoms: C17_23  and  C18_26
REMARK   10  A    between atoms: C18_26  and  O7_27
REMARK   11  A    between atoms: C19_29  and  O8_30
REMARK   12  A    between atoms: C20_32  and  O9_33
REMARK   13  A    between atoms: C21_35  and  O10_36
ROOT
HETATM    1  C12 UNL     1       4.901  50.037  -5.677  1.00  0.00     0.179 C
HETATM    2  C13 UNL     1       4.958  50.585  -4.279  1.00  0.00     0.205 C
HETATM    3  O3  UNL     1       3.941  50.051  -3.534  1.00  0.00    -0.356 OA
HETATM    4  C14 UNL     1       3.270  49.118  -4.309  1.00  0.00     0.294 C
HETATM    5  C20 UNL     1       3.471  49.529  -5.744  1.00  0.00     0.204 C
ENDROOT
BRANCH   1   6
HETATM    6  O2  UNL     1       5.168  51.005  -6.641  1.00  0.00    -0.370 OA
BRANCH   6   7
HETATM    7  C11 UNL     1       5.810  50.379  -7.701  1.00  0.00     0.180 C
HETATM    8  C10 UNL     1       7.156  51.054  -7.995  1.00  0.00     0.154 C
HETATM    9  C9  UNL     1       7.248  51.134  -9.475  1.00  0.00     0.028 C
HETATM   10  C7  UNL     1       7.953  52.338 -10.012  1.00  0.00    -0.012 C
HETATM   11  C22 UNL     1       5.795  51.262  -9.960  1.00  0.00     0.028 C
HETATM   12  C6  UNL     1       7.784  52.322 -11.514  1.00  0.00     0.005 C
HETATM   13  C8  UNL     1       9.359  52.503  -9.554  1.00  0.00     0.010 C
HETATM   14  C5  UNL     1       7.098  51.091 -12.012  1.00  0.00     0.006 C
HETATM   15  C4  UNL     1       5.789  50.779 -11.368  1.00  0.00    -0.004 C
HETATM   16  C21 UNL     1       5.029  50.441  -8.989  1.00  0.00     0.154 C
BRANCH   8  17
HETATM   17  O1  UNL     1       8.158  50.239  -7.520  1.00  0.00    -0.392 OA
ATOM     18  H1  UNL     1       8.255  50.374  -6.585  1.00  0.00     0.210 HD
ENDBRANCH   8  17
BRANCH  15  19
HETATM   19  C3  UNL     1       4.593  51.281 -12.143  1.00  0.00     0.031 C
BRANCH  19  20
HETATM   20  C2  UNL     1       3.600  50.203 -12.368  1.00  0.00    -0.037 C
HETATM   21  C1  UNL     1       3.898  48.925 -12.178  1.00  0.00     0.007 C
ENDBRANCH  19  20
ENDBRANCH  15  19
BRANCH  16  22
HETATM   22  O10 UNL     1       3.836  51.139  -8.689  1.00  0.00    -0.392 OA
ATOM     23  H10 UNL     1       3.141  50.678  -9.146  1.00  0.00     0.210 HD
ENDBRANCH  16  22
ENDBRANCH   6   7
ENDBRANCH   1   6
BRANCH   5  24
HETATM   24  O9  UNL     1       2.677  50.617  -6.095  1.00  0.00    -0.388 OA
ATOM     25  H9  UNL     1       1.927  50.267  -6.561  1.00  0.00     0.210 HD
ENDBRANCH   5  24
BRANCH   4  26
HETATM   26  O4  UNL     1       1.986  48.884  -3.932  1.00  0.00    -0.326 OA
BRANCH  26  27
HETATM   27  C15 UNL     1       1.674  49.225  -2.638  1.00  0.00     0.294 C
HETATM   28  O5  UNL     1       0.979  48.299  -1.914  1.00  0.00    -0.355 OA
HETATM   29  C16 UNL     1       0.173  48.979  -1.008  1.00  0.00     0.213 C
HETATM   30  C17 UNL     1      -0.335  50.146  -1.797  1.00  0.00     0.130 C
HETATM   31  C19 UNL     1       0.820  50.482  -2.696  1.00  0.00     0.212 C
BRANCH  30  32
HETATM   32  O6  UNL     1      -0.616  51.199  -0.931  1.00  0.00    -0.383 OA
ATOM     33  H6  UNL     1      -0.567  52.019  -1.407  1.00  0.00     0.210 HD
ENDBRANCH  30  32
BRANCH  30  34
HETATM   34  C18 UNL     1      -1.572  49.761  -2.584  1.00  0.00     0.207 C
BRANCH  34  35
HETATM   35  O7  UNL     1      -2.585  49.401  -1.684  1.00  0.00    -0.398 OA
ATOM     36  H7  UNL     1      -3.288  48.984  -2.166  1.00  0.00     0.209 HD
ENDBRANCH  34  35
ENDBRANCH  30  34
BRANCH  31  37
HETATM   37  O8  UNL     1       0.291  50.647  -3.993  1.00  0.00    -0.387 OA
ATOM     38  H8  UNL     1      -0.353  51.346  -3.995  1.00  0.00     0.210 HD
ENDBRANCH  31  37
ENDBRANCH  26  27
ENDBRANCH   4  26
TORSDOF 13
ENDMDL