MODEL 3
REMARK VINA RESULT: -6.020000628      2.725      4.824
REMARK  10 active torsions:
REMARK  status: ('A' for Active; 'I' for Inactive)
REMARK       I    between atoms: C2_2  and  N1_4
REMARK    1  A    between atoms: N1_4  and  C3_6
REMARK    2  A    between atoms: C6_10  and  O3_11
REMARK    3  A    between atoms: O3_11  and  C7_12
REMARK    4  A    between atoms: C8_14  and  C9_15
REMARK    5  A    between atoms: C11_18  and  O5_19
REMARK    6  A    between atoms: C12_21  and  N2_22
REMARK       I    between atoms: N2_22  and  C13_24
REMARK    7  A    between atoms: C15_28  and  N3_29
REMARK    8  A    between atoms: N3_29  and  C16_31
REMARK    9  A    between atoms: C16_31  and  N4_33
REMARK   10  A    between atoms: N4_33  and  O8_35
ROOT
HETATM    1  C3  UNL     1       4.778  49.691  -4.669  1.00  0.00     0.162 C
HETATM    2  C4  UNL     1       5.755  50.831  -4.388  1.00  0.00     0.150 C
HETATM    3  C5  UNL     1       6.500  50.495  -3.123  1.00  0.00     0.042 C
HETATM    4  O2  UNL     1       6.675  50.951  -5.419  1.00  0.00    -0.332 OA
HETATM    5  C6  UNL     1       6.170  51.077  -6.673  1.00  0.00     0.417 C
HETATM    6  O7  UNL     1       4.941  50.493  -6.851  1.00  0.00    -0.312 OA
HETATM    7  C15 UNL     1       4.836  49.328  -6.139  1.00  0.00     0.253 C
ENDROOT
BRANCH   5   8
HETATM    8  O3  UNL     1       6.017  52.439  -6.980  1.00  0.00    -0.306 OA
BRANCH   8   9
HETATM    9  C7  UNL     1       7.208  53.144  -6.978  1.00  0.00     0.290 C
HETATM   10  O4  UNL     1       7.660  53.449  -8.241  1.00  0.00    -0.353 OA
HETATM   11  C8  UNL     1       7.276  54.608  -8.808  1.00  0.00     0.137 C
HETATM   12  C10 UNL     1       7.234  55.817  -7.942  1.00  0.00     0.067 C
HETATM   13  C11 UNL     1       6.520  55.527  -6.641  1.00  0.00     0.148 C
HETATM   14  C12 UNL     1       7.225  54.330  -6.047  1.00  0.00     0.168 C
BRANCH  11  15
HETATM   15  C9  UNL     1       5.967  54.509  -9.592  1.00  0.00     0.118 C
HETATM   16  S1  UNL     1       5.980  52.990 -10.618  1.00  0.00    -0.095 SA
ENDBRANCH  11  15
BRANCH  13  17
HETATM   17  O5  UNL     1       5.178  55.362  -6.812  1.00  0.00    -0.393 OA
ATOM     18  H5  UNL     1       4.670  55.835  -6.163  1.00  0.00     0.210 HD
ENDBRANCH  13  17
BRANCH  14  19
HETATM   19  N2  UNL     1       6.802  54.010  -4.738  1.00  0.00    -0.349 N
HETATM   20  C13 UNL     1       7.624  54.256  -3.614  1.00  0.00     0.214 C
HETATM   21  C14 UNL     1       7.214  53.933  -2.225  1.00  0.00     0.117 C
HETATM   22  O6  UNL     1       8.785  54.780  -3.745  1.00  0.00    -0.274 OA
ATOM     23  H2  UNL     1       5.881  53.592  -4.600  1.00  0.00     0.163 HD
ENDBRANCH  14  19
ENDBRANCH   8   9
ENDBRANCH   5   8
BRANCH   7  24
HETATM   24  N3  UNL     1       5.835  48.373  -6.469  1.00  0.00    -0.337 N
ATOM     25  H3  UNL     1       6.516  48.635  -7.182  1.00  0.00     0.164 HD
BRANCH  24  26
HETATM   26  C16 UNL     1       5.963  47.090  -5.891  1.00  0.00     0.193 C
HETATM   27  S2  UNL     1       5.893  46.934  -4.271  1.00  0.00    -0.039 SA
BRANCH  26  28
HETATM   28  N4  UNL     1       6.134  45.915  -6.681  1.00  0.00    -0.244 N
ATOM     29  H4  UNL     1       5.430  45.650  -7.369  1.00  0.00     0.196 HD
BRANCH  28  30
HETATM   30  O8  UNL     1       7.231  45.161  -6.510  1.00  0.00    -0.288 OA
ATOM     31  H8  UNL     1       8.018  45.364  -7.001  1.00  0.00     0.244 HD
ENDBRANCH  28  30
ENDBRANCH  26  28
ENDBRANCH  24  26
ENDBRANCH   7  24
BRANCH   1  32
HETATM   32  N1  UNL     1       3.469  50.166  -4.286  1.00  0.00    -0.350 N
HETATM   33  C2  UNL     1       2.507  49.350  -3.630  1.00  0.00     0.214 C
HETATM   34  C1  UNL     1       1.164  49.859  -3.246  1.00  0.00     0.117 C
HETATM   35  O1  UNL     1       2.806  48.172  -3.372  1.00  0.00    -0.274 OA
ATOM     36  H1  UNL     1       3.223  51.133  -4.496  1.00  0.00     0.163 HD
ENDBRANCH   1  32
TORSDOF 10
ENDMDL