MODEL 1
REMARK VINA RESULT: -8.663004777      0.000      0.000
REMARK  13 active torsions:
REMARK  status: ('A' for Active; 'I' for Inactive)
REMARK    1  A    between atoms: N1_1  and  C1_5
REMARK    2  A    between atoms: C2_6  and  O1_7
REMARK    3  A    between atoms: C3_9  and  O2_10
REMARK    4  A    between atoms: C4_12  and  C5_13
REMARK    5  A    between atoms: C5_13  and  O3_14
REMARK    6  A    between atoms: O3_14  and  C6_15
REMARK    7  A    between atoms: C8_18  and  O5_19
REMARK    8  A    between atoms: C9_21  and  O6_22
REMARK    9  A    between atoms: C10_24  and  O7_25
REMARK   10  A    between atoms: C13_29  and  C14_30
REMARK   11  A    between atoms: C14_30  and  C15_31
REMARK   12  A    between atoms: C15_31  and  C16_32
REMARK   13  A    between atoms: C16_32  and  C17_33
ROOT
HETATM    1  C1  UNL     1       5.108  51.418  -7.455  1.00  0.00     0.220 C
HETATM    2  C2  UNL     1       3.926  50.847  -8.167  1.00  0.00     0.181 C
HETATM    3  C3  UNL     1       2.605  51.496  -7.722  1.00  0.00     0.179 C
HETATM    4  C4  UNL     1       2.068  50.704  -6.603  1.00  0.00    -0.027 C
HETATM    5  C11 UNL     1       2.801  50.961  -5.295  1.00  0.00     0.045 C
HETATM    6  C12 UNL     1       4.182  50.321  -5.402  1.00  0.00     0.010 C
HETATM    7  C13 UNL     1       4.546  49.897  -4.006  1.00  0.00     0.052 C
HETATM    8  S1  UNL     1       6.250  50.554  -3.801  1.00  0.00    -0.163 SA
HETATM    9  C18 UNL     1       6.532  50.933  -5.551  1.00  0.00     0.081 C
HETATM   10  C19 UNL     1       5.121  51.272  -5.972  1.00  0.00     0.033 C
ENDROOT
BRANCH   4  11
HETATM   11  C5  UNL     1       0.608  50.560  -6.417  1.00  0.00     0.143 C
BRANCH  11  12
HETATM   12  O3  UNL     1      -0.051  50.905  -5.332  1.00  0.00    -0.329 OA
BRANCH  12  13
HETATM   13  C6  UNL     1      -0.047  50.350  -4.135  1.00  0.00     0.296 C
HETATM   14  O4  UNL     1       0.783  51.076  -3.211  1.00  0.00    -0.356 OA
HETATM   15  C7  UNL     1       0.558  50.619  -1.943  1.00  0.00     0.205 C
HETATM   16  C8  UNL     1      -0.080  49.264  -1.832  1.00  0.00     0.173 C
HETATM   17  C9  UNL     1      -1.442  49.228  -2.508  1.00  0.00     0.182 C
HETATM   18  C10 UNL     1      -1.439  50.362  -3.521  1.00  0.00     0.205 C
BRANCH  16  19
HETATM   19  O5  UNL     1      -0.311  49.031  -0.470  1.00  0.00    -0.391 OA
ATOM     20  H5  UNL     1      -0.759  49.797  -0.130  1.00  0.00     0.210 HD
ENDBRANCH  16  19
BRANCH  17  21
HETATM   21  O6  UNL     1      -2.436  49.523  -1.577  1.00  0.00    -0.390 OA
ATOM     22  H6  UNL     1      -2.464  50.460  -1.426  1.00  0.00     0.210 HD
ENDBRANCH  17  21
BRANCH  18  23
HETATM   23  O7  UNL     1      -2.389  50.153  -4.462  1.00  0.00    -0.388 OA
ATOM     24  H7  UNL     1      -3.155  49.735  -4.088  1.00  0.00     0.210 HD
ENDBRANCH  18  23
ENDBRANCH  12  13
ENDBRANCH  11  12
ENDBRANCH   4  11
BRANCH   3  25
HETATM   25  O2  UNL     1       2.838  52.827  -7.541  1.00  0.00    -0.388 OA
ATOM     26  H2  UNL     1       3.629  53.049  -8.019  1.00  0.00     0.210 HD
ENDBRANCH   3  25
BRANCH   2  27
HETATM   27  O1  UNL     1       4.073  51.145  -9.520  1.00  0.00    -0.391 OA
ATOM     28  H1  UNL     1       3.838  52.058  -9.636  1.00  0.00     0.210 HD
ENDBRANCH   2  27
BRANCH   1  29
HETATM   29  N1  UNL     1       6.289  50.757  -8.017  1.00  0.00    -0.072 N
ATOM     30  H13 UNL     1       6.427  49.809  -7.667  1.00  0.00     0.274 HD
ATOM     31  H12 UNL     1       6.185  50.513  -9.002  1.00  0.00     0.274 HD
ATOM     32  H11 UNL     1       7.079  51.375  -7.834  1.00  0.00     0.274 HD
ENDBRANCH   1  29
BRANCH   7  33
HETATM   33  C14 UNL     1       4.598  48.394  -3.991  1.00  0.00     0.016 C
BRANCH  33  34
HETATM   34  C15 UNL     1       5.853  47.741  -4.394  1.00  0.00     0.012 C
BRANCH  34  35
HETATM   35  C16 UNL     1       5.841  46.876  -5.607  1.00  0.00     0.113 C
BRANCH  35  36
HETATM   36  C17 UNL     1       6.634  45.621  -5.392  1.00  0.00     0.172 C
HETATM   37  O8  UNL     1       6.662  45.112  -4.260  1.00  0.00    -0.648 OA
HETATM   38  O9  UNL     1       7.319  45.044  -6.433  1.00  0.00    -0.648 OA
ENDBRANCH  35  36
ENDBRANCH  34  35
ENDBRANCH  33  34
ENDBRANCH   7  33
TORSDOF 13
ENDMDL