MODEL 2
REMARK VINA RESULT: -6.213842938      1.391      1.803
REMARK  11 active torsions:
REMARK  status: ('A' for Active; 'I' for Inactive)
REMARK    1  A    between atoms: C2_2  and  N1_3
REMARK    2  A    between atoms: N1_3  and  C3_6
REMARK    3  A    between atoms: C3_6  and  C4_7
REMARK       I    between atoms: C4_7  and  N2_9
REMARK    4  A    between atoms: N2_9  and  C5_11
REMARK    5  A    between atoms: C6_12  and  N3_13
REMARK    6  A    between atoms: C13_24  and  O3_25
REMARK    7  A    between atoms: O3_25  and  C14_26
REMARK    8  A    between atoms: C15_28  and  C16_29
REMARK    9  A    between atoms: C16_29  and  O5_30
REMARK   10  A    between atoms: C17_32  and  O6_33
REMARK   11  A    between atoms: C20_37  and  O7_38
ROOT
HETATM    1  C5  UNL     1       6.380  52.648  -6.135  1.00  0.00     0.146 C
HETATM    2  C6  UNL     1       7.379  53.549  -5.491  1.00  0.00     0.208 C
HETATM    3  C7  UNL     1       7.586  53.205  -4.015  1.00  0.00     0.037 C
HETATM    4  C8  UNL     1       7.626  51.699  -3.943  1.00  0.00     0.037 C
HETATM    5  C9  UNL     1       6.205  51.193  -4.109  1.00  0.00     0.154 C
HETATM    6  O2  UNL     1       6.291  49.862  -4.418  1.00  0.00    -0.368 OA
HETATM    7  C10 UNL     1       5.121  49.260  -4.811  1.00  0.00     0.104 C
HETATM    8  C11 UNL     1       5.525  47.990  -5.555  1.00  0.00     0.051 C
HETATM    9  C12 UNL     1       4.459  48.788  -3.516  1.00  0.00     0.051 C
HETATM   10  C13 UNL     1       4.184  50.081  -5.580  1.00  0.00     0.297 C
HETATM   11  O8  UNL     1       4.425  51.417  -5.729  1.00  0.00    -0.348 OA
HETATM   12  C21 UNL     1       5.438  52.017  -5.093  1.00  0.00     0.178 C
ENDROOT
BRANCH  10  13
HETATM   13  O3  UNL     1       2.903  49.953  -5.065  1.00  0.00    -0.326 OA
BRANCH  13  14
HETATM   14  C14 UNL     1       2.190  51.105  -4.911  1.00  0.00     0.292 C
HETATM   15  O4  UNL     1       1.745  51.264  -3.589  1.00  0.00    -0.349 OA
HETATM   16  C15 UNL     1       0.727  50.431  -3.213  1.00  0.00     0.177 C
HETATM   17  C17 UNL     1      -0.477  50.453  -4.119  1.00  0.00     0.155 C
HETATM   18  C18 UNL     1       0.018  50.143  -5.530  1.00  0.00     0.046 C
HETATM   19  C19 UNL     1      -1.086  50.123  -6.547  1.00  0.00     0.015 C
HETATM   20  C20 UNL     1       1.008  51.272  -5.824  1.00  0.00     0.179 C
BRANCH  16  21
HETATM   21  C16 UNL     1       1.158  49.042  -2.816  1.00  0.00     0.198 C
BRANCH  21  22
HETATM   22  O5  UNL     1       0.371  48.614  -1.737  1.00  0.00    -0.398 OA
ATOM     23  H5  UNL     1       0.912  48.582  -0.956  1.00  0.00     0.209 HD
ENDBRANCH  21  22
ENDBRANCH  16  21
BRANCH  17  24
HETATM   24  O6  UNL     1      -1.478  49.628  -3.705  1.00  0.00    -0.392 OA
ATOM     25  H6  UNL     1      -1.858  49.887  -2.873  1.00  0.00     0.210 HD
ENDBRANCH  17  24
BRANCH  20  26
HETATM   26  O7  UNL     1       1.284  51.455  -7.139  1.00  0.00    -0.390 OA
ATOM     27  H7  UNL     1       0.538  51.493  -7.725  1.00  0.00     0.210 HD
ENDBRANCH  20  26
ENDBRANCH  13  14
ENDBRANCH  10  13
BRANCH   1  28
HETATM   28  N2  UNL     1       5.590  53.420  -7.069  1.00  0.00    -0.350 N
HETATM   29  C4  UNL     1       5.258  52.932  -8.366  1.00  0.00     0.243 C
HETATM   30  O1  UNL     1       5.670  51.792  -8.693  1.00  0.00    -0.272 OA
ATOM     31  H2  UNL     1       5.260  54.344  -6.790  1.00  0.00     0.163 HD
BRANCH  29  32
HETATM   32  C3  UNL     1       4.457  53.690  -9.350  1.00  0.00     0.334 C
BRANCH  32  33
HETATM   33  N1  UNL     1       3.041  53.450  -9.143  1.00  0.00    -0.067 N
ATOM     34  H12 UNL     1       2.591  54.281  -8.758  1.00  0.00     0.277 HD
ATOM     35  H11 UNL     1       2.898  52.802  -8.369  1.00  0.00     0.277 HD
BRANCH  33  36
HETATM   36  C2  UNL     1       2.348  52.999 -10.309  1.00  0.00     0.228 C
HETATM   37  C1  UNL     1       2.422  51.522 -10.523  1.00  0.00     0.034 C
ENDBRANCH  33  36
ENDBRANCH  32  33
ENDBRANCH  29  32
ENDBRANCH   1  28
BRANCH   2  38
HETATM   38  N3  UNL     1       8.686  53.509  -6.119  1.00  0.00    -0.073 N
ATOM     39  H33 UNL     1       9.377  53.988  -5.542  1.00  0.00     0.274 HD
ATOM     40  H32 UNL     1       9.069  52.564  -6.094  1.00  0.00     0.274 HD
ATOM     41  H31 UNL     1       8.694  53.876  -7.070  1.00  0.00     0.274 HD
ENDBRANCH   2  38
TORSDOF 11
ENDMDL