MODEL 3
REMARK VINA RESULT: -5.564853299      1.766      3.022
REMARK  12 active torsions:
REMARK  status: ('A' for Active; 'I' for Inactive)
REMARK    1  A    between atoms: O1_2  and  C2_3
REMARK    2  A    between atoms: C4_5  and  C5_6
REMARK       I    between atoms: C5_6  and  N1_8
REMARK    3  A    between atoms: N1_8  and  C6_10
REMARK    4  A    between atoms: C11_15  and  O3_16
REMARK    5  A    between atoms: O3_16  and  C12_17
REMARK    6  A    between atoms: C13_19  and  C14_20
REMARK    7  A    between atoms: C14_20  and  O5_21
REMARK    8  A    between atoms: C15_23  and  O6_24
REMARK    9  A    between atoms: C17_27  and  N2_28
REMARK   10  A    between atoms: C18_33  and  C19_34
REMARK   11  A    between atoms: C19_34  and  O8_35
REMARK   12  A    between atoms: C20_37  and  O9_38
ROOT
HETATM    1  C6  UNL     1       7.648  51.261  -8.616  1.00  0.00     0.113 C
HETATM    2  C7  UNL     1       9.044  50.770  -9.035  1.00  0.00     0.028 C
HETATM    3  C8  UNL     1       9.581  51.602 -10.169  1.00  0.00     0.002 C
HETATM    4  C9  UNL     1       9.445  53.073  -9.963  1.00  0.00     0.003 C
HETATM    5  C10 UNL     1       8.036  53.426  -9.505  1.00  0.00     0.034 C
HETATM    6  C11 UNL     1       7.852  52.684  -8.180  1.00  0.00     0.147 C
ENDROOT
BRANCH   1   7
HETATM    7  N1  UNL     1       7.116  50.368  -7.661  1.00  0.00    -0.352 N
HETATM    8  C5  UNL     1       5.768  49.949  -7.737  1.00  0.00     0.247 C
HETATM    9  O2  UNL     1       5.031  50.393  -8.684  1.00  0.00    -0.271 OA
ATOM     10  H1  UNL     1       7.711  50.021  -6.908  1.00  0.00     0.163 HD
BRANCH   8  11
HETATM   11  C4  UNL     1       5.116  49.020  -6.798  1.00  0.00     0.216 C
HETATM   12  C3  UNL     1       6.096  48.273  -5.920  1.00  0.00     0.076 C
HETATM   13  C2  UNL     1       5.292  47.776  -4.723  1.00  0.00     0.155 C
HETATM   14  C20 UNL     1       5.004  49.035  -3.897  1.00  0.00     0.178 C
HETATM   15  C18 UNL     1       4.492  50.109  -4.846  1.00  0.00     0.177 C
HETATM   16  O7  UNL     1       4.104  49.613  -6.068  1.00  0.00    -0.366 OA
BRANCH  13  17
HETATM   17  O1  UNL     1       6.011  46.929  -3.914  1.00  0.00    -0.388 OA
HETATM   18  C1  UNL     1       6.504  45.851  -4.664  1.00  0.00     0.202 C
ENDBRANCH  13  17
BRANCH  14  19
HETATM   19  O9  UNL     1       6.209  49.461  -3.295  1.00  0.00    -0.390 OA
ATOM     20  H9  UNL     1       6.758  49.853  -3.964  1.00  0.00     0.210 HD
ENDBRANCH  14  19
BRANCH  15  21
HETATM   21  C19 UNL     1       3.222  50.663  -4.184  1.00  0.00     0.198 C
BRANCH  21  22
HETATM   22  O8  UNL     1       2.546  49.635  -3.566  1.00  0.00    -0.398 OA
ATOM     23  H8  UNL     1       1.895  49.998  -2.976  1.00  0.00     0.209 HD
ENDBRANCH  21  22
ENDBRANCH  15  21
ENDBRANCH   8  11
ENDBRANCH   1   7
BRANCH   6  24
HETATM   24  O3  UNL     1       6.815  53.127  -7.452  1.00  0.00    -0.352 OA
BRANCH  24  25
HETATM   25  C12 UNL     1       7.099  53.627  -6.177  1.00  0.00     0.291 C
HETATM   26  O4  UNL     1       7.076  52.493  -5.383  1.00  0.00    -0.349 OA
HETATM   27  C13 UNL     1       7.686  52.554  -4.178  1.00  0.00     0.177 C
HETATM   28  C15 UNL     1       9.156  52.854  -4.389  1.00  0.00     0.151 C
HETATM   29  C16 UNL     1       9.247  54.221  -4.961  1.00  0.00     0.072 C
HETATM   30  C17 UNL     1       8.274  54.502  -6.068  1.00  0.00     0.240 C
BRANCH  27  31
HETATM   31  C14 UNL     1       7.087  53.463  -3.162  1.00  0.00     0.198 C
BRANCH  31  32
HETATM   32  O5  UNL     1       7.049  52.834  -1.919  1.00  0.00    -0.398 OA
ATOM     33  H5  UNL     1       6.788  53.453  -1.247  1.00  0.00     0.209 HD
ENDBRANCH  31  32
ENDBRANCH  27  31
BRANCH  28  34
HETATM   34  O6  UNL     1       9.784  51.901  -5.150  1.00  0.00    -0.393 OA
ATOM     35  H6  UNL     1       9.870  51.070  -4.696  1.00  0.00     0.210 HD
ENDBRANCH  28  34
BRANCH  30  36
HETATM   36  N2  UNL     1       7.961  55.927  -5.935  1.00  0.00    -0.070 N
ATOM     37  H23 UNL     1       7.013  56.051  -5.582  1.00  0.00     0.274 HD
ATOM     38  H22 UNL     1       8.490  56.336  -5.165  1.00  0.00     0.274 HD
ATOM     39  H21 UNL     1       8.097  56.472  -6.787  1.00  0.00     0.274 HD
ENDBRANCH  30  36
ENDBRANCH  24  25
ENDBRANCH   6  24
TORSDOF 12
ENDMDL