MODEL 2
REMARK VINA RESULT: -6.613256269      1.222      1.752
REMARK  8 active torsions:
REMARK  status: ('A' for Active; 'I' for Inactive)
REMARK    1  A    between atoms: C9_9  and  O1_10
REMARK    2  A    between atoms: C10_12  and  C11_13
REMARK    3  A    between atoms: C11_13  and  O3_15
REMARK    4  A    between atoms: O3_15  and  C12_16
REMARK    5  A    between atoms: C12_16  and  C13_17
REMARK    6  A    between atoms: C13_17  and  C14_18
REMARK    7  A    between atoms: C14_18  and  O4_19
REMARK    8  A    between atoms: C16_22  and  O5_23
ROOT
HETATM    1  C1  UNL     1      25.581  58.945  17.494  1.00  0.00     0.015 C
HETATM    2  C2  UNL     1      24.655  60.148  17.726  1.00  0.00    -0.043 C
HETATM    3  C3  UNL     1      25.156  61.261  16.869  1.00  0.00     0.015 C
HETATM    4  C4  UNL     1      24.781  60.475  19.199  1.00  0.00     0.009 C
HETATM    5  C5  UNL     1      23.901  61.596  19.613  1.00  0.00     0.002 C
HETATM    6  C6  UNL     1      22.664  61.754  18.797  1.00  0.00     0.010 C
HETATM    7  C7  UNL     1      22.199  60.548  18.088  1.00  0.00    -0.032 C
HETATM    8  C8  UNL     1      21.354  59.624  18.976  1.00  0.00     0.043 C
HETATM    9  C9  UNL     1      20.648  58.790  17.927  1.00  0.00     0.139 C
HETATM   10  C10 UNL     1      20.616  59.592  16.663  1.00  0.00     0.100 C
HETATM   11  C15 UNL     1      21.111  60.980  17.092  1.00  0.00     0.035 C
HETATM   12  C16 UNL     1      21.633  59.115  15.644  1.00  0.00     0.139 C
HETATM   13  C17 UNL     1      23.002  59.704  15.927  1.00  0.00     0.039 C
HETATM   14  C18 UNL     1      23.254  59.720  17.440  1.00  0.00     0.004 C
ENDROOT
BRANCH  10  15
HETATM   15  C11 UNL     1      19.250  59.690  16.076  1.00  0.00     0.272 C
HETATM   16  O2  UNL     1      18.759  58.832  15.330  1.00  0.00    -0.264 OA
BRANCH  15  17
HETATM   17  O3  UNL     1      18.503  60.800  16.383  1.00  0.00    -0.321 OA
BRANCH  17  18
HETATM   18  C12 UNL     1      17.144  60.987  16.173  1.00  0.00     0.180 C
BRANCH  18  19
HETATM   19  C13 UNL     1      16.249  60.493  17.266  1.00  0.00     0.053 C
BRANCH  19  20
HETATM   20  C14 UNL     1      15.459  59.281  16.784  1.00  0.00     0.166 C
BRANCH  20  21
HETATM   21  O4  UNL     1      14.184  59.649  16.375  1.00  0.00    -0.401 OA
ATOM     22  H4  UNL     1      13.971  59.261  15.534  1.00  0.00     0.209 HD
ENDBRANCH  20  21
ENDBRANCH  19  20
ENDBRANCH  18  19
ENDBRANCH  17  18
ENDBRANCH  15  17
ENDBRANCH  10  15
BRANCH   9  23
HETATM   23  O1  UNL     1      19.337  58.515  18.370  1.00  0.00    -0.394 OA
ATOM     24  H1  UNL     1      19.309  58.600  19.316  1.00  0.00     0.210 HD
ENDBRANCH   9  23
BRANCH  12  25
HETATM   25  O5  UNL     1      21.263  59.544  14.370  1.00  0.00    -0.394 OA
ATOM     26  H5  UNL     1      21.217  60.493  14.350  1.00  0.00     0.210 HD
ENDBRANCH  12  25
TORSDOF 8
ENDMDL