MODEL 4
REMARK VINA RESULT: -6.315417083      1.166      2.285
REMARK  5 active torsions:
REMARK  status: ('A' for Active; 'I' for Inactive)
REMARK    1  A    between atoms: N1_1  and  C1_4
REMARK    2  A    between atoms: C2_7  and  N3_8
REMARK    3  A    between atoms: C5_11  and  C6_12
REMARK    4  A    between atoms: C6_12  and  C7_13
REMARK    5  A    between atoms: C7_13  and  N4_14
ROOT
HETATM    1  N3  UNL     1      21.748  59.385  17.762  1.00  0.00    -0.365 N
HETATM    2  C3  UNL     1      22.276  60.464  18.589  1.00  0.00     0.125 C
HETATM    3  C4  UNL     1      22.872  61.572  17.777  1.00  0.00     0.024 C
HETATM    4  C5  UNL     1      23.473  61.131  16.470  1.00  0.00    -0.010 C
HETATM    5  C12 UNL     1      23.767  59.623  16.534  1.00  0.00     0.024 C
HETATM    6  C13 UNL     1      22.388  58.941  16.567  1.00  0.00     0.125 C
ENDROOT
BRANCH   1   7
HETATM    7  C2  UNL     1      20.561  58.763  18.224  1.00  0.00     0.147 A
HETATM    8  N2  UNL     1      20.616  57.710  19.099  1.00  0.00    -0.174 N
HETATM    9  C1  UNL     1      19.379  57.306  19.388  1.00  0.00     0.684 A
ATOM     10  H2  UNL     1      21.471  57.299  19.471  1.00  0.00     0.186 HD
HETATM   11  N6  UNL     1      18.510  58.096  18.701  1.00  0.00    -0.155 N
HETATM   12  C14 UNL     1      19.233  58.996  17.982  1.00  0.00     0.100 A
HETATM   13  C18 UNL     1      17.173  58.121  18.627  1.00  0.00     0.115 A
HETATM   14  C15 UNL     1      18.643  59.937  17.180  1.00  0.00     0.034 A
HETATM   15  C16 UNL     1      17.257  59.961  17.108  1.00  0.00     0.004 A
HETATM   16  C17 UNL     1      16.541  59.047  17.837  1.00  0.00     0.018 A
BRANCH   9  17
HETATM   17  N1  UNL     1      19.050  56.350  20.175  1.00  0.00    -0.234 N
ATOM     18  H12 UNL     1      19.122  55.356  19.959  1.00  0.00     0.174 HD
ATOM     19  H11 UNL     1      18.670  56.440  21.118  1.00  0.00     0.174 HD
ENDBRANCH   9  17
ENDBRANCH   1   7
BRANCH   4  20
HETATM   20  C6  UNL     1      24.751  61.883  16.173  1.00  0.00     0.024 C
BRANCH  20  21
HETATM   21  C7  UNL     1      24.780  63.181  16.894  1.00  0.00     0.122 C
BRANCH  21  22
HETATM   22  N4  UNL     1      25.875  63.332  17.818  1.00  0.00    -0.390 N
HETATM   23  C8  UNL     1      25.680  64.290  18.858  1.00  0.00     0.141 C
HETATM   24  C9  UNL     1      25.011  63.533  19.998  1.00  0.00     0.134 C
HETATM   25  N5  UNL     1      25.988  62.607  20.481  1.00  0.00    -0.415 N
HETATM   26  C10 UNL     1      26.463  61.659  19.535  1.00  0.00     0.158 C
ATOM     27  H5  UNL     1      26.322  62.625  21.444  1.00  0.00     0.153 HD
HETATM   28  C11 UNL     1      26.577  62.163  18.132  1.00  0.00     0.077 C
ENDBRANCH  21  22
ENDBRANCH  20  21
ENDBRANCH   4  20
TORSDOF 5
ENDMDL