MODEL 2
REMARK VINA RESULT: -6.962216065      1.732      2.315
REMARK  4 active torsions:
REMARK  status: ('A' for Active; 'I' for Inactive)
REMARK    1  A    between atoms: C5_6  and  C6_7
REMARK    2  A    between atoms: C6_7  and  N2_8
REMARK    3  A    between atoms: N2_8  and  C7_11
REMARK    4  A    between atoms: C14_18  and  N3_19
ROOT
HETATM    1  C7  UNL     1      23.267  60.597  18.276  1.00  0.00     0.213 C
HETATM    2  C8  UNL     1      24.522  60.902  17.517  1.00  0.00     0.018 C
HETATM    3  C9  UNL     1      24.183  61.742  16.305  1.00  0.00     0.007 C
HETATM    4  C10 UNL     1      23.586  60.857  15.244  1.00  0.00     0.007 C
HETATM    5  C11 UNL     1      22.834  59.747  16.019  1.00  0.00     0.011 C
HETATM    6  C12 UNL     1      23.938  58.803  16.469  1.00  0.00     0.007 C
HETATM    7  C13 UNL     1      25.123  59.583  16.994  1.00  0.00     0.007 C
HETATM    8  C14 UNL     1      22.158  60.372  17.230  1.00  0.00     0.134 C
ENDROOT
BRANCH   8   9
HETATM    9  N3  UNL     1      21.099  59.682  17.702  1.00  0.00    -0.219 N
HETATM   10  C15 UNL     1      20.561  58.775  18.278  1.00  0.00     0.679 A
HETATM   11  N4  UNL     1      19.180  58.742  18.365  1.00  0.00    -0.179 N
HETATM   12  N6  UNL     1      21.191  57.727  18.882  1.00  0.00    -0.202 N
HETATM   13  C16 UNL     1      18.496  57.794  18.973  1.00  0.00     0.133 A
ATOM     14  H4  UNL     1      18.657  59.503  17.930  1.00  0.00     0.185 HD
HETATM   15  N5  UNL     1      17.079  57.762  19.058  1.00  0.00    -0.082 NA
HETATM   16  C17 UNL     1      19.161  56.750  19.573  1.00  0.00     0.063 A
HETATM   17  C18 UNL     1      20.535  56.738  19.514  1.00  0.00     0.109 A
ATOM     18  H6  UNL     1      22.210  57.692  18.854  1.00  0.00     0.183 HD
ATOM     19  H3  UNL     1      20.309  60.252  17.397  1.00  0.00     0.178 HD
ENDBRANCH   8   9
BRANCH   1  20
HETATM   20  N2  UNL     1      22.891  61.586  19.228  1.00  0.00    -0.067 N
ATOM     21  H22 UNL     1      22.027  61.321  19.701  1.00  0.00     0.277 HD
ATOM     22  H21 UNL     1      22.575  62.435  18.758  1.00  0.00     0.277 HD
BRANCH  20  23
HETATM   23  C6  UNL     1      23.913  61.886  20.176  1.00  0.00     0.268 C
BRANCH  23  24
HETATM   24  C5  UNL     1      24.210  63.376  20.254  1.00  0.00     0.248 C
HETATM   25  N1  UNL     1      25.467  63.747  19.693  1.00  0.00     0.090 N
HETATM   26  C1  UNL     1      26.124  64.621  20.680  1.00  0.00     0.310 C
HETATM   27  C2  UNL     1      25.212  64.584  18.540  1.00  0.00     0.272 C
HETATM   28  C3  UNL     1      23.848  65.209  18.775  1.00  0.00     0.032 C
HETATM   29  C4  UNL     1      23.118  64.064  19.452  1.00  0.00     0.039 C
ENDBRANCH  23  24
ENDBRANCH  20  23
ENDBRANCH   1  20
TORSDOF 4
ENDMDL