MODEL 1
REMARK VINA RESULT: -6.900277442      0.000      0.000
REMARK  5 active torsions:
REMARK  status: ('A' for Active; 'I' for Inactive)
REMARK    1  A    between atoms: O1_2  and  C2_3
REMARK    2  A    between atoms: C10_14  and  C11_15
REMARK    3  A    between atoms: C12_16  and  O3_17
REMARK    4  A    between atoms: O3_17  and  C13_18
REMARK    5  A    between atoms: C15_21  and  O5_22
ROOT
HETATM    1  C2  UNL     1      12.428  62.807  23.596  1.00  0.00     0.146 C
HETATM    2  C3  UNL     1      11.321  62.346  24.492  1.00  0.00    -0.012 C
HETATM    3  C4  UNL     1      10.229  63.382  24.390  1.00  0.00     0.021 C
HETATM    4  C5  UNL     1       9.293  63.147  23.266  1.00  0.00     0.103 C
HETATM    5  C6  UNL     1       9.868  62.549  22.044  1.00  0.00     0.217 C
HETATM    6  O2  UNL     1       9.112  62.812  21.081  1.00  0.00    -0.274 OA
HETATM    7  N1  UNL     1      11.030  61.788  21.762  1.00  0.00    -0.355 N
ATOM      8  H1  UNL     1      11.319  61.961  20.799  1.00  0.00     0.162 HD
HETATM    9  C7  UNL     1      11.954  60.842  22.378  1.00  0.00     0.101 C
HETATM   10  C8  UNL     1      11.105  60.063  23.348  1.00  0.00     0.027 C
HETATM   11  C9  UNL     1      10.761  61.003  24.451  1.00  0.00     0.014 C
HETATM   12  C10 UNL     1      13.067  61.523  23.156  1.00  0.00     0.052 C
HETATM   13  C15 UNL     1      13.485  60.836  24.418  1.00  0.00     0.135 C
HETATM   14  C16 UNL     1      13.195  61.453  25.715  1.00  0.00     0.034 C
HETATM   15  C17 UNL     1      12.032  62.395  25.861  1.00  0.00     0.014 C
ENDROOT
BRANCH  12  16
HETATM   16  C11 UNL     1      14.186  61.729  22.208  1.00  0.00     0.015 C
HETATM   17  C12 UNL     1      14.280  61.034  21.108  1.00  0.00     0.142 C
BRANCH  17  18
HETATM   18  O3  UNL     1      15.331  61.211  20.194  1.00  0.00    -0.292 OA
BRANCH  18  19
HETATM   19  C13 UNL     1      15.802  60.162  19.456  1.00  0.00     0.259 C
HETATM   20  C14 UNL     1      16.100  60.213  18.000  1.00  0.00     0.126 C
HETATM   21  O4  UNL     1      16.005  59.061  20.042  1.00  0.00    -0.265 OA
ENDBRANCH  18  19
ENDBRANCH  17  18
ENDBRANCH  12  16
BRANCH   1  22
HETATM   22  O1  UNL     1      13.420  63.540  24.285  1.00  0.00    -0.389 OA
HETATM   23  C1  UNL     1      13.650  64.794  23.812  1.00  0.00     0.202 C
ENDBRANCH   1  22
BRANCH  13  24
HETATM   24  O5  UNL     1      14.910  60.765  24.341  1.00  0.00    -0.394 OA
ATOM     25  H5  UNL     1      15.097  60.612  23.422  1.00  0.00     0.210 HD
ENDBRANCH  13  24
TORSDOF 5
ENDMDL