MODEL 1
REMARK VINA RESULT: -5.958871822      0.000      0.000
REMARK  6 active torsions:
REMARK  status: ('A' for Active; 'I' for Inactive)
REMARK    1  A    between atoms: C2_2  and  N1_3
REMARK    2  A    between atoms: C6_7  and  C7_8
REMARK    3  A    between atoms: C7_8  and  N2_9
REMARK    4  A    between atoms: C8_10  and  O1_11
REMARK    5  A    between atoms: C9_13  and  C10_14
REMARK    6  A    between atoms: C10_14  and  C11_15
ROOT
HETATM    1  N2  UNL     1      21.027  59.380  17.879  1.00  0.00    -0.290 N
HETATM    2  C8  UNL     1      20.078  59.751  17.016  1.00  0.00     0.168 A
HETATM    3  C9  UNL     1      18.794  59.201  17.067  1.00  0.00     0.063 A
HETATM    4  N3  UNL     1      18.495  58.278  17.996  1.00  0.00    -0.338 N
ATOM      5  H3  UNL     1      17.558  57.878  18.031  1.00  0.00     0.167 HD
HETATM    6  C15 UNL     1      19.427  57.879  18.881  1.00  0.00     0.169 A
HETATM    7  N4  UNL     1      19.082  56.991  19.752  1.00  0.00    -0.381 N
ATOM      8  H41 UNL     1      19.789  56.688  20.422  1.00  0.00     0.157 HD
ATOM      9  H42 UNL     1      18.151  56.577  19.803  1.00  0.00     0.157 HD
HETATM   10  C16 UNL     1      20.672  58.433  18.812  1.00  0.00     0.293 A
HETATM   11  O2  UNL     1      21.534  58.058  19.640  1.00  0.00    -0.264 OA
ENDROOT
BRANCH   1  12
HETATM   12  C7  UNL     1      22.347  59.887  17.902  1.00  0.00     0.140 C
BRANCH  12  13
HETATM   13  C6  UNL     1      22.596  61.197  18.579  1.00  0.00     0.022 C
HETATM   14  C5  UNL     1      22.763  62.375  17.701  1.00  0.00     0.009 C
HETATM   15  C4  UNL     1      23.178  63.620  18.400  1.00  0.00     0.020 C
HETATM   16  C3  UNL     1      23.665  63.367  19.799  1.00  0.00     0.117 C
HETATM   17  N1  UNL     1      24.380  62.159  19.975  1.00  0.00    -0.412 N
HETATM   18  C17 UNL     1      23.784  60.967  19.494  1.00  0.00     0.123 C
BRANCH  17  19
HETATM   19  C2  UNL     1      25.768  62.165  19.669  1.00  0.00     0.112 C
HETATM   20  C1  UNL     1      26.207  61.160  18.647  1.00  0.00     0.026 C
ENDBRANCH  17  19
ENDBRANCH  12  13
ENDBRANCH   1  12
BRANCH   2  21
HETATM   21  O1  UNL     1      20.378  60.683  16.051  1.00  0.00    -0.344 OA
ATOM     22  H1  UNL     1      20.291  61.606  16.259  1.00  0.00     0.219 HD
ENDBRANCH   2  21
BRANCH   3  23
HETATM   23  C10 UNL     1      17.696  59.610  16.177  1.00  0.00     0.070 C
BRANCH  23  24
HETATM   24  C11 UNL     1      16.715  60.573  16.746  1.00  0.00    -0.046 C
HETATM   25  C12 UNL     1      15.298  60.271  16.242  1.00  0.00     0.015 C
HETATM   26  C13 UNL     1      17.048  61.966  16.184  1.00  0.00     0.015 C
HETATM   27  C14 UNL     1      16.675  60.708  18.229  1.00  0.00     0.015 C
ENDBRANCH  23  24
ENDBRANCH   3  23
TORSDOF 6
ENDMDL