MODEL 3
REMARK VINA RESULT: -6.426321657      1.506      3.968
REMARK  6 active torsions:
REMARK  status: ('A' for Active; 'I' for Inactive)
REMARK    1  A    between atoms: C9_11  and  C10_12
REMARK    2  A    between atoms: C10_12  and  C11_13
REMARK    3  A    between atoms: C11_13  and  C12_14
REMARK    4  A    between atoms: C14_16  and  O3_17
REMARK    5  A    between atoms: C17_21  and  O4_22
REMARK    6  A    between atoms: C18_24  and  O5_25
ROOT
HETATM    1  C1  UNL     1       8.263  63.917  22.953  1.00  0.00     0.017 C
HETATM    2  C2  UNL     1       9.375  63.314  23.356  1.00  0.00    -0.050 C
HETATM    3  C3  UNL     1       9.569  63.379  24.826  1.00  0.00     0.069 C
HETATM    4  C4  UNL     1      10.520  62.343  25.250  1.00  0.00     0.136 C
HETATM    5  O1  UNL     1      10.402  61.219  24.417  1.00  0.00    -0.346 OA
HETATM    6  C5  UNL     1      11.466  61.057  23.574  1.00  0.00     0.198 C
HETATM    7  C6  UNL     1      11.200  59.750  22.806  1.00  0.00     0.082 C
HETATM    8  O2  UNL     1      12.684  60.865  24.197  1.00  0.00    -0.352 OA
HETATM    9  C7  UNL     1      12.628  61.298  25.544  1.00  0.00     0.179 C
HETATM   10  C8  UNL     1      11.934  62.675  25.426  1.00  0.00     0.046 C
HETATM   11  C9  UNL     1      12.663  63.489  24.465  1.00  0.00     0.032 C
HETATM   12  C14 UNL     1      12.312  63.381  23.026  1.00  0.00     0.102 C
HETATM   13  C15 UNL     1      11.507  64.571  22.489  1.00  0.00     0.045 C
HETATM   14  C16 UNL     1      10.608  63.937  21.412  1.00  0.00     0.049 C
HETATM   15  C17 UNL     1      10.144  62.726  22.244  1.00  0.00     0.120 C
HETATM   16  C18 UNL     1      11.510  62.208  22.622  1.00  0.00     0.179 C
ENDROOT
BRANCH  11  17
HETATM   17  C10 UNL     1      12.825  64.964  24.862  1.00  0.00     0.008 C
BRANCH  17  18
HETATM   18  C11 UNL     1      14.198  65.282  25.368  1.00  0.00     0.000 C
BRANCH  18  19
HETATM   19  C12 UNL     1      15.006  66.198  24.518  1.00  0.00    -0.005 C
HETATM   20  C13 UNL     1      14.007  66.985  23.657  1.00  0.00     0.005 C
ENDBRANCH  18  19
ENDBRANCH  17  18
ENDBRANCH  11  17
BRANCH  12  21
HETATM   21  O3  UNL     1      13.497  63.416  22.238  1.00  0.00    -0.386 OA
ATOM     22  H3  UNL     1      13.283  63.239  21.329  1.00  0.00     0.210 HD
ENDBRANCH  12  21
BRANCH  16  23
HETATM   23  O5  UNL     1      12.029  61.673  21.413  1.00  0.00    -0.378 OA
ATOM     24  H5  UNL     1      12.605  60.966  21.680  1.00  0.00     0.211 HD
ENDBRANCH  16  23
BRANCH  15  25
HETATM   25  O4  UNL     1       9.414  61.842  21.490  1.00  0.00    -0.382 OA
ATOM     26  H4  UNL     1       8.725  61.411  21.981  1.00  0.00     0.211 HD
ENDBRANCH  15  25
TORSDOF 6
ENDMDL