MODEL 1
REMARK VINA RESULT: -6.795649930      0.000      0.000
REMARK  5 active torsions:
REMARK  status: ('A' for Active; 'I' for Inactive)
REMARK    1  A    between atoms: N1_2  and  C2_5
REMARK    2  A    between atoms: C5_8  and  N2_9
REMARK    3  A    between atoms: N2_9  and  C6_11
REMARK    4  A    between atoms: C12_22  and  N6_23
REMARK    5  A    between atoms: N6_23  and  C13_25
ROOT
HETATM    1  C6  UNL     1      18.345  59.810  17.030  1.00  0.00     0.080 A
HETATM    2  C7  UNL     1      16.980  59.735  17.335  1.00  0.00     0.088 A
HETATM    3  C8  UNL     1      16.526  58.724  18.245  1.00  0.00     0.103 C
HETATM    4  N3  UNL     1      16.155  57.896  18.963  1.00  0.00    -0.191 NA
HETATM    5  C9  UNL     1      16.063  60.590  16.796  1.00  0.00     0.113 A
HETATM    6  N4  UNL     1      16.461  61.547  15.940  1.00  0.00    -0.361 N
ATOM      7  H4  UNL     1      15.778  62.188  15.536  1.00  0.00     0.165 HD
HETATM    8  C10 UNL     1      17.767  61.658  15.617  1.00  0.00     0.078 A
HETATM    9  C11 UNL     1      18.171  62.624  14.750  1.00  0.00     0.138 A
HETATM   10  N5  UNL     1      19.464  62.745  14.419  1.00  0.00    -0.200 N
ATOM     11  H5  UNL     1      19.765  63.470  13.769  1.00  0.00     0.183 HD
HETATM   12  C12 UNL     1      20.355  61.900  14.954  1.00  0.00     0.678 A
HETATM   13  N7  UNL     1      20.026  60.924  15.815  1.00  0.00    -0.187 N
ATOM     14  H7  UNL     1      20.736  60.301  16.200  1.00  0.00     0.184 HD
HETATM   15  C16 UNL     1      18.732  60.793  16.155  1.00  0.00     0.105 A
ENDROOT
BRANCH   1  16
HETATM   16  N2  UNL     1      19.091  58.983  17.574  1.00  0.00    -0.382 N
ATOM     17  H2  UNL     1      19.092  58.088  17.085  1.00  0.00     0.160 HD
BRANCH  16  18
HETATM   18  C5  UNL     1      19.936  58.971  18.698  1.00  0.00     0.083 C
HETATM   19  C4  UNL     1      20.255  57.496  19.001  1.00  0.00     0.027 C
HETATM   20  C3  UNL     1      21.667  57.479  19.549  1.00  0.00     0.035 C
HETATM   21  C2  UNL     1      22.317  58.487  18.596  1.00  0.00     0.187 C
HETATM   22  C17 UNL     1      21.311  59.587  18.430  1.00  0.00     0.058 C
BRANCH  21  23
HETATM   23  N1  UNL     1      23.555  58.924  19.163  1.00  0.00    -0.075 N
HETATM   24  C1  UNL     1      23.601  60.364  19.321  1.00  0.00     0.267 C
ATOM     25  H12 UNL     1      24.350  58.585  18.621  1.00  0.00     0.277 HD
ATOM     26  H11 UNL     1      23.746  58.449  20.045  1.00  0.00     0.277 HD
ENDBRANCH  21  23
ENDBRANCH  16  18
ENDBRANCH   1  16
BRANCH  12  27
HETATM   27  N6  UNL     1      21.607  62.030  14.621  1.00  0.00    -0.222 N
ATOM     28  H6  UNL     1      21.892  62.864  14.108  1.00  0.00     0.178 HD
BRANCH  27  29
HETATM   29  C13 UNL     1      22.597  61.057  14.943  1.00  0.00     0.091 C
HETATM   30  C14 UNL     1      23.831  61.623  15.597  1.00  0.00     0.032 C
HETATM   31  C15 UNL     1      23.062  60.447  13.614  1.00  0.00     0.032 C
ENDBRANCH  27  29
ENDBRANCH  12  27
TORSDOF 5
ENDMDL