MODEL 4
REMARK VINA RESULT: -6.688338573      1.714      2.678
REMARK  5 active torsions:
REMARK  status: ('A' for Active; 'I' for Inactive)
REMARK    1  A    between atoms: C5_5  and  C6_6
REMARK    2  A    between atoms: N2_14  and  C10_15
REMARK    3  A    between atoms: C10_15  and  C11_16
REMARK    4  A    between atoms: C13_20  and  C14_21
REMARK    5  A    between atoms: C14_21  and  O2_22
ROOT
HETATM    1  C1  UNL     1      23.596  58.165  15.907  1.00  0.00     0.032 C
HETATM    2  C2  UNL     1      22.238  58.642  16.373  1.00  0.00     0.080 C
HETATM    3  C3  UNL     1      21.759  59.652  15.315  1.00  0.00     0.027 C
HETATM    4  C4  UNL     1      21.253  60.820  16.114  1.00  0.00     0.030 C
HETATM    5  C5  UNL     1      22.012  60.692  17.438  1.00  0.00     0.115 C
HETATM    6  N2  UNL     1      22.322  59.325  17.597  1.00  0.00    -0.376 N
ENDROOT
BRANCH   6   7
HETATM    7  C10 UNL     1      21.988  58.676  18.796  1.00  0.00     0.117 C
BRANCH   7   8
HETATM    8  C11 UNL     1      20.590  58.206  18.923  1.00  0.00     0.064 A
HETATM    9  C12 UNL     1      20.121  57.027  19.468  1.00  0.00     0.120 A
HETATM   10  N3  UNL     1      18.767  57.044  19.349  1.00  0.00    -0.351 N
HETATM   11  C13 UNL     1      18.391  58.186  18.752  1.00  0.00     0.117 A
ATOM     12  H3  UNL     1      18.137  56.306  19.665  1.00  0.00     0.166 HD
HETATM   13  N4  UNL     1      19.508  58.875  18.505  1.00  0.00    -0.341 N
ATOM     14  H4  UNL     1      19.534  59.790  18.056  1.00  0.00     0.167 HD
BRANCH  11  15
HETATM   15  C14 UNL     1      17.041  58.673  18.394  1.00  0.00     0.116 C
HETATM   16  C15 UNL     1      16.871  60.130  18.830  1.00  0.00     0.046 C
HETATM   17  C16 UNL     1      17.102  60.511  17.398  1.00  0.00     0.007 C
HETATM   18  C17 UNL     1      16.832  59.083  16.962  1.00  0.00     0.046 C
BRANCH  15  19
HETATM   19  O2  UNL     1      16.048  57.830  18.900  1.00  0.00    -0.382 OA
ATOM     20  H2  UNL     1      16.040  57.839  19.850  1.00  0.00     0.211 HD
ENDBRANCH  15  19
ENDBRANCH  11  15
ENDBRANCH   7   8
ENDBRANCH   6   7
BRANCH   5  21
HETATM   21  C6  UNL     1      23.349  61.419  17.276  1.00  0.00     0.169 C
HETATM   22  C7  UNL     1      23.881  61.796  18.644  1.00  0.00     0.266 C
HETATM   23  N1  UNL     1      25.045  62.644  18.410  1.00  0.00    -0.071 N
HETATM   24  C8  UNL     1      25.549  62.512  17.061  1.00  0.00     0.258 C
ATOM     25  H12 UNL     1      24.844  63.619  18.636  1.00  0.00     0.277 HD
ATOM     26  H11 UNL     1      25.777  62.466  19.097  1.00  0.00     0.277 HD
HETATM   27  C9  UNL     1      24.537  62.812  16.010  1.00  0.00     0.196 C
HETATM   28  O1  UNL     1      23.237  62.527  16.482  1.00  0.00    -0.380 OA
ENDBRANCH   5  21
TORSDOF 5
ENDMDL