MODEL 2
REMARK VINA RESULT: -6.727767455      2.810      6.633
REMARK  6 active torsions:
REMARK  status: ('A' for Active; 'I' for Inactive)
REMARK    1  A    between atoms: C1_2  and  N1_3
REMARK    2  A    between atoms: C11_16  and  N3_17
REMARK    3  A    between atoms: N3_17  and  C12_19
REMARK    4  A    between atoms: C12_19  and  C13_20
REMARK    5  A    between atoms: C13_20  and  C14_21
REMARK    6  A    between atoms: C14_21  and  O2_22
ROOT
HETATM    1  N1  UNL     1      22.434  61.436  13.287  1.00  0.00    -0.335 N
ATOM      2  H1  UNL     1      22.596  62.443  13.315  1.00  0.00     0.168 HD
HETATM    3  C2  UNL     1      22.313  60.817  14.419  1.00  0.00     0.055 C
HETATM    4  C3  UNL     1      22.077  59.362  14.515  1.00  0.00     0.063 C
HETATM    5  C4  UNL     1      21.521  58.919  15.816  1.00  0.00     0.037 C
HETATM    6  C5  UNL     1      20.936  60.019  16.661  1.00  0.00     0.032 C
HETATM    7  C6  UNL     1      19.602  60.400  16.080  1.00  0.00     0.031 C
HETATM    8  C7  UNL     1      18.467  59.560  16.528  1.00  0.00     0.002 C
HETATM    9  C8  UNL     1      18.459  59.250  17.998  1.00  0.00     0.000 C
HETATM   10  C9  UNL     1      19.758  58.536  18.315  1.00  0.00     0.002 C
HETATM   11  C10 UNL     1      20.860  59.542  18.074  1.00  0.00     0.031 C
HETATM   12  N2  UNL     1      21.761  61.214  16.661  1.00  0.00    -0.366 N
ATOM     13  H2  UNL     1      21.823  61.762  17.520  1.00  0.00     0.162 HD
HETATM   14  C11 UNL     1      22.419  61.616  15.629  1.00  0.00     0.120 C
ENDROOT
BRANCH  14  15
HETATM   15  N3  UNL     1      23.222  62.816  15.696  1.00  0.00    -0.375 N
ATOM     16  H3  UNL     1      23.223  63.471  14.914  1.00  0.00     0.161 HD
BRANCH  15  17
HETATM   17  C12 UNL     1      24.016  63.088  16.853  1.00  0.00     0.124 C
BRANCH  17  18
HETATM   18  C13 UNL     1      25.409  62.544  16.812  1.00  0.00     0.059 C
BRANCH  18  19
HETATM   19  C14 UNL     1      25.638  61.412  17.759  1.00  0.00     0.083 C
HETATM   20  C15 UNL     1      25.452  60.085  17.037  1.00  0.00     0.041 C
HETATM   21  C16 UNL     1      24.447  59.198  17.722  1.00  0.00     0.030 C
HETATM   22  C17 UNL     1      24.524  59.203  19.215  1.00  0.00     0.232 C
HETATM   23  N4  UNL     1      24.847  60.464  19.805  1.00  0.00    -0.072 N
HETATM   24  C18 UNL     1      24.582  61.544  18.865  1.00  0.00     0.269 C
ATOM     25  H42 UNL     1      24.363  60.604  20.693  1.00  0.00     0.277 HD
ATOM     26  H41 UNL     1      25.806  60.487  20.152  1.00  0.00     0.277 HD
BRANCH  19  27
HETATM   27  O2  UNL     1      26.858  61.387  18.388  1.00  0.00    -0.388 OA
ATOM     28  H2  UNL     1      27.283  60.539  18.443  1.00  0.00     0.210 HD
ENDBRANCH  19  27
ENDBRANCH  18  19
ENDBRANCH  17  18
ENDBRANCH  15  17
ENDBRANCH  14  15
BRANCH   1  29
HETATM   29  C1  UNL     1      22.360  60.828  12.021  1.00  0.00     0.353 C
HETATM   30  O1  UNL     1      21.302  60.952  11.354  1.00  0.00    -0.283 OA
ENDBRANCH   1  29
TORSDOF 6
ENDMDL