MODEL 3
REMARK VINA RESULT: -5.752885840      9.547     12.748
REMARK  7 active torsions:
REMARK  status: ('A' for Active; 'I' for Inactive)
REMARK    1  A    between atoms: C9_10  and  O1_11
REMARK    2  A    between atoms: N2_13  and  C10_14
REMARK    3  A    between atoms: N3_18  and  C14_19
REMARK    4  A    between atoms: C14_19  and  C15_20
REMARK    5  A    between atoms: C16_21  and  C17_22
REMARK    6  A    between atoms: C17_22  and  O2_23
REMARK    7  A    between atoms: C18_25  and  O3_26
ROOT
HETATM    1  C1  UNL     1      15.426  60.503  16.307  1.00  0.00     0.272 C
HETATM    2  N1  UNL     1      16.840  60.661  16.668  1.00  0.00    -0.066 N
HETATM    3  C2  UNL     1      17.296  61.909  16.124  1.00  0.00     0.272 C
HETATM    4  C3  UNL     1      16.980  60.635  18.131  1.00  0.00     0.246 C
HETATM    5  C4  UNL     1      17.694  59.330  18.416  1.00  0.00     0.052 C
HETATM    6  C5  UNL     1      17.097  58.489  17.279  1.00  0.00     0.049 C
HETATM    7  C6  UNL     1      17.520  59.502  16.197  1.00  0.00     0.228 C
HETATM    8  C7  UNL     1      18.956  59.624  16.543  1.00  0.00     0.035 A
HETATM    9  C8  UNL     1      19.077  59.508  17.915  1.00  0.00     0.011 A
HETATM   10  C9  UNL     1      20.415  59.613  18.241  1.00  0.00     0.153 A
HETATM   11  N2  UNL     1      21.126  59.791  17.120  1.00  0.00    -0.275 N
HETATM   12  C18 UNL     1      20.256  59.798  16.095  1.00  0.00     0.155 A
ENDROOT
BRANCH  11  13
HETATM   13  C10 UNL     1      22.590  59.959  17.034  1.00  0.00     0.332 C
HETATM   14  C11 UNL     1      23.256  58.726  16.530  1.00  0.00     0.059 C
HETATM   15  C12 UNL     1      23.908  59.123  15.235  1.00  0.00     0.034 C
HETATM   16  C13 UNL     1      24.020  60.633  15.376  1.00  0.00     0.275 C
HETATM   17  N3  UNL     1      22.923  61.042  16.192  1.00  0.00     0.115 N
BRANCH  17  18
HETATM   18  C14 UNL     1      23.124  62.245  16.939  1.00  0.00     0.302 C
BRANCH  18  19
HETATM   19  C15 UNL     1      24.442  62.412  17.556  1.00  0.00     0.001 C
HETATM   20  C16 UNL     1      24.715  62.463  18.844  1.00  0.00    -0.004 C
BRANCH  20  21
HETATM   21  C17 UNL     1      23.772  62.366  19.963  1.00  0.00     0.191 C
BRANCH  21  22
HETATM   22  O2  UNL     1      23.590  60.992  20.250  1.00  0.00    -0.397 OA
ATOM     23  H2  UNL     1      24.310  60.718  20.806  1.00  0.00     0.209 HD
ENDBRANCH  21  22
ENDBRANCH  20  21
ENDBRANCH  18  19
ENDBRANCH  17  18
ENDBRANCH  11  13
BRANCH  10  24
HETATM   24  O1  UNL     1      20.962  59.551  19.499  1.00  0.00    -0.345 OA
ATOM     25  H1  UNL     1      21.554  58.885  19.830  1.00  0.00     0.219 HD
ENDBRANCH  10  24
BRANCH  12  26
HETATM   26  O3  UNL     1      20.591  59.958  14.761  1.00  0.00    -0.345 OA
ATOM     27  H3  UNL     1      21.443  60.257  14.466  1.00  0.00     0.219 HD
ENDBRANCH  12  26
TORSDOF 7
ENDMDL