MODEL 1
REMARK VINA RESULT: -6.823151308      0.000      0.000
REMARK  13 active torsions:
REMARK  status: ('A' for Active; 'I' for Inactive)
REMARK    1  A    between atoms: N1_2  and  C3_4
REMARK    2  A    between atoms: C3_4  and  C4_5
REMARK    3  A    between atoms: C5_6  and  C6_7
REMARK    4  A    between atoms: C6_7  and  N2_8
REMARK       I    between atoms: N2_8  and  C7_10
REMARK    5  A    between atoms: C7_10  and  C8_12
REMARK    6  A    between atoms: C8_12  and  C9_13
REMARK    7  A    between atoms: C14_18  and  O2_19
REMARK    8  A    between atoms: N3_32  and  C25_33
REMARK    9  A    between atoms: C25_33  and  C26_34
REMARK   10  A    between atoms: C33_41  and  C34_42
REMARK   11  A    between atoms: C34_42  and  C35_43
REMARK   12  A    between atoms: C35_43  and  N4_44
REMARK   13  A    between atoms: C36_49  and  O4_50
ROOT
HETATM    1  C9  UNL     1      15.864  20.918  19.281  1.00  0.00     0.073 C
HETATM    2  C10 UNL     1      14.888  20.090  20.051  1.00  0.00     0.052 C
HETATM    3  C11 UNL     1      13.894  19.271  19.303  1.00  0.00    -0.054 A
HETATM    4  C12 UNL     1      14.166  17.890  19.489  1.00  0.00     0.010 A
HETATM    5  C13 UNL     1      13.467  16.871  18.906  1.00  0.00     0.040 A
HETATM    6  C14 UNL     1      12.438  17.261  18.088  1.00  0.00     0.099 A
HETATM    7  C15 UNL     1      12.115  18.612  17.858  1.00  0.00     0.102 A
HETATM    8  C16 UNL     1      12.856  19.601  18.480  1.00  0.00     0.046 A
HETATM    9  O3  UNL     1      11.045  18.721  16.994  1.00  0.00    -0.348 OA
HETATM   10  C17 UNL     1      10.785  19.451  15.825  1.00  0.00     0.178 C
HETATM   11  C18 UNL     1      11.820  19.287  14.792  1.00  0.00     0.060 C
HETATM   12  C19 UNL     1      12.443  20.492  14.204  1.00  0.00     0.190 C
HETATM   13  C20 UNL     1      12.632  21.678  15.057  1.00  0.00     0.066 C
HETATM   14  C21 UNL     1      14.070  21.742  14.591  1.00  0.00     0.190 C
HETATM   15  C22 UNL     1      15.063  21.552  15.719  1.00  0.00     0.060 C
HETATM   16  C23 UNL     1      15.725  22.767  16.222  1.00  0.00     0.106 C
HETATM   17  C24 UNL     1      17.139  22.945  15.650  1.00  0.00     0.147 C
HETATM   18  N3  UNL     1      17.473  24.313  15.897  1.00  0.00    -0.389 N
HETATM   19  C32 UNL     1      17.463  24.591  17.296  1.00  0.00     0.147 C
HETATM   20  C33 UNL     1      16.080  24.433  17.877  1.00  0.00     0.106 C
HETATM   21  N5  UNL     1      15.698  23.008  17.652  1.00  0.00    -0.352 N
HETATM   22  C36 UNL     1      15.361  22.161  18.711  1.00  0.00     0.119 C
HETATM   23  N6  UNL     1      13.865  20.404  14.012  1.00  0.00    -0.066 N
ATOM     24  H61 UNL     1      14.231  20.202  13.082  1.00  0.00     0.278 HD
ATOM     25  H62 UNL     1      14.372  19.609  14.401  1.00  0.00     0.278 HD
ENDROOT
BRANCH   1  26
HETATM   26  C8  UNL     1      16.690  20.038  18.399  1.00  0.00     0.115 C
BRANCH  26  27
HETATM   27  C7  UNL     1      17.985  20.605  17.958  1.00  0.00     0.218 C
HETATM   28  N2  UNL     1      18.593  21.649  18.733  1.00  0.00    -0.358 N
ATOM     29  H2  UNL     1      18.112  21.973  19.573  1.00  0.00     0.162 HD
HETATM   30  O1  UNL     1      18.637  20.266  16.947  1.00  0.00    -0.274 OA
BRANCH  28  31
HETATM   31  C6  UNL     1      19.842  22.259  18.385  1.00  0.00     0.149 C
BRANCH  31  32
HETATM   32  C5  UNL     1      20.468  22.863  19.597  1.00  0.00    -0.010 C
HETATM   33  C4  UNL     1      20.986  24.086  19.547  1.00  0.00     0.000 C
BRANCH  33  34
HETATM   34  C3  UNL     1      21.622  24.765  20.683  1.00  0.00     0.298 C
BRANCH  34  35
HETATM   35  N1  UNL     1      21.309  26.176  20.759  1.00  0.00     0.083 N
HETATM   36  C1  UNL     1      21.701  26.706  22.069  1.00  0.00     0.309 C
HETATM   37  C2  UNL     1      22.123  26.899  19.767  1.00  0.00     0.309 C
ENDBRANCH  34  35
ENDBRANCH  33  34
ENDBRANCH  31  32
ENDBRANCH  28  31
ENDBRANCH  26  27
ENDBRANCH   1  26
BRANCH  22  38
HETATM   38  O4  UNL     1      14.317  22.594  19.378  1.00  0.00    -0.349 OA
ATOM     39  H4  UNL     1      14.253  22.165  20.223  1.00  0.00     0.219 HD
ENDBRANCH  22  38
BRANCH  20  40
HETATM   40  C34 UNL     1      16.004  24.940  19.224  1.00  0.00     0.054 C
BRANCH  40  41
HETATM   41  C35 UNL     1      17.375  24.938  19.861  1.00  0.00     0.231 C
BRANCH  41  42
HETATM   42  N4  UNL     1      17.408  23.887  20.903  1.00  0.00    -0.079 N
ATOM     43  H43 UNL     1      18.321  23.441  20.982  1.00  0.00     0.274 HD
ATOM     44  H42 UNL     1      17.358  24.269  21.847  1.00  0.00     0.274 HD
ATOM     45  H41 UNL     1      16.661  23.218  20.711  1.00  0.00     0.274 HD
ENDBRANCH  41  42
ENDBRANCH  40  41
ENDBRANCH  20  40
BRANCH   6  46
HETATM   46  O2  UNL     1      11.736  16.183  17.502  1.00  0.00    -0.358 OA
ATOM     47  H2  UNL     1      11.457  16.348  16.609  1.00  0.00     0.217 HD
ENDBRANCH   6  46
BRANCH  18  48
HETATM   48  C25 UNL     1      18.503  24.884  15.156  1.00  0.00     0.063 C
BRANCH  48  49
HETATM   49  C26 UNL     1      19.763  24.978  15.990  1.00  0.00     0.024 C
HETATM   50  C27 UNL     1      20.944  24.399  15.260  1.00  0.00     0.010 C
HETATM   51  C28 UNL     1      21.369  25.229  14.091  1.00  0.00     0.001 C
HETATM   52  C29 UNL     1      21.553  26.681  14.416  1.00  0.00     0.000 C
HETATM   53  C30 UNL     1      20.374  27.230  15.192  1.00  0.00     0.001 C
HETATM   54  C31 UNL     1      20.075  26.403  16.401  1.00  0.00     0.010 C
ENDBRANCH  48  49
ENDBRANCH  18  48
TORSDOF 13
ENDMDL