MODEL 1
REMARK VINA RESULT: -7.632348838      0.000      0.000
REMARK  12 active torsions:
REMARK  status: ('A' for Active; 'I' for Inactive)
REMARK    1  A    between atoms: C3_3  and  N1_4
REMARK    2  A    between atoms: C7_10  and  C8_11
REMARK    3  A    between atoms: C8_11  and  C9_12
REMARK    4  A    between atoms: C9_12  and  C10_13
REMARK    5  A    between atoms: C10_13  and  N2_14
REMARK    6  A    between atoms: C13_23  and  C14_24
REMARK    7  A    between atoms: C14_24  and  C15_25
REMARK    8  A    between atoms: C15_25  and  C16_26
REMARK    9  A    between atoms: C16_26  and  C17_27
REMARK   10  A    between atoms: C17_27  and  N6_28
REMARK   11  A    between atoms: C24_40  and  C25_41
REMARK   12  A    between atoms: C26_42  and  C27_43
ROOT
HETATM    1  C1  UNL     1      13.035  14.928  10.361  1.00  0.00     0.013 C
HETATM    2  C2  UNL     1      12.224  15.756  10.722  1.00  0.00    -0.087 C
HETATM    3  C3  UNL     1      11.261  16.788  11.184  1.00  0.00     0.366 C
ENDROOT
BRANCH   3   4
HETATM    4  N1  UNL     1      10.340  16.313  12.175  1.00  0.00     0.118 N
HETATM    5  C4  UNL     1      10.059  17.441  13.063  1.00  0.00     0.319 C
HETATM    6  C5  UNL     1       9.349  18.506  12.334  1.00  0.00     0.054 C
HETATM    7  C6  UNL     1      11.336  17.923  13.715  1.00  0.00     0.293 C
HETATM    8  O1  UNL     1      12.107  16.915  13.949  1.00  0.00    -0.263 OA
HETATM    9  O2  UNL     1      11.531  19.211  13.961  1.00  0.00    -0.305 OA
HETATM   10  C7  UNL     1      11.686  20.103  14.986  1.00  0.00     0.223 C
HETATM   11  C12 UNL     1      10.767  20.002  16.132  1.00  0.00     0.248 C
HETATM   12  O3  UNL     1       9.571  20.355  15.981  1.00  0.00    -0.271 OA
HETATM   13  N5  UNL     1      11.086  19.536  17.433  1.00  0.00    -0.344 N
HETATM   14  C13 UNL     1      11.854  18.269  17.640  1.00  0.00     0.192 C
ATOM     15  H5  UNL     1      10.786  20.076  18.245  1.00  0.00     0.163 HD
HETATM   16  C18 UNL     1      10.784  17.438  18.335  1.00  0.00     0.313 C
HETATM   17  O4  UNL     1      10.729  17.618  19.588  1.00  0.00    -0.255 OA
HETATM   18  N7  UNL     1      10.023  16.635  17.608  1.00  0.00    -0.386 NA
HETATM   19  C19 UNL     1       9.353  15.893  16.963  1.00  0.00     0.163 C
HETATM   20  C20 UNL     1       9.506  14.407  16.932  1.00  0.00     0.034 C
HETATM   21  C21 UNL     1      10.397  14.002  18.070  1.00  0.00     0.016 C
HETATM   22  C22 UNL     1      10.135  13.955  15.633  1.00  0.00     0.011 C
HETATM   23  C23 UNL     1       9.106  13.769  14.544  1.00  0.00     0.009 C
HETATM   24  C24 UNL     1       9.781  13.711  13.221  1.00  0.00     0.015 C
HETATM   25  C30 UNL     1       8.911  14.273  12.105  1.00  0.00     0.027 C
HETATM   26  C31 UNL     1       8.853  13.403  10.895  1.00  0.00     0.007 C
HETATM   27  C35 UNL     1       9.154  15.692  11.747  1.00  0.00     0.230 C
HETATM   28  C32 UNL     1       7.593  13.701  10.105  1.00  0.00     0.001 C
HETATM   29  C33 UNL     1       7.422  15.178  10.040  1.00  0.00     0.002 C
HETATM   30  C34 UNL     1       8.806  15.831  10.274  1.00  0.00     0.036 C
BRANCH  10  31
HETATM   31  C8  UNL     1      11.766  21.518  14.455  1.00  0.00     0.044 C
BRANCH  31  32
HETATM   32  C9  UNL     1      13.113  22.102  14.306  1.00  0.00     0.023 C
BRANCH  32  33
HETATM   33  C10 UNL     1      13.998  21.829  15.520  1.00  0.00     0.122 C
BRANCH  33  34
HETATM   34  N2  UNL     1      14.823  22.946  15.855  1.00  0.00    -0.367 N
HETATM   35  C11 UNL     1      16.075  22.828  16.031  1.00  0.00     0.196 C
HETATM   36  N3  UNL     1      16.885  23.942  16.362  1.00  0.00    -0.067 NA
HETATM   37  N4  UNL     1      16.700  21.561  15.903  1.00  0.00    -0.067 NA
ATOM     38  H2  UNL     1      14.394  23.866  15.955  1.00  0.00     0.161 HD
ENDBRANCH  33  34
ENDBRANCH  32  33
ENDBRANCH  31  32
ENDBRANCH  10  31
BRANCH  14  39
HETATM   39  C14 UNL     1      12.951  18.614  18.594  1.00  0.00     0.036 C
BRANCH  39  40
HETATM   40  C15 UNL     1      13.807  19.773  18.282  1.00  0.00     0.004 C
BRANCH  40  41
HETATM   41  C16 UNL     1      15.207  19.807  18.744  1.00  0.00     0.027 C
BRANCH  41  42
HETATM   42  C17 UNL     1      15.553  21.157  19.395  1.00  0.00     0.229 C
BRANCH  42  43
HETATM   43  N6  UNL     1      14.500  22.115  19.275  1.00  0.00    -0.079 N
ATOM     44  H63 UNL     1      14.151  22.155  18.318  1.00  0.00     0.274 HD
ATOM     45  H62 UNL     1      13.656  21.790  19.746  1.00  0.00     0.274 HD
ATOM     46  H61 UNL     1      14.770  23.042  19.605  1.00  0.00     0.274 HD
ENDBRANCH  42  43
ENDBRANCH  41  42
ENDBRANCH  40  41
ENDBRANCH  39  40
ENDBRANCH  14  39
BRANCH  24  47
HETATM   47  C25 UNL     1      10.165  12.361  12.831  1.00  0.00    -0.013 C
HETATM   48  C26 UNL     1      10.213  11.204  13.378  1.00  0.00     0.060 C
BRANCH  48  49
HETATM   49  C27 UNL     1       9.888  10.733  14.676  1.00  0.00    -0.079 C
HETATM   50  C28 UNL     1       9.637  10.337  15.799  1.00  0.00    -0.106 C
HETATM   51  C29 UNL     1       9.310   9.874  17.143  1.00  0.00     0.112 C
ENDBRANCH  48  49
ENDBRANCH  24  47
ENDBRANCH   3   4
TORSDOF 12
ENDMDL