MODEL 1
REMARK VINA RESULT: -6.169799040      0.000      0.000
REMARK  12 active torsions:
REMARK  status: ('A' for Active; 'I' for Inactive)
REMARK    1  A    between atoms: C2_2  and  C3_3
REMARK    2  A    between atoms: C3_3  and  C5_5
REMARK    3  A    between atoms: C9_14  and  C10_15
REMARK    4  A    between atoms: C10_15  and  C13_18
REMARK    5  A    between atoms: C14_21  and  C15_22
REMARK    6  A    between atoms: C15_22  and  C16_23
REMARK    7  A    between atoms: C15_22  and  C18_25
REMARK    8  A    between atoms: C21_30  and  O4_31
REMARK    9  A    between atoms: C22_33  and  C23_34
REMARK   10  A    between atoms: C23_34  and  C25_36
REMARK   11  A    between atoms: C28_40  and  O5_41
REMARK   12  A    between atoms: C29_43  and  C30_44
ROOT
HETATM    1  C5  UNL     1      17.994  21.936  18.907  1.00  0.00     0.188 C
HETATM    2  N1  UNL     1      19.019  21.684  19.902  1.00  0.00    -0.345 N
ATOM      3  H1  UNL     1      19.010  20.739  20.286  1.00  0.00     0.163 HD
HETATM    4  C6  UNL     1      20.007  22.501  20.421  1.00  0.00     0.240 C
HETATM    5  O1  UNL     1      21.218  22.081  20.288  1.00  0.00    -0.271 OA
HETATM    6  C7  UNL     1      19.925  23.807  21.125  1.00  0.00     0.165 C
HETATM    7  C8  UNL     1      18.836  24.657  20.581  1.00  0.00     0.042 C
HETATM    8  N2  UNL     1      21.218  24.371  21.280  1.00  0.00    -0.402 N
ATOM      9  H2  UNL     1      21.956  23.775  21.654  1.00  0.00     0.154 HD
HETATM   10  C9  UNL     1      21.541  25.667  20.958  1.00  0.00     0.118 C
HETATM   11  C14 UNL     1      22.608  26.011  19.959  1.00  0.00     0.111 C
HETATM   12  N3  UNL     1      22.043  26.853  18.901  1.00  0.00    -0.366 N
ATOM     13  H3  UNL     1      22.254  27.836  19.071  1.00  0.00     0.161 HD
HETATM   14  C21 UNL     1      21.307  26.703  17.741  1.00  0.00     0.135 C
HETATM   15  C22 UNL     1      21.557  26.385  16.338  1.00  0.00     0.163 C
HETATM   16  N4  UNL     1      20.828  25.419  15.602  1.00  0.00    -0.355 N
HETATM   17  C27 UNL     1      21.730  24.666  14.634  1.00  0.00     0.152 C
HETATM   18  C28 UNL     1      19.487  25.041  15.514  1.00  0.00     0.144 C
HETATM   19  C29 UNL     1      18.516  24.374  16.419  1.00  0.00     0.209 C
HETATM   20  O6  UNL     1      18.985  23.208  16.966  1.00  0.00    -0.306 OA
HETATM   21  C33 UNL     1      18.620  22.088  17.538  1.00  0.00     0.283 C
HETATM   22  O7  UNL     1      18.781  20.968  16.939  1.00  0.00    -0.263 OA
ENDROOT
BRANCH  10  23
HETATM   23  C10 UNL     1      21.742  26.472  22.258  1.00  0.00     0.063 C
HETATM   24  C11 UNL     1      23.218  26.507  22.674  1.00  0.00     0.028 C
HETATM   25  C12 UNL     1      21.087  25.772  23.444  1.00  0.00     0.028 C
BRANCH  23  26
HETATM   26  C13 UNL     1      21.154  27.811  22.270  1.00  0.00     0.183 C
HETATM   27  O2  UNL     1      20.898  28.349  23.397  1.00  0.00    -0.647 OA
HETATM   28  O3  UNL     1      20.834  28.582  21.169  1.00  0.00    -0.647 OA
ENDBRANCH  23  26
ENDBRANCH  10  23
BRANCH  11  29
HETATM   29  C15 UNL     1      23.506  24.981  19.359  1.00  0.00     0.013 C
BRANCH  29  30
HETATM   30  C16 UNL     1      24.059  23.973  20.315  1.00  0.00     0.002 C
HETATM   31  C17 UNL     1      24.681  22.736  19.773  1.00  0.00     0.005 C
ENDBRANCH  29  30
BRANCH  29  32
HETATM   32  C18 UNL     1      24.725  25.859  18.918  1.00  0.00    -0.017 C
HETATM   33  C19 UNL     1      25.175  25.620  17.531  1.00  0.00     0.010 C
HETATM   34  C20 UNL     1      25.852  25.845  19.921  1.00  0.00     0.010 C
ENDBRANCH  29  32
ENDBRANCH  11  29
BRANCH  14  35
HETATM   35  O4  UNL     1      20.025  26.896  17.874  1.00  0.00    -0.348 OA
ATOM     36  H4  UNL     1      19.478  26.340  17.332  1.00  0.00     0.219 HD
ENDBRANCH  14  35
BRANCH  15  37
HETATM   37  C23 UNL     1      21.678  27.725  15.596  1.00  0.00     0.012 C
HETATM   38  C24 UNL     1      23.027  28.040  15.076  1.00  0.00     0.012 C
BRANCH  37  39
HETATM   39  C25 UNL     1      20.595  27.968  14.586  1.00  0.00     0.002 C
HETATM   40  C26 UNL     1      21.180  28.262  13.217  1.00  0.00     0.005 C
ENDBRANCH  37  39
ENDBRANCH  15  37
BRANCH   1  41
HETATM   41  C3  UNL     1      17.039  20.766  18.781  1.00  0.00     0.014 C
HETATM   42  C4  UNL     1      16.113  20.653  19.972  1.00  0.00     0.012 C
BRANCH  41  43
HETATM   43  C2  UNL     1      16.218  20.761  17.553  1.00  0.00     0.002 C
HETATM   44  C1  UNL     1      14.751  20.867  17.981  1.00  0.00     0.005 C
ENDBRANCH  41  43
ENDBRANCH   1  41
BRANCH  18  45
HETATM   45  O5  UNL     1      18.951  25.346  14.355  1.00  0.00    -0.347 OA
ATOM     46  H5  UNL     1      18.082  24.977  14.246  1.00  0.00     0.219 HD
ENDBRANCH  18  45
BRANCH  19  47
HETATM   47  C30 UNL     1      17.169  24.136  15.675  1.00  0.00     0.015 C
HETATM   48  C31 UNL     1      17.254  22.857  14.871  1.00  0.00     0.012 C
HETATM   49  C32 UNL     1      16.021  24.149  16.628  1.00  0.00     0.012 C
ENDBRANCH  19  47
TORSDOF 12
ENDMDL