MODEL 1
REMARK VINA RESULT: -4.697283190      0.000      0.000
REMARK  13 active torsions:
REMARK  status: ('A' for Active; 'I' for Inactive)
REMARK    1  A    between atoms: C2_2  and  C3_3
REMARK    2  A    between atoms: C3_3  and  C4_4
REMARK    3  A    between atoms: C9_15  and  C10_16
REMARK    4  A    between atoms: C10_16  and  C11_17
REMARK    5  A    between atoms: C14_20  and  O3_21
REMARK    6  A    between atoms: C15_23  and  C16_24
REMARK    7  A    between atoms: C16_24  and  C18_26
REMARK    8  A    between atoms: C20_29  and  C21_30
REMARK    9  A    between atoms: N3_33  and  C24_34
REMARK   10  A    between atoms: C24_34  and  O5_35
REMARK   11  A    between atoms: C24_34  and  C25_37
REMARK   12  A    between atoms: C28_40  and  C29_41
REMARK   13  A    between atoms: C29_41  and  C30_42
ROOT
HETATM    1  C4  UNL     1       7.408  14.641  10.536  1.00  0.00     0.178 C
HETATM    2  C5  UNL     1       6.466  13.921  11.418  1.00  0.00     0.241 C
HETATM    3  O1  UNL     1       5.200  14.123  11.252  1.00  0.00    -0.271 OA
HETATM    4  N1  UNL     1       6.758  13.015  12.448  1.00  0.00    -0.346 N
ATOM      5  H1  UNL     1       6.132  12.213  12.516  1.00  0.00     0.163 HD
HETATM    6  C6  UNL     1       7.826  13.056  13.428  1.00  0.00     0.172 C
HETATM    7  C7  UNL     1       9.146  12.715  12.833  1.00  0.00     0.042 C
HETATM    8  C8  UNL     1       7.746  14.268  14.244  1.00  0.00     0.240 C
HETATM    9  O2  UNL     1       6.832  15.122  13.918  1.00  0.00    -0.271 OA
HETATM   10  N2  UNL     1       8.508  14.663  15.344  1.00  0.00    -0.352 N
ATOM     11  H2  UNL     1       7.978  15.129  16.080  1.00  0.00     0.163 HD
HETATM   12  C9  UNL     1       9.911  14.526  15.617  1.00  0.00     0.116 C
HETATM   13  C14 UNL     1      10.546  15.902  15.696  1.00  0.00     0.170 C
HETATM   14  C15 UNL     1      10.304  16.841  14.569  1.00  0.00     0.156 C
HETATM   15  O4  UNL     1      11.243  17.012  13.619  1.00  0.00    -0.376 OA
HETATM   16  C20 UNL     1      11.299  16.291  12.474  1.00  0.00     0.139 C
HETATM   17  C23 UNL     1      11.484  17.143  11.249  1.00  0.00     0.157 C
HETATM   18  N3  UNL     1      10.888  16.628  10.039  1.00  0.00    -0.349 N
HETATM   19  C28 UNL     1       9.550  17.052   9.600  1.00  0.00     0.178 C
HETATM   20  C33 UNL     1       8.466  16.966  10.599  1.00  0.00     0.243 C
HETATM   21  O6  UNL     1       8.535  17.785  11.553  1.00  0.00    -0.271 OA
HETATM   22  N4  UNL     1       7.356  16.083  10.620  1.00  0.00    -0.341 N
HETATM   23  C34 UNL     1       6.015  16.652  10.740  1.00  0.00     0.153 C
ENDROOT
BRANCH  18  24
HETATM   24  C24 UNL     1      11.582  15.785   9.164  1.00  0.00     0.118 C
BRANCH  24  25
HETATM   25  O5  UNL     1      11.637  16.227   7.912  1.00  0.00    -0.349 OA
ATOM     26  H5  UNL     1      11.852  15.558   7.272  1.00  0.00     0.219 HD
ENDBRANCH  24  25
BRANCH  24  27
HETATM   27  C25 UNL     1      12.286  14.519   9.262  1.00  0.00     0.060 A
HETATM   28  C26 UNL     1      12.166  13.252   8.595  1.00  0.00     0.013 A
HETATM   29  C27 UNL     1      11.350  13.420   9.870  1.00  0.00     0.013 A
ENDBRANCH  24  27
ENDBRANCH  18  24
BRANCH  19  30
HETATM   30  C29 UNL     1       9.532  18.486   9.139  1.00  0.00     0.039 C
BRANCH  30  31
HETATM   31  C30 UNL     1       8.434  19.010   8.347  1.00  0.00    -0.020 C
HETATM   32  C31 UNL     1       8.386  18.268   6.988  1.00  0.00     0.009 C
HETATM   33  C32 UNL     1       8.524  20.466   7.965  1.00  0.00     0.009 C
ENDBRANCH  30  31
ENDBRANCH  19  30
BRANCH  16  34
HETATM   34  C21 UNL     1      12.442  15.288  12.698  1.00  0.00     0.029 C
HETATM   35  C22 UNL     1      13.767  15.841  12.244  1.00  0.00     0.007 C
ENDBRANCH  16  34
BRANCH  14  36
HETATM   36  C16 UNL     1      10.237  18.235  15.290  1.00  0.00     0.013 C
HETATM   37  C17 UNL     1      11.229  19.194  14.741  1.00  0.00     0.012 C
BRANCH  36  38
HETATM   38  C18 UNL     1      10.348  18.136  16.762  1.00  0.00     0.002 C
HETATM   39  C19 UNL     1      11.375  19.190  17.200  1.00  0.00     0.005 C
ENDBRANCH  36  38
ENDBRANCH  14  36
BRANCH   1  40
HETATM   40  C3  UNL     1       7.003  14.282   9.096  1.00  0.00     0.035 C
BRANCH  40  41
HETATM   41  C2  UNL     1       8.284  13.710   8.471  1.00  0.00    -0.002 C
HETATM   42  C1  UNL     1       8.644  14.419   7.197  1.00  0.00     0.005 C
ENDBRANCH  40  41
ENDBRANCH   1  40
BRANCH  13  43
HETATM   43  O3  UNL     1      11.871  15.835  16.106  1.00  0.00    -0.391 OA
ATOM     44  H3  UNL     1      12.204  16.687  16.364  1.00  0.00     0.210 HD
ENDBRANCH  13  43
BRANCH  12  45
HETATM   45  C10 UNL     1       9.990  14.009  17.072  1.00  0.00     0.031 C
BRANCH  45  46
HETATM   46  C11 UNL     1       9.148  14.793  18.023  1.00  0.00    -0.021 C
HETATM   47  C12 UNL     1       8.072  13.955  18.658  1.00  0.00     0.009 C
HETATM   48  C13 UNL     1      10.036  15.375  19.136  1.00  0.00     0.009 C
ENDBRANCH  45  46
ENDBRANCH  12  45
TORSDOF 13
ENDMDL