MODEL 4
REMARK VINA RESULT: -3.695184090      2.149      6.388
REMARK  10 active torsions:
REMARK  status: ('A' for Active; 'I' for Inactive)
REMARK    1  A    between atoms: C2_2  and  C3_3
REMARK    2  A    between atoms: C3_3  and  C5_5
REMARK    3  A    between atoms: C7_10  and  C8_11
REMARK    4  A    between atoms: C8_11  and  C9_12
REMARK    5  A    between atoms: C13_19  and  C14_20
REMARK    6  A    between atoms: C14_20  and  C15_21
REMARK    7  A    between atoms: C25_36  and  C26_37
REMARK    8  A    between atoms: C26_37  and  C27_38
REMARK    9  A    between atoms: C28_41  and  C29_42
REMARK   10  A    between atoms: C29_42  and  C31_44
ROOT
HETATM    1  C5  UNL     1       9.241  15.936  10.115  1.00  0.00     0.180 C
HETATM    2  N1  UNL     1      10.058  15.086   9.277  1.00  0.00    -0.346 N
ATOM      3  H1  UNL     1      10.454  15.488   8.427  1.00  0.00     0.163 HD
HETATM    4  C6  UNL     1      10.344  13.720   9.567  1.00  0.00     0.241 C
HETATM    5  O1  UNL     1      11.509  13.293   9.320  1.00  0.00    -0.271 OA
HETATM    6  C7  UNL     1       9.355  12.797  10.136  1.00  0.00     0.177 C
HETATM    7  N2  UNL     1      10.050  11.706  10.818  1.00  0.00    -0.346 N
ATOM      8  H2  UNL     1      10.890  11.328  10.379  1.00  0.00     0.163 HD
HETATM    9  C12 UNL     1       9.642  11.150  12.021  1.00  0.00     0.241 C
HETATM   10  O2  UNL     1       9.557   9.874  12.098  1.00  0.00    -0.271 OA
HETATM   11  C13 UNL     1       9.286  11.894  13.264  1.00  0.00     0.177 C
HETATM   12  N3  UNL     1      10.434  11.970  14.137  1.00  0.00    -0.346 N
ATOM     13  H3  UNL     1      11.094  11.193  14.093  1.00  0.00     0.163 HD
HETATM   14  C18 UNL     1      10.740  13.012  15.048  1.00  0.00     0.241 C
HETATM   15  O3  UNL     1      11.931  13.433  15.018  1.00  0.00    -0.271 OA
HETATM   16  C19 UNL     1       9.838  13.631  15.999  1.00  0.00     0.179 C
HETATM   17  C20 UNL     1      10.550  14.176  17.244  1.00  0.00     0.035 C
HETATM   18  C21 UNL     1       9.571  14.978  18.075  1.00  0.00     0.004 C
HETATM   19  C22 UNL     1       8.137  14.686  17.787  1.00  0.00     0.020 C
HETATM   20  C23 UNL     1       7.748  14.764  16.353  1.00  0.00     0.127 C
HETATM   21  N4  UNL     1       9.008  14.719  15.552  1.00  0.00    -0.338 N
HETATM   22  C24 UNL     1       9.230  15.658  14.544  1.00  0.00     0.227 C
HETATM   23  O4  UNL     1       8.251  15.817  13.724  1.00  0.00    -0.273 OA
HETATM   24  C25 UNL     1      10.405  16.507  14.257  1.00  0.00     0.111 C
HETATM   25  C28 UNL     1      10.937  16.379  12.852  1.00  0.00     0.101 C
HETATM   26  N5  UNL     1      10.420  17.345  11.928  1.00  0.00    -0.353 N
ATOM     27  H5  UNL     1      10.395  18.310  12.256  1.00  0.00     0.163 HD
HETATM   28  C33 UNL     1       9.943  17.125  10.629  1.00  0.00     0.241 C
HETATM   29  O7  UNL     1      10.133  18.060   9.774  1.00  0.00    -0.271 OA
ENDROOT
BRANCH   1  30
HETATM   30  C3  UNL     1       7.989  16.437   9.379  1.00  0.00     0.013 C
HETATM   31  C4  UNL     1       6.715  16.016  10.029  1.00  0.00     0.012 C
BRANCH  30  32
HETATM   32  C2  UNL     1       8.091  15.899   7.952  1.00  0.00     0.002 C
HETATM   33  C1  UNL     1       6.853  16.251   7.157  1.00  0.00     0.005 C
ENDBRANCH  30  32
ENDBRANCH   1  30
BRANCH   6  34
HETATM   34  C8  UNL     1       8.368  12.320   9.160  1.00  0.00     0.038 C
BRANCH  34  35
HETATM   35  C9  UNL     1       6.939  12.221   9.519  1.00  0.00    -0.020 C
HETATM   36  C10 UNL     1       6.170  12.680   8.243  1.00  0.00     0.009 C
HETATM   37  C11 UNL     1       6.412  10.838   9.790  1.00  0.00     0.009 C
ENDBRANCH  34  35
ENDBRANCH   6  34
BRANCH  25  38
HETATM   38  C29 UNL     1      12.449  16.419  12.815  1.00  0.00     0.005 C
HETATM   39  C30 UNL     1      13.030  17.779  12.633  1.00  0.00     0.012 C
BRANCH  38  40
HETATM   40  C31 UNL     1      13.014  15.519  11.743  1.00  0.00     0.002 C
HETATM   41  C32 UNL     1      14.544  15.559  11.830  1.00  0.00     0.005 C
ENDBRANCH  38  40
ENDBRANCH  25  38
BRANCH  24  42
HETATM   42  C26 UNL     1       9.987  17.950  14.454  1.00  0.00     0.129 C
BRANCH  42  43
HETATM   43  C27 UNL     1      10.520  18.595  15.653  1.00  0.00     0.173 C
HETATM   44  O5  UNL     1       9.982  18.568  16.786  1.00  0.00    -0.648 OA
HETATM   45  O6  UNL     1      11.727  19.314  15.583  1.00  0.00    -0.648 OA
ENDBRANCH  42  43
ENDBRANCH  24  42
BRANCH  11  46
HETATM   46  C14 UNL     1       8.182  11.109  13.943  1.00  0.00     0.038 C
BRANCH  46  47
HETATM   47  C15 UNL     1       6.814  11.433  13.409  1.00  0.00    -0.020 C
HETATM   48  C16 UNL     1       6.590  12.913  13.209  1.00  0.00     0.009 C
HETATM   49  C17 UNL     1       5.731  10.892  14.353  1.00  0.00     0.009 C
ENDBRANCH  46  47
ENDBRANCH  11  46
TORSDOF 10
ENDMDL