MODEL 4
REMARK VINA RESULT: -7.942978963      2.640      8.900
REMARK  16 active torsions:
REMARK  status: ('A' for Active; 'I' for Inactive)
REMARK       I    between atoms: N1_2  and  C2_4
REMARK    1  A    between atoms: C2_4  and  C3_6
REMARK    2  A    between atoms: C3_6  and  O2_7
REMARK    3  A    between atoms: C3_6  and  C4_9
REMARK    4  A    between atoms: C4_9  and  C5_10
REMARK    5  A    between atoms: C4_9  and  C18_35
REMARK    6  A    between atoms: C4_9  and  C31_49
REMARK    7  A    between atoms: C5_10  and  O3_11
REMARK    8  A    between atoms: C5_10  and  N2_13
REMARK       I    between atoms: N2_13  and  C6_15
REMARK    9  A    between atoms: C6_15  and  C7_17
REMARK   10  A    between atoms: C7_17  and  C8_18
REMARK   11  A    between atoms: C7_17  and  N3_22
REMARK   12  A    between atoms: C8_18  and  C9_19
REMARK       I    between atoms: C12_24  and  N4_25
REMARK       I    between atoms: C12_24  and  N6_29
REMARK   13  A    between atoms: N6_29  and  C14_31
REMARK   14  A    between atoms: C18_35  and  C19_36
REMARK   15  A    between atoms: C18_35  and  N7_44
REMARK   16  A    between atoms: C19_36  and  C20_37
ROOT
HETATM    1  N3  UNL     1      17.351  24.802  17.657  1.00  0.00    -0.212 N
ATOM      2  H3  UNL     1      16.564  25.142  17.106  1.00  0.00     0.178 HD
HETATM    3  C12 UNL     1      16.921  24.115  18.554  1.00  0.00     0.684 C
HETATM    4  N4  UNL     1      15.483  23.940  18.642  1.00  0.00    -0.126 N
ATOM      5  H4  UNL     1      15.027  24.151  19.529  1.00  0.00     0.197 HD
HETATM    6  C13 UNL     1      14.700  23.508  17.599  1.00  0.00     0.196 C
HETATM    7  N5  UNL     1      14.049  23.133  16.712  1.00  0.00    -0.171 NA
HETATM    8  N6  UNL     1      17.644  23.445  19.555  1.00  0.00    -0.218 N
ATOM      9  H6  UNL     1      17.970  23.993  20.351  1.00  0.00     0.178 HD
ENDROOT
BRANCH   1  10
HETATM   10  C7  UNL     1      18.544  25.310  17.089  1.00  0.00     0.192 C
BRANCH  10  11
HETATM   11  C6  UNL     1      19.742  24.743  17.747  1.00  0.00     0.246 C
HETATM   12  N2  UNL     1      20.501  25.402  18.727  1.00  0.00    -0.308 N
ATOM     13  H2  UNL     1      20.198  26.329  19.029  1.00  0.00     0.170 HD
HETATM   14  O4  UNL     1      20.063  23.566  17.360  1.00  0.00    -0.271 OA
BRANCH  12  15
HETATM   15  C5  UNL     1      21.658  24.859  19.318  1.00  0.00     0.140 C
BRANCH  15  16
HETATM   16  C4  UNL     1      22.843  25.444  19.947  1.00  0.00     0.127 C
BRANCH  16  17
HETATM   17  C3  UNL     1      22.378  26.659  20.642  1.00  0.00     0.134 C
BRANCH  17  18
HETATM   18  C2  UNL     1      21.791  27.035  21.850  1.00  0.00     0.271 C
HETATM   19  N1  UNL     1      22.242  26.620  23.167  1.00  0.00    -0.360 N
HETATM   20  C1  UNL     1      21.609  27.029  24.386  1.00  0.00     0.149 C
ATOM     21  H1  UNL     1      23.053  26.003  23.228  1.00  0.00     0.162 HD
HETATM   22  O1  UNL     1      20.798  27.781  21.949  1.00  0.00    -0.266 OA
ENDBRANCH  17  18
BRANCH  17  23
HETATM   23  O2  UNL     1      22.577  27.728  19.890  1.00  0.00    -0.358 OA
ATOM     24  H2  UNL     1      23.261  28.266  20.271  1.00  0.00     0.217 HD
ENDBRANCH  17  23
ENDBRANCH  16  17
BRANCH  16  25
HETATM   25  C18 UNL     1      23.688  25.997  18.750  1.00  0.00     0.028 C
BRANCH  25  26
HETATM   26  C19 UNL     1      22.918  26.064  17.493  1.00  0.00     0.009 C
BRANCH  26  27
HETATM   27  C20 UNL     1      22.828  27.153  16.530  1.00  0.00    -0.024 C
HETATM   28  C21 UNL     1      21.449  27.860  16.784  1.00  0.00     0.019 C
HETATM   29  C22 UNL     1      23.772  28.339  16.964  1.00  0.00     0.013 C
HETATM   30  C23 UNL     1      24.915  28.491  15.995  1.00  0.00     0.001 C
HETATM   31  C24 UNL     1      24.327  29.118  14.727  1.00  0.00     0.000 C
HETATM   32  C25 UNL     1      22.948  28.560  14.553  1.00  0.00     0.001 C
HETATM   33  C26 UNL     1      23.004  27.109  15.107  1.00  0.00     0.013 C
ENDBRANCH  26  27
ENDBRANCH  25  26
BRANCH  25  34
HETATM   34  N7  UNL     1      25.052  25.912  18.706  1.00  0.00    -0.383 N
HETATM   35  C27 UNL     1      25.860  25.296  17.757  1.00  0.00     0.123 C
HETATM   36  C28 UNL     1      27.162  24.910  18.523  1.00  0.00     0.021 C
HETATM   37  C29 UNL     1      27.336  26.099  19.413  1.00  0.00     0.021 C
HETATM   38  C30 UNL     1      25.965  26.724  19.434  1.00  0.00     0.123 C
ENDBRANCH  25  34
ENDBRANCH  16  25
BRANCH  16  39
HETATM   39  C31 UNL     1      23.532  24.466  20.804  1.00  0.00    -0.024 C
HETATM   40  C32 UNL     1      22.485  23.661  21.614  1.00  0.00     0.016 C
HETATM   41  C33 UNL     1      24.590  24.801  21.769  1.00  0.00     0.016 C
HETATM   42  C34 UNL     1      24.147  23.275  20.012  1.00  0.00     0.016 C
ENDBRANCH  16  39
ENDBRANCH  15  16
BRANCH  15  43
HETATM   43  O3  UNL     1      21.603  23.558  19.253  1.00  0.00    -0.348 OA
ATOM     44  H3  UNL     1      22.065  23.073  19.925  1.00  0.00     0.219 HD
ENDBRANCH  15  43
ENDBRANCH  12  15
ENDBRANCH  10  11
BRANCH  10  45
HETATM   45  C8  UNL     1      18.531  25.171  15.599  1.00  0.00     0.039 C
BRANCH  45  46
HETATM   46  C9  UNL     1      19.501  25.956  14.804  1.00  0.00    -0.020 C
HETATM   47  C10 UNL     1      18.836  26.553  13.550  1.00  0.00     0.009 C
HETATM   48  C11 UNL     1      20.528  24.958  14.223  1.00  0.00     0.009 C
ENDBRANCH  45  46
ENDBRANCH  10  45
ENDBRANCH   1  10
BRANCH   8  49
HETATM   49  C14 UNL     1      17.959  22.039  19.533  1.00  0.00     0.036 C
HETATM   50  C15 UNL     1      19.245  21.827  20.316  1.00  0.00     0.038 C
HETATM   51  C16 UNL     1      18.147  21.494  18.160  1.00  0.00     0.038 C
HETATM   52  C17 UNL     1      16.901  21.211  20.238  1.00  0.00     0.038 C
ENDBRANCH   8  49
TORSDOF 16
ENDMDL