MODEL 4
REMARK VINA RESULT: -7.720567604      1.556      2.692
REMARK  13 active torsions:
REMARK  status: ('A' for Active; 'I' for Inactive)
REMARK    1  A    between atoms: C2_2  and  C4_4
REMARK    2  A    between atoms: C4_4  and  C5_5
REMARK    3  A    between atoms: C5_5  and  N1_6
REMARK    4  A    between atoms: C5_5  and  C6_10
REMARK    5  A    between atoms: C6_10  and  C9_13
REMARK    6  A    between atoms: C9_13  and  N2_14
REMARK       I    between atoms: N2_14  and  C10_16
REMARK    7  A    between atoms: C10_16  and  C11_18
REMARK    8  A    between atoms: N3_25  and  S1_26
REMARK    9  A    between atoms: C22_33  and  N4_34
REMARK       I    between atoms: N4_34  and  C23_36
REMARK   10  A    between atoms: C23_36  and  C24_38
REMARK   11  A    between atoms: C24_38  and  N5_39
REMARK   12  A    between atoms: C24_38  and  C25_43
REMARK   13  A    between atoms: C25_43  and  C26_44
ROOT
HETATM    1  C11 UNL     1      11.918  15.988  12.442  1.00  0.00     0.108 C
HETATM    2  C12 UNL     1      12.262  14.811  11.549  1.00  0.00     0.017 C
HETATM    3  C13 UNL     1      11.412  14.783  10.347  1.00  0.00     0.001 C
HETATM    4  C14 UNL     1      10.742  13.539   9.942  1.00  0.00     0.000 C
HETATM    5  C15 UNL     1      11.142  12.253  10.540  1.00  0.00     0.005 C
HETATM    6  C16 UNL     1      10.031  11.488  11.229  1.00  0.00     0.046 C
HETATM    7  C17 UNL     1       9.340  12.216  12.336  1.00  0.00     0.081 C
HETATM    8  N3  UNL     1      10.066  12.199  13.508  1.00  0.00    -0.270 N
HETATM    9  C19 UNL     1      10.420  13.333  14.235  1.00  0.00     0.088 C
HETATM   10  C20 UNL     1      10.196  14.693  13.737  1.00  0.00     0.059 C
HETATM   11  C21 UNL     1       9.207  15.475  14.572  1.00  0.00     0.066 C
HETATM   12  C22 UNL     1      10.058  16.421  15.346  1.00  0.00     0.224 C
HETATM   13  O5  UNL     1      11.141  16.655  14.550  1.00  0.00    -0.360 OA
HETATM   14  C32 UNL     1      11.451  15.546  13.827  1.00  0.00     0.146 C
ENDROOT
BRANCH   1  15
HETATM   15  C10 UNL     1      13.064  16.932  12.612  1.00  0.00     0.228 C
HETATM   16  N2  UNL     1      12.908  18.238  13.082  1.00  0.00    -0.340 N
ATOM     17  H2  UNL     1      11.936  18.447  13.308  1.00  0.00     0.167 HD
HETATM   18  O1  UNL     1      14.175  16.468  12.301  1.00  0.00    -0.273 OA
BRANCH  16  19
HETATM   19  C9  UNL     1      13.741  19.327  13.321  1.00  0.00     0.075 C
BRANCH  19  20
HETATM   20  C6  UNL     1      13.478  20.342  14.367  1.00  0.00     0.013 C
HETATM   21  C7  UNL     1      14.568  20.497  15.354  1.00  0.00     0.023 C
HETATM   22  C8  UNL     1      13.363  21.748  13.693  1.00  0.00     0.023 C
BRANCH  20  23
HETATM   23  C5  UNL     1      12.110  20.136  15.001  1.00  0.00     0.196 C
BRANCH  23  24
HETATM   24  C4  UNL     1      11.084  21.165  14.814  1.00  0.00     0.037 C
BRANCH  24  25
HETATM   25  C2  UNL     1       9.675  20.825  14.541  1.00  0.00    -0.021 C
HETATM   26  C1  UNL     1       8.947  21.865  13.716  1.00  0.00     0.009 C
HETATM   27  C3  UNL     1       9.712  19.577  13.589  1.00  0.00     0.009 C
ENDBRANCH  24  25
ENDBRANCH  23  24
BRANCH  23  28
HETATM   28  N1  UNL     1      12.356  20.108  16.476  1.00  0.00    -0.074 N
ATOM     29  H13 UNL     1      11.531  19.880  17.030  1.00  0.00     0.274 HD
ATOM     30  H12 UNL     1      12.925  19.322  16.786  1.00  0.00     0.274 HD
ATOM     31  H11 UNL     1      12.758  21.021  16.688  1.00  0.00     0.274 HD
ENDBRANCH  23  28
ENDBRANCH  20  23
ENDBRANCH  19  20
ENDBRANCH  16  19
ENDBRANCH   1  15
BRANCH  12  32
HETATM   32  N4  UNL     1      10.382  15.831  16.619  1.00  0.00    -0.333 N
HETATM   33  C23 UNL     1      10.597  16.594  17.799  1.00  0.00     0.250 C
HETATM   34  O4  UNL     1      10.498  17.858  17.715  1.00  0.00    -0.271 OA
ATOM     35  H4  UNL     1      10.461  14.816  16.677  1.00  0.00     0.165 HD
BRANCH  33  36
HETATM   36  C24 UNL     1      10.925  16.032  19.110  1.00  0.00     0.275 C
BRANCH  36  37
HETATM   37  N5  UNL     1       9.879  15.259  19.698  1.00  0.00    -0.066 N
ATOM     38  H53 UNL     1      10.115  14.266  19.678  1.00  0.00     0.275 HD
ATOM     39  H52 UNL     1       9.848  15.410  20.706  1.00  0.00     0.275 HD
ATOM     40  H51 UNL     1       8.959  15.414  19.287  1.00  0.00     0.275 HD
ENDBRANCH  36  37
BRANCH  36  41
HETATM   41  C25 UNL     1      11.499  17.016  20.071  1.00  0.00     0.047 C
BRANCH  41  42
HETATM   42  C26 UNL     1      12.977  16.999  20.230  1.00  0.00    -0.012 C
HETATM   43  C27 UNL     1      13.371  18.392  20.748  1.00  0.00     0.005 C
HETATM   44  C28 UNL     1      13.475  19.308  19.548  1.00  0.00     0.000 C
HETATM   45  C29 UNL     1      14.841  19.015  18.919  1.00  0.00     0.000 C
HETATM   46  C30 UNL     1      15.087  17.543  19.110  1.00  0.00     0.000 C
HETATM   47  C31 UNL     1      13.764  16.775  18.981  1.00  0.00     0.005 C
ENDBRANCH  41  42
ENDBRANCH  36  41
ENDBRANCH  33  36
ENDBRANCH  12  32
BRANCH   8  48
HETATM   48  S1  UNL     1       9.581  10.897  14.566  1.00  0.00     0.231 S
HETATM   49  C18 UNL     1       9.305  11.463  16.206  1.00  0.00     0.186 C
HETATM   50  O2  UNL     1      10.757   9.941  14.594  1.00  0.00    -0.206 OA
HETATM   51  O3  UNL     1       8.356  10.230  14.023  1.00  0.00    -0.206 OA
ENDBRANCH   8  48
TORSDOF 13
ENDMDL