MODEL 4
REMARK VINA RESULT: -3.667847873      0.914      1.029
REMARK  12 active torsions:
REMARK  status: ('A' for Active; 'I' for Inactive)
REMARK    1  A    between atoms: C2_2  and  C3_3
REMARK    2  A    between atoms: C3_3  and  C5_5
REMARK    3  A    between atoms: C5_5  and  C6_6
REMARK    4  A    between atoms: C8_11  and  C9_12
REMARK    5  A    between atoms: C9_12  and  C11_14
REMARK    6  A    between atoms: C13_21  and  C14_22
REMARK    7  A    between atoms: C14_22  and  C16_24
REMARK    8  A    between atoms: C19_30  and  C20_31
REMARK    9  A    between atoms: C23_36  and  O6_37
REMARK   10  A    between atoms: C28_44  and  O7_45
REMARK   11  A    between atoms: C29_47  and  C30_48
REMARK   12  A    between atoms: C30_48  and  C31_49
ROOT
HETATM    1  C6  UNL     1       9.881  13.489  13.972  1.00  0.00     0.018 C
HETATM    2  C7  UNL     1      11.032  14.262  14.422  1.00  0.00     0.249 C
HETATM    3  O1  UNL     1      11.500  13.907  15.553  1.00  0.00    -0.268 OA
HETATM    4  N1  UNL     1      11.727  15.336  13.825  1.00  0.00    -0.335 N
ATOM      5  H1  UNL     1      12.668  15.092  13.515  1.00  0.00     0.164 HD
HETATM    6  C8  UNL     1      11.373  16.700  13.569  1.00  0.00     0.201 C
HETATM    7  N2  UNL     1      10.905  17.049  12.283  1.00  0.00    -0.337 N
ATOM      8  H2  UNL     1      10.299  17.870  12.285  1.00  0.00     0.164 HD
HETATM    9  C12 UNL     1      11.096  16.508  11.007  1.00  0.00     0.242 C
HETATM   10  O4  UNL     1      11.494  17.371  10.130  1.00  0.00    -0.271 OA
HETATM   11  C13 UNL     1      10.917  15.147  10.528  1.00  0.00     0.180 C
HETATM   12  N3  UNL     1       9.570  14.770  10.148  1.00  0.00    -0.342 N
ATOM     13  H3  UNL     1       9.439  13.765  10.030  1.00  0.00     0.163 HD
HETATM   14  C18 UNL     1       8.432  15.512   9.913  1.00  0.00     0.265 C
HETATM   15  O5  UNL     1       7.946  15.422   8.715  1.00  0.00    -0.266 OA
HETATM   16  C19 UNL     1       7.638  16.412  10.778  1.00  0.00     0.083 C
HETATM   17  N4  UNL     1       7.406  16.033  12.113  1.00  0.00    -0.337 N
ATOM     18  H4  UNL     1       8.012  16.499  12.788  1.00  0.00     0.167 HD
HETATM   19  C23 UNL     1       6.485  15.122  12.697  1.00  0.00     0.139 C
HETATM   20  C24 UNL     1       6.303  13.712  12.381  1.00  0.00     0.160 C
HETATM   21  C25 UNL     1       4.781  13.454  12.502  1.00  0.00     0.035 C
HETATM   22  C26 UNL     1       4.742  11.967  12.440  1.00  0.00     0.022 C
HETATM   23  C27 UNL     1       6.149  11.502  12.594  1.00  0.00     0.125 C
HETATM   24  N5  UNL     1       6.798  12.702  13.249  1.00  0.00    -0.353 N
HETATM   25  C28 UNL     1       7.610  12.643  14.356  1.00  0.00     0.123 C
HETATM   26  C29 UNL     1       8.658  13.614  14.846  1.00  0.00     0.099 C
ENDROOT
BRANCH   1  27
HETATM   27  C5  UNL     1      10.160  12.188  13.391  1.00  0.00    -0.009 C
BRANCH  27  28
HETATM   28  C3  UNL     1      10.375  11.782  12.023  1.00  0.00     0.004 C
HETATM   29  C4  UNL     1      10.767  10.252  12.011  1.00  0.00     0.014 C
BRANCH  28  30
HETATM   30  C2  UNL     1       9.267  11.831  11.018  1.00  0.00     0.003 C
HETATM   31  C1  UNL     1       9.239  10.660  10.067  1.00  0.00     0.006 C
ENDBRANCH  28  30
ENDBRANCH  27  28
ENDBRANCH   1  27
BRANCH  26  32
HETATM   32  C30 UNL     1       8.846  13.551  16.307  1.00  0.00     0.021 C
BRANCH  32  33
HETATM   33  C31 UNL     1       8.267  14.729  17.094  1.00  0.00    -0.022 C
HETATM   34  C32 UNL     1       6.813  14.375  17.480  1.00  0.00     0.009 C
HETATM   35  C33 UNL     1       8.982  14.976  18.371  1.00  0.00     0.009 C
ENDBRANCH  32  33
ENDBRANCH  26  32
BRANCH  25  36
HETATM   36  O7  UNL     1       7.523  11.619  15.153  1.00  0.00    -0.349 OA
ATOM     37  H7  UNL     1       8.213  11.466  15.787  1.00  0.00     0.219 HD
ENDBRANCH  25  36
BRANCH   6  38
HETATM   38  C9  UNL     1      10.500  17.353  14.624  1.00  0.00     0.125 C
HETATM   39  C10 UNL     1       9.999  18.656  14.110  1.00  0.00     0.025 C
BRANCH  38  40
HETATM   40  C11 UNL     1      11.287  17.625  15.859  1.00  0.00     0.180 C
HETATM   41  O2  UNL     1      11.426  16.776  16.765  1.00  0.00    -0.648 OA
HETATM   42  O3  UNL     1      11.872  18.880  15.971  1.00  0.00    -0.648 OA
ENDBRANCH  38  40
ENDBRANCH   6  38
BRANCH  19  43
HETATM   43  O6  UNL     1       5.685  15.549  13.629  1.00  0.00    -0.348 OA
ATOM     44  H6  UNL     1       5.449  14.961  14.337  1.00  0.00     0.219 HD
ENDBRANCH  19  43
BRANCH  11  45
HETATM   45  C14 UNL     1      11.846  14.896   9.357  1.00  0.00     0.013 C
HETATM   46  C15 UNL     1      13.282  14.749   9.707  1.00  0.00     0.012 C
BRANCH  45  47
HETATM   47  C16 UNL     1      11.393  13.731   8.519  1.00  0.00     0.002 C
HETATM   48  C17 UNL     1      12.273  12.548   8.862  1.00  0.00     0.005 C
ENDBRANCH  45  47
ENDBRANCH  11  45
BRANCH  16  49
HETATM   49  C20 UNL     1       6.409  16.968  10.066  1.00  0.00     0.033 C
HETATM   50  C21 UNL     1       6.486  18.384   9.661  1.00  0.00     0.016 C
HETATM   51  C22 UNL     1       5.145  16.711  10.856  1.00  0.00     0.016 C
ENDBRANCH  16  49
TORSDOF 12
ENDMDL