MODEL 2
REMARK VINA RESULT: -6.322601883     13.645     18.035
REMARK  13 active torsions:
REMARK  status: ('A' for Active; 'I' for Inactive)
REMARK    1  A    between atoms: C2_2  and  S1_4
REMARK    2  A    between atoms: S1_4  and  C3_5
REMARK    3  A    between atoms: C3_5  and  C4_6
REMARK    4  A    between atoms: C4_6  and  C6_8
REMARK    5  A    between atoms: C6_8  and  C7_9
REMARK    6  A    between atoms: C7_9  and  C8_10
REMARK    7  A    between atoms: C8_10  and  C9_11
REMARK    8  A    between atoms: C9_11  and  C10_12
REMARK    9  A    between atoms: C10_12  and  C11_13
REMARK   10  A    between atoms: C12_16  and  O2_17
REMARK   11  A    between atoms: C18_24  and  O3_25
REMARK   12  A    between atoms: C19_29  and  C20_30
REMARK   13  A    between atoms: C20_30  and  C21_31
ROOT
HETATM    1  C11 UNL     1      26.677  24.620  21.899  1.00  0.00     0.079 C
HETATM    2  N1  UNL     1      25.651  25.572  21.902  1.00  0.00    -0.338 N
ATOM      3  H1  UNL     1      26.017  26.435  22.304  1.00  0.00     0.167 HD
HETATM    4  C12 UNL     1      24.337  25.777  21.564  1.00  0.00     0.133 C
HETATM    5  C13 UNL     1      23.288  25.235  20.699  1.00  0.00     0.089 C
HETATM    6  C14 UNL     1      23.238  23.804  20.396  1.00  0.00     0.026 C
HETATM    7  C15 UNL     1      21.774  23.586  19.958  1.00  0.00     0.002 C
HETATM    8  C16 UNL     1      20.980  24.542  20.786  1.00  0.00     0.002 C
HETATM    9  C17 UNL     1      22.028  25.152  21.692  1.00  0.00     0.026 C
HETATM   10  C18 UNL     1      22.837  26.177  19.621  1.00  0.00     0.130 C
HETATM   11  N2  UNL     1      22.644  26.173  18.272  1.00  0.00    -0.352 N
ATOM     12  H2  UNL     1      21.703  25.843  18.058  1.00  0.00     0.163 HD
HETATM   13  C19 UNL     1      23.337  26.483  17.059  1.00  0.00     0.188 C
HETATM   14  N3  UNL     1      24.752  26.396  17.028  1.00  0.00    -0.330 N
HETATM   15  C24 UNL     1      25.359  26.844  15.723  1.00  0.00     0.128 C
HETATM   16  C25 UNL     1      26.793  26.339  15.758  1.00  0.00     0.021 C
HETATM   17  C26 UNL     1      27.654  26.797  16.921  1.00  0.00     0.023 C
HETATM   18  C27 UNL     1      26.755  27.065  18.147  1.00  0.00     0.066 C
HETATM   19  C28 UNL     1      26.367  28.484  18.202  1.00  0.00     0.041 C
HETATM   20  C29 UNL     1      27.104  29.574  17.409  1.00  0.00     0.120 C
HETATM   21  N4  UNL     1      28.500  29.834  18.229  1.00  0.00    -0.399 N
ATOM     22  H4  UNL     1      29.120  30.641  18.167  1.00  0.00     0.158 HD
HETATM   23  C30 UNL     1      28.640  28.771  18.981  1.00  0.00     0.080 C
HETATM   24  C31 UNL     1      28.374  27.893  19.348  1.00  0.00     0.016 C
HETATM   25  C32 UNL     1      27.558  26.774  19.505  1.00  0.00     0.127 C
HETATM   26  N5  UNL     1      27.975  25.534  19.782  1.00  0.00    -0.347 N
ATOM     27  H5  UNL     1      28.524  25.098  19.041  1.00  0.00     0.163 HD
HETATM   28  C33 UNL     1      27.784  24.715  20.939  1.00  0.00     0.264 C
HETATM   29  O4  UNL     1      28.749  23.893  21.220  1.00  0.00    -0.266 OA
HETATM   30  C34 UNL     1      25.767  25.994  17.892  1.00  0.00     0.232 C
HETATM   31  O5  UNL     1      26.020  24.920  18.482  1.00  0.00    -0.272 OA
ENDROOT
BRANCH   1  32
HETATM   32  C10 UNL     1      26.352  23.158  22.027  1.00  0.00     0.063 C
BRANCH  32  33
HETATM   33  C9  UNL     1      26.554  22.408  20.727  1.00  0.00     0.006 C
BRANCH  33  34
HETATM   34  C8  UNL     1      27.259  21.085  20.966  1.00  0.00     0.000 C
BRANCH  34  35
HETATM   35  C7  UNL     1      27.033  20.088  19.879  1.00  0.00     0.000 C
BRANCH  35  36
HETATM   36  C6  UNL     1      28.047  18.986  19.856  1.00  0.00     0.005 C
BRANCH  36  37
HETATM   37  C4  UNL     1      27.416  17.619  19.998  1.00  0.00    -0.009 C
HETATM   38  C5  UNL     1      26.449  17.530  21.138  1.00  0.00     0.011 C
BRANCH  37  39
HETATM   39  C3  UNL     1      26.738  17.183  18.719  1.00  0.00     0.086 C
BRANCH  39  40
HETATM   40  S1  UNL     1      26.437  15.404  18.694  1.00  0.00    -0.093 SA
BRANCH  40  41
HETATM   41  C2  UNL     1      24.769  14.981  19.122  1.00  0.00     0.182 C
HETATM   42  C1  UNL     1      24.297  13.619  19.455  1.00  0.00     0.104 C
HETATM   43  O1  UNL     1      23.943  15.883  19.145  1.00  0.00    -0.286 OA
ENDBRANCH  40  41
ENDBRANCH  39  40
ENDBRANCH  37  39
ENDBRANCH  36  37
ENDBRANCH  35  36
ENDBRANCH  34  35
ENDBRANCH  33  34
ENDBRANCH  32  33
ENDBRANCH   1  32
BRANCH   4  44
HETATM   44  O2  UNL     1      23.816  26.805  22.228  1.00  0.00    -0.348 OA
ATOM     45  H2  UNL     1      23.746  26.622  23.158  1.00  0.00     0.219 HD
ENDBRANCH   4  44
BRANCH  10  46
HETATM   46  O3  UNL     1      22.566  27.295  20.232  1.00  0.00    -0.349 OA
ATOM     47  H3  UNL     1      21.619  27.318  20.307  1.00  0.00     0.219 HD
ENDBRANCH  10  46
BRANCH  13  48
HETATM   48  C20 UNL     1      22.849  27.745  16.405  1.00  0.00     0.050 C
BRANCH  48  49
HETATM   49  C21 UNL     1      21.792  27.695  15.376  1.00  0.00    -0.019 C
HETATM   50  C22 UNL     1      21.991  28.494  14.133  1.00  0.00     0.009 C
HETATM   51  C23 UNL     1      21.668  26.222  14.916  1.00  0.00     0.009 C
ENDBRANCH  48  49
ENDBRANCH  13  48
TORSDOF 13
ENDMDL