MODEL 2
REMARK VINA RESULT: -8.578691147      1.228      1.537
REMARK  13 active torsions:
REMARK  status: ('A' for Active; 'I' for Inactive)
REMARK    1  A    between atoms: C2_2  and  C4_4
REMARK    2  A    between atoms: C4_4  and  N1_5
REMARK    3  A    between atoms: C4_4  and  C5_9
REMARK    4  A    between atoms: C5_9  and  N2_10
REMARK    5  A    between atoms: C5_9  and  C22_35
REMARK       I    between atoms: N2_10  and  C6_12
REMARK    6  A    between atoms: C6_12  and  C7_14
REMARK    7  A    between atoms: C7_14  and  N3_15
REMARK    8  A    between atoms: N3_15  and  C8_16
REMARK    9  A    between atoms: N3_15  and  S1_23
REMARK   10  A    between atoms: C8_16  and  C9_17
REMARK   11  A    between atoms: S1_23  and  N4_26
REMARK   12  A    between atoms: C23_36  and  C24_37
REMARK   13  A    between atoms: N6_43  and  C28_44
ROOT
HETATM    1  N2  UNL     1      22.003  25.248  19.183  1.00  0.00    -0.348 N
ATOM      2  H2  UNL     1      22.209  24.359  19.640  1.00  0.00     0.163 HD
HETATM    3  C6  UNL     1      20.816  25.407  18.482  1.00  0.00     0.247 C
HETATM    4  O1  UNL     1      20.633  26.562  17.920  1.00  0.00    -0.271 OA
ENDROOT
BRANCH   1   5
HETATM    5  C5  UNL     1      23.019  26.420  19.274  1.00  0.00     0.156 C
BRANCH   5   6
HETATM    6  C4  UNL     1      22.543  27.078  20.559  1.00  0.00     0.214 C
BRANCH   6   7
HETATM    7  C2  UNL     1      22.176  25.953  21.564  1.00  0.00     0.010 C
HETATM    8  C1  UNL     1      20.787  26.116  22.108  1.00  0.00     0.011 C
HETATM    9  C3  UNL     1      23.073  26.289  22.792  1.00  0.00     0.011 C
ENDBRANCH   6   7
BRANCH   6  10
HETATM   10  N1  UNL     1      21.398  27.906  20.467  1.00  0.00    -0.072 N
ATOM     11  H13 UNL     1      20.528  27.423  20.694  1.00  0.00     0.274 HD
ATOM     12  H12 UNL     1      21.343  28.609  21.203  1.00  0.00     0.274 HD
ATOM     13  H11 UNL     1      21.413  28.300  19.527  1.00  0.00     0.274 HD
ENDBRANCH   6  10
ENDBRANCH   5   6
BRANCH   5  14
HETATM   14  C22 UNL     1      24.288  25.715  19.272  1.00  0.00     0.061 A
HETATM   15  C23 UNL     1      25.365  25.949  18.413  1.00  0.00     0.047 A
HETATM   16  N5  UNL     1      26.223  24.932  18.610  1.00  0.00    -0.298 N
HETATM   17  N6  UNL     1      25.819  24.086  19.492  1.00  0.00    -0.248 N
ATOM     18  H5  UNL     1      27.107  24.840  18.108  1.00  0.00     0.187 HD
HETATM   19  C32 UNL     1      24.607  24.550  19.929  1.00  0.00     0.273 A
HETATM   20  O5  UNL     1      24.015  23.868  20.806  1.00  0.00    -0.266 OA
BRANCH  15  21
HETATM   21  C24 UNL     1      25.629  27.098  17.568  1.00  0.00    -0.006 C
HETATM   22  C25 UNL     1      24.493  27.827  16.955  1.00  0.00     0.021 C
HETATM   23  C26 UNL     1      26.447  26.603  16.333  1.00  0.00     0.021 C
HETATM   24  C27 UNL     1      26.628  28.073  18.233  1.00  0.00     0.021 C
ENDBRANCH  15  21
BRANCH  17  25
HETATM   25  C28 UNL     1      26.535  22.893  19.896  1.00  0.00     0.046 C
HETATM   26  C29 UNL     1      25.932  21.655  19.228  1.00  0.00     0.040 C
HETATM   27  C30 UNL     1      26.457  22.625  21.382  1.00  0.00     0.040 C
HETATM   28  C31 UNL     1      28.027  23.018  19.590  1.00  0.00     0.040 C
ENDBRANCH  17  25
ENDBRANCH   5  14
ENDBRANCH   1   5
BRANCH   3  29
HETATM   29  C7  UNL     1      19.768  24.399  18.336  1.00  0.00     0.125 C
HETATM   30  C19 UNL     1      18.890  24.330  19.590  1.00  0.00     0.042 C
HETATM   31  C20 UNL     1      19.749  23.209  20.109  1.00  0.00     0.006 C
HETATM   32  C21 UNL     1      20.373  23.056  18.762  1.00  0.00     0.042 C
BRANCH  29  33
HETATM   33  N3  UNL     1      19.049  24.361  17.122  1.00  0.00    -0.274 N
BRANCH  33  34
HETATM   34  C8  UNL     1      19.625  23.771  15.976  1.00  0.00     0.143 C
BRANCH  34  35
HETATM   35  C9  UNL     1      19.841  24.717  14.797  1.00  0.00     0.004 C
HETATM   36  C10 UNL     1      19.348  26.105  15.027  1.00  0.00     0.006 C
HETATM   37  C11 UNL     1      20.029  26.971  13.955  1.00  0.00     0.000 C
HETATM   38  C12 UNL     1      21.500  27.173  14.287  1.00  0.00     0.000 C
HETATM   39  C13 UNL     1      21.991  25.977  15.060  1.00  0.00     0.000 C
HETATM   40  C14 UNL     1      21.349  24.735  14.529  1.00  0.00     0.006 C
ENDBRANCH  34  35
ENDBRANCH  33  34
BRANCH  33  41
HETATM   41  S1  UNL     1      17.384  24.070  17.317  1.00  0.00     0.323 S
HETATM   42  O2  UNL     1      16.725  25.220  17.990  1.00  0.00    -0.182 OA
HETATM   43  O3  UNL     1      16.791  24.140  15.865  1.00  0.00    -0.182 OA
BRANCH  41  44
HETATM   44  N4  UNL     1      16.919  22.633  18.031  1.00  0.00    -0.270 N
HETATM   45  C15 UNL     1      17.474  21.397  17.663  1.00  0.00     0.103 C
HETATM   46  C16 UNL     1      16.604  20.224  18.116  1.00  0.00     0.213 C
HETATM   47  O4  UNL     1      16.184  20.500  19.415  1.00  0.00    -0.385 OA
HETATM   48  C17 UNL     1      15.227  21.486  19.366  1.00  0.00     0.189 C
HETATM   49  C18 UNL     1      15.528  22.551  18.324  1.00  0.00     0.168 C
ENDBRANCH  41  44
ENDBRANCH  33  41
ENDBRANCH  29  33
ENDBRANCH   3  29
TORSDOF 13
ENDMDL