MODEL 3
REMARK VINA RESULT: -8.162957558      4.315      9.156
REMARK  11 active torsions:
REMARK  status: ('A' for Active; 'I' for Inactive)
REMARK    1  A    between atoms: C2_2  and  C4_4
REMARK    2  A    between atoms: C4_4  and  C5_5
REMARK    3  A    between atoms: C7_10  and  C8_11
REMARK    4  A    between atoms: C8_11  and  C9_12
REMARK    5  A    between atoms: C8_11  and  C16_21
REMARK    6  A    between atoms: C9_12  and  C10_13
REMARK    7  A    between atoms: C10_13  and  C11_14
REMARK       I    between atoms: C16_21  and  N3_23
REMARK    8  A    between atoms: N3_23  and  C17_25
REMARK    9  A    between atoms: C17_25  and  C18_26
REMARK   10  A    between atoms: C24_35  and  C25_36
REMARK   11  A    between atoms: C25_36  and  C26_37
ROOT
HETATM    1  C5  UNL     1      21.277  24.599  19.866  1.00  0.00     0.177 C
HETATM    2  N1  UNL     1      19.994  25.166  20.172  1.00  0.00    -0.343 N
ATOM      3  H1  UNL     1      20.019  26.075  20.633  1.00  0.00     0.163 HD
HETATM    4  C6  UNL     1      18.714  24.653  19.932  1.00  0.00     0.265 C
HETATM    5  O1  UNL     1      17.972  24.566  20.968  1.00  0.00    -0.266 OA
HETATM    6  C7  UNL     1      18.117  24.209  18.665  1.00  0.00     0.093 C
HETATM    7  N4  UNL     1      18.990  23.532  17.757  1.00  0.00    -0.325 N
ATOM      8  H4  UNL     1      19.330  22.616  18.049  1.00  0.00     0.168 HD
HETATM    9  C22 UNL     1      19.434  24.001  16.493  1.00  0.00     0.224 C
HETATM   10  O3  UNL     1      20.306  23.312  15.845  1.00  0.00    -0.273 OA
HETATM   11  C23 UNL     1      19.019  25.214  15.793  1.00  0.00     0.135 C
HETATM   12  C24 UNL     1      20.234  25.879  15.158  1.00  0.00     0.141 C
HETATM   13  O4  UNL     1      20.420  27.183  15.580  1.00  0.00    -0.314 OA
HETATM   14  C27 UNL     1      21.185  27.711  16.567  1.00  0.00     0.277 C
HETATM   15  O5  UNL     1      22.185  28.469  16.438  1.00  0.00    -0.263 OA
HETATM   16  C28 UNL     1      20.837  27.381  17.987  1.00  0.00     0.233 C
HETATM   17  N5  UNL     1      21.955  26.796  18.669  1.00  0.00    -0.350 N
ATOM     18  H5  UNL     1      22.714  27.445  18.882  1.00  0.00     0.163 HD
HETATM   19  C29 UNL     1      22.170  25.490  19.084  1.00  0.00     0.240 C
HETATM   20  O6  UNL     1      23.291  24.946  18.762  1.00  0.00    -0.271 OA
ENDROOT
BRANCH   6  21
HETATM   21  C8  UNL     1      16.737  23.648  18.739  1.00  0.00     0.133 C
BRANCH  21  22
HETATM   22  C9  UNL     1      15.846  23.784  17.590  1.00  0.00     0.021 C
BRANCH  22  23
HETATM   23  C10 UNL     1      15.811  22.686  16.570  1.00  0.00     0.006 C
BRANCH  23  24
HETATM   24  C11 UNL     1      14.991  22.966  15.351  1.00  0.00    -0.012 C
HETATM   25  C12 UNL     1      13.494  22.915  15.695  1.00  0.00     0.020 C
HETATM   26  C13 UNL     1      12.743  22.634  14.421  1.00  0.00     0.103 C
HETATM   27  N2  UNL     1      12.935  21.233  14.071  1.00  0.00    -0.250 NA
HETATM   28 BR1  UNL     1      11.616  20.184  14.913  1.00  0.00     0.012 Br
HETATM   29  C14 UNL     1      14.245  20.750  14.454  1.00  0.00     0.103 C
HETATM   30  C15 UNL     1      15.270  21.860  14.341  1.00  0.00     0.020 C
ENDBRANCH  23  24
ENDBRANCH  22  23
ENDBRANCH  21  22
BRANCH  21  31
HETATM   31  C16 UNL     1      16.789  22.210  19.184  1.00  0.00     0.227 C
HETATM   32  O2  UNL     1      17.925  21.723  19.406  1.00  0.00    -0.273 OA
HETATM   33  N3  UNL     1      15.653  21.418  19.355  1.00  0.00    -0.360 N
ATOM     34  H3  UNL     1      14.775  21.894  19.147  1.00  0.00     0.162 HD
BRANCH  33  35
HETATM   35  C17 UNL     1      15.500  20.073  19.767  1.00  0.00     0.131 C
BRANCH  35  36
HETATM   36  C18 UNL     1      14.276  19.325  19.391  1.00  0.00    -0.035 C
HETATM   37  C19 UNL     1      13.430  20.056  18.368  1.00  0.00     0.016 C
HETATM   38  C20 UNL     1      13.487  18.707  20.477  1.00  0.00     0.016 C
HETATM   39  C21 UNL     1      14.797  18.087  18.559  1.00  0.00     0.016 C
ENDBRANCH  35  36
ENDBRANCH  33  35
ENDBRANCH  21  31
ENDBRANCH   6  21
BRANCH   1  40
HETATM   40  C4  UNL     1      21.961  23.957  21.026  1.00  0.00     0.038 C
BRANCH  40  41
HETATM   41  C2  UNL     1      23.033  24.649  21.733  1.00  0.00    -0.020 C
HETATM   42  C1  UNL     1      23.966  23.836  22.555  1.00  0.00     0.009 C
HETATM   43  C3  UNL     1      22.589  25.833  22.572  1.00  0.00     0.009 C
ENDBRANCH  40  41
ENDBRANCH   1  40
BRANCH  12  44
HETATM   44  C25 UNL     1      19.923  25.956  13.653  1.00  0.00     0.048 C
BRANCH  44  45
HETATM   45  C26 UNL     1      19.081  27.178  13.351  1.00  0.00     0.117 C
HETATM   46 CL1  UNL     1      20.065  28.265  12.325  1.00  0.00    -0.130 Cl
ENDBRANCH  44  45
ENDBRANCH  12  44
TORSDOF 11
ENDMDL