MODEL 1
REMARK VINA RESULT: -9.381614695      0.000      0.000
REMARK  14 active torsions:
REMARK  status: ('A' for Active; 'I' for Inactive)
REMARK    1  A    between atoms: O1_2  and  C2_3
REMARK    2  A    between atoms: C4_5  and  C5_6
REMARK    3  A    between atoms: N1_7  and  N2_9
REMARK    4  A    between atoms: N2_9  and  C6_11
REMARK    5  A    between atoms: C7_14  and  N4_15
REMARK    6  A    between atoms: N4_15  and  C8_17
REMARK    7  A    between atoms: C8_17  and  C9_18
REMARK    8  A    between atoms: C9_18  and  C10_19
REMARK    9  A    between atoms: C10_19  and  N5_20
REMARK   10  A    between atoms: C11_26  and  N7_27
REMARK   11  A    between atoms: N7_27  and  C12_29
REMARK   12  A    between atoms: C12_29  and  C13_30
REMARK   13  A    between atoms: C13_30  and  C14_31
REMARK   14  A    between atoms: C14_31  and  C15_32
ROOT
HETATM    1  C6  UNL     1      18.746  24.533  19.211  1.00  0.00     0.726 A
HETATM    2  N3  UNL     1      19.172  24.986  18.023  1.00  0.00    -0.020 N
ATOM      3  H3  UNL     1      20.171  25.125  17.870  1.00  0.00     0.203 HD
HETATM    4  C7  UNL     1      18.313  25.260  17.033  1.00  0.00     0.707 A
HETATM    5  N6  UNL     1      16.986  25.062  17.274  1.00  0.00    -0.022 N
ATOM      6  H6  UNL     1      16.313  25.264  16.535  1.00  0.00     0.203 HD
HETATM    7  C11 UNL     1      16.537  24.608  18.459  1.00  0.00     0.707 A
HETATM    8  N8  UNL     1      17.419  24.348  19.416  1.00  0.00    -0.020 N
ATOM      9  H8  UNL     1      17.093  24.005  20.320  1.00  0.00     0.203 HD
ENDROOT
BRANCH   7  10
HETATM   10  N7  UNL     1      15.292  24.437  18.646  1.00  0.00    -0.225 N
ATOM     11  H7  UNL     1      14.790  25.131  19.201  1.00  0.00     0.177 HD
BRANCH  10  12
HETATM   12  C12 UNL     1      14.552  23.325  18.121  1.00  0.00     0.138 C
BRANCH  12  13
HETATM   13  C13 UNL     1      14.846  22.074  18.969  1.00  0.00     0.025 C
BRANCH  13  14
HETATM   14  C14 UNL     1      15.115  20.889  18.104  1.00  0.00     0.041 C
BRANCH  14  15
HETATM   15  C15 UNL     1      13.797  20.378  17.522  1.00  0.00    -0.044 A
HETATM   16  C16 UNL     1      12.913  19.691  18.325  1.00  0.00     0.057 A
HETATM   17  S1  UNL     1      11.642  19.303  17.268  1.00  0.00    -0.105 SA
HETATM   18  C17 UNL     1      12.235  20.005  15.844  1.00  0.00    -0.003 A
HETATM   19  C18 UNL     1      13.438  20.540  16.227  1.00  0.00    -0.037 A
HETATM   20  C22 UNL     1      11.717  20.109  14.442  1.00  0.00    -0.013 C
HETATM   21  C19 UNL     1      14.203  21.271  15.125  1.00  0.00     0.040 C
HETATM   22  C20 UNL     1      14.172  20.375  13.909  1.00  0.00     0.006 C
HETATM   23  C21 UNL     1      12.777  20.221  13.410  1.00  0.00     0.014 C
HETATM   24  C23 UNL     1      10.859  21.360  14.410  1.00  0.00     0.020 C
HETATM   25  C24 UNL     1      10.826  18.903  14.178  1.00  0.00     0.020 C
ENDBRANCH  14  15
ENDBRANCH  13  14
ENDBRANCH  12  13
ENDBRANCH  10  12
ENDBRANCH   7  10
BRANCH   4  26
HETATM   26  N4  UNL     1      18.672  25.695  15.866  1.00  0.00    -0.225 N
ATOM     27  H4  UNL     1      18.217  26.517  15.469  1.00  0.00     0.177 HD
BRANCH  26  28
HETATM   28  C8  UNL     1      19.712  25.025  15.127  1.00  0.00     0.139 C
BRANCH  28  29
HETATM   29  C9  UNL     1      20.022  25.730  13.825  1.00  0.00     0.047 C
BRANCH  29  30
HETATM   30  C10 UNL     1      18.965  26.751  13.479  1.00  0.00     0.231 C
BRANCH  30  31
HETATM   31  N5  UNL     1      19.583  28.027  13.153  1.00  0.00    -0.079 N
ATOM     32  H53 UNL     1      18.974  28.814  13.376  1.00  0.00     0.274 HD
ATOM     33  H52 UNL     1      20.352  28.249  13.784  1.00  0.00     0.274 HD
ATOM     34  H51 UNL     1      19.877  28.038  12.176  1.00  0.00     0.274 HD
ENDBRANCH  30  31
ENDBRANCH  29  30
ENDBRANCH  28  29
ENDBRANCH  26  28
ENDBRANCH   4  26
BRANCH   1  35
HETATM   35  N2  UNL     1      19.583  24.276  20.154  1.00  0.00    -0.131 N
ATOM     36  H2  UNL     1      19.923  23.323  20.279  1.00  0.00     0.205 HD
BRANCH  35  37
HETATM   37  N1  UNL     1      20.017  25.251  20.984  1.00  0.00    -0.297 N
HETATM   38  C5  UNL     1      20.973  26.028  21.036  1.00  0.00     0.120 C
ATOM     39  H1  UNL     1      19.388  25.378  21.776  1.00  0.00     0.186 HD
BRANCH  38  40
HETATM   40  C4  UNL     1      22.073  26.159  20.108  1.00  0.00     0.001 A
HETATM   41  C3  UNL     1      22.061  26.957  18.983  1.00  0.00     0.052 A
HETATM   42  C2  UNL     1      23.153  27.050  18.112  1.00  0.00     0.086 A
HETATM   43  C27 UNL     1      24.297  26.333  18.355  1.00  0.00     0.045 A
HETATM   44  C26 UNL     1      24.314  25.543  19.464  1.00  0.00     0.042 A
HETATM   45 BR2  UNL     1      25.820  26.413  17.211  1.00  0.00    -0.048 Br
HETATM   46  C25 UNL     1      23.263  25.444  20.317  1.00  0.00     0.024 A
HETATM   47 BR1  UNL     1      23.379  24.309  21.848  1.00  0.00    -0.050 Br
BRANCH  42  48
HETATM   48  O1  UNL     1      23.062  27.871  17.010  1.00  0.00    -0.355 OA
HETATM   49  C1  UNL     1      21.978  27.895  16.129  1.00  0.00     0.210 C
ENDBRANCH  42  48
ENDBRANCH  38  40
ENDBRANCH  35  37
ENDBRANCH   1  35
TORSDOF 14
ENDMDL