MODEL 4
REMARK VINA RESULT: -9.756196845      5.023     12.233
REMARK  14 active torsions:
REMARK  status: ('A' for Active; 'I' for Inactive)
REMARK    1  A    between atoms: C7_7  and  C8_8
REMARK    2  A    between atoms: C8_8  and  N1_9
REMARK    3  A    between atoms: N1_9  and  C9_10
REMARK    4  A    between atoms: N1_9  and  C11_16
REMARK    5  A    between atoms: C9_10  and  C10_11
REMARK    6  A    between atoms: C10_11  and  N2_12
REMARK    7  A    between atoms: C11_16  and  C12_17
REMARK    8  A    between atoms: C11_16  and  C17_26
REMARK    9  A    between atoms: C12_17  and  N3_18
REMARK       I    between atoms: C17_26  and  N5_28
REMARK   10  A    between atoms: N5_28  and  C18_30
REMARK   11  A    between atoms: C18_30  and  C19_31
REMARK   12  A    between atoms: C20_32  and  C21_33
REMARK   13  A    between atoms: C26_42  and  N8_43
REMARK   14  A    between atoms: N8_43  and  C27_45
ROOT
HETATM    1  C17 UNL     1      16.784  22.156  16.174  1.00  0.00     0.266 C
HETATM    2  O1  UNL     1      16.352  21.782  15.036  1.00  0.00    -0.266 OA
HETATM    3  N5  UNL     1      17.208  23.503  16.261  1.00  0.00    -0.345 N
ATOM      4  H5  UNL     1      17.543  23.858  17.158  1.00  0.00     0.163 HD
ENDROOT
BRANCH   1   5
HETATM    5  C11 UNL     1      16.795  21.160  17.261  1.00  0.00     0.108 C
BRANCH   5   6
HETATM    6  N1  UNL     1      15.456  20.988  17.827  1.00  0.00    -0.356 N
BRANCH   6   7
HETATM    7  C8  UNL     1      15.149  19.665  18.130  1.00  0.00     0.069 C
BRANCH   7   8
HETATM    8  C7  UNL     1      14.021  19.330  19.028  1.00  0.00     0.028 C
HETATM    9  C2  UNL     1      12.644  19.605  18.481  1.00  0.00    -0.010 C
HETATM   10  C1  UNL     1      12.606  19.590  16.967  1.00  0.00     0.010 C
HETATM   11  C3  UNL     1      11.621  18.621  18.955  1.00  0.00     0.005 C
HETATM   12  C4  UNL     1      11.904  18.006  20.285  1.00  0.00     0.000 C
HETATM   13  C5  UNL     1      13.296  17.531  20.505  1.00  0.00     0.001 C
HETATM   14  C6  UNL     1      14.104  17.781  19.255  1.00  0.00     0.010 C
ENDBRANCH   7   8
ENDBRANCH   6   7
BRANCH   6  15
HETATM   15  C9  UNL     1      15.169  22.037  18.731  1.00  0.00     0.155 C
BRANCH  15  16
HETATM   16  C10 UNL     1      14.367  23.202  18.290  1.00  0.00     0.249 C
BRANCH  16  17
HETATM   17  N2  UNL     1      15.117  24.466  18.554  1.00  0.00    -0.078 N
ATOM     18  H23 UNL     1      14.894  24.858  19.470  1.00  0.00     0.274 HD
ATOM     19  H22 UNL     1      16.112  24.297  18.703  1.00  0.00     0.274 HD
ATOM     20  H21 UNL     1      14.951  25.133  17.801  1.00  0.00     0.274 HD
ENDBRANCH  16  17
ENDBRANCH  15  16
ENDBRANCH   6  15
ENDBRANCH   5   6
BRANCH   5  21
HETATM   21  C12 UNL     1      17.927  21.237  18.193  1.00  0.00     0.335 C
BRANCH  21  22
HETATM   22  N3  UNL     1      17.882  22.196  19.227  1.00  0.00     0.097 N
HETATM   23  C13 UNL     1      18.112  21.700  20.554  1.00  0.00     0.300 C
HETATM   24  C14 UNL     1      19.586  21.593  20.880  1.00  0.00     0.262 C
HETATM   25  N4  UNL     1      20.111  22.941  20.848  1.00  0.00    -0.072 N
HETATM   26  C15 UNL     1      19.968  23.464  19.531  1.00  0.00     0.262 C
ATOM     27  H42 UNL     1      19.682  23.542  21.552  1.00  0.00     0.277 HD
ATOM     28  H41 UNL     1      21.073  22.991  21.183  1.00  0.00     0.277 HD
HETATM   29  C16 UNL     1      18.587  23.418  18.951  1.00  0.00     0.300 C
ENDBRANCH  21  22
ENDBRANCH   5  21
ENDBRANCH   1   5
BRANCH   3  30
HETATM   30  C18 UNL     1      17.183  24.397  15.120  1.00  0.00     0.217 C
BRANCH  30  31
HETATM   31  C19 UNL     1      18.346  25.241  15.052  1.00  0.00    -0.081 C
HETATM   32  C20 UNL     1      19.332  25.935  15.037  1.00  0.00    -0.065 C
BRANCH  32  33
HETATM   33  C21 UNL     1      20.515  26.742  15.065  1.00  0.00     0.018 A
HETATM   34  C22 UNL     1      20.796  27.607  14.050  1.00  0.00     0.023 A
HETATM   35  C23 UNL     1      21.945  28.356  14.066  1.00  0.00     0.032 A
HETATM   36  C24 UNL     1      22.830  28.232  15.130  1.00  0.00     0.047 A
HETATM   37  N6  UNL     1      23.961  28.956  15.156  1.00  0.00    -0.352 N
HETATM   38  C33 UNL     1      22.548  27.367  16.145  1.00  0.00     0.036 A
HETATM   39  C25 UNL     1      24.786  28.806  16.188  1.00  0.00     0.182 A
ATOM     40  H6  UNL     1      24.181  29.606  14.400  1.00  0.00     0.166 HD
HETATM   41  N7  UNL     1      24.522  27.962  17.190  1.00  0.00    -0.338 N
HETATM   42  C26 UNL     1      23.417  27.204  17.242  1.00  0.00     0.119 A
ATOM     43  H7  UNL     1      25.194  27.892  17.954  1.00  0.00     0.168 HD
HETATM   44  C34 UNL     1      21.406  26.623  16.127  1.00  0.00     0.038 A
BRANCH  42  45
HETATM   45  N8  UNL     1      23.067  26.392  18.116  1.00  0.00    -0.339 N
ATOM     46  H8  UNL     1      22.853  25.472  17.731  1.00  0.00     0.167 HD
BRANCH  45  47
HETATM   47  C27 UNL     1      22.900  26.444  19.478  1.00  0.00     0.072 A
HETATM   48  C28 UNL     1      23.740  25.821  20.364  1.00  0.00     0.034 A
HETATM   49  C29 UNL     1      23.510  25.915  21.745  1.00  0.00     0.021 A
HETATM   50  C30 UNL     1      22.435  26.638  22.206  1.00  0.00     0.014 A
HETATM   51 BR1  UNL     1      22.123  26.767  24.076  1.00  0.00    -0.051 Br
HETATM   52  C31 UNL     1      21.575  27.275  21.336  1.00  0.00     0.063 A
HETATM   53  C32 UNL     1      21.814  27.172  20.011  1.00  0.00     0.144 A
HETATM   54  F1  UNL     1      20.986  27.785  19.139  1.00  0.00    -0.204 F
ENDBRANCH  45  47
ENDBRANCH  42  45
ENDBRANCH  32  33
ENDBRANCH  30  31
ENDBRANCH   3  30
TORSDOF 14
ENDMDL