MODEL 1
REMARK VINA RESULT: -9.916970092      0.000      0.000
REMARK  12 active torsions:
REMARK  status: ('A' for Active; 'I' for Inactive)
REMARK    1  A    between atoms: C2_2  and  N1_4
REMARK    2  A    between atoms: N2_7  and  C6_8
REMARK    3  A    between atoms: C9_11  and  N3_12
REMARK    4  A    between atoms: N3_12  and  C10_14
REMARK    5  A    between atoms: C13_19  and  C14_20
REMARK       I    between atoms: C14_20  and  N5_22
REMARK    6  A    between atoms: N5_22  and  C15_24
REMARK    7  A    between atoms: C15_24  and  C16_25
REMARK    8  A    between atoms: C16_25  and  N6_26
REMARK    9  A    between atoms: C25_37  and  N8_38
REMARK   10  A    between atoms: N8_38  and  C26_40
REMARK   11  A    between atoms: C26_40  and  C27_41
REMARK   12  A    between atoms: C27_41  and  C28_42
ROOT
HETATM    1  C10 UNL     1      18.455  24.612  18.052  1.00  0.00     0.151 A
HETATM    2  N4  UNL     1      17.477  23.772  18.427  1.00  0.00    -0.338 N
ATOM      3  H4  UNL     1      17.332  23.602  19.422  1.00  0.00     0.167 HD
HETATM    4  C11 UNL     1      16.675  23.142  17.536  1.00  0.00     0.061 A
HETATM    5  C12 UNL     1      15.679  22.271  17.912  1.00  0.00     0.049 A
HETATM    6  C13 UNL     1      14.848  21.601  17.032  1.00  0.00     0.034 A
HETATM    7  C22 UNL     1      15.029  21.819  15.702  1.00  0.00     0.019 A
HETATM    8  C23 UNL     1      16.035  22.703  15.262  1.00  0.00     0.033 A
HETATM    9  C24 UNL     1      16.836  23.346  16.178  1.00  0.00     0.060 A
HETATM   10  N7  UNL     1      17.818  24.192  15.766  1.00  0.00    -0.338 N
ATOM     11  H7  UNL     1      17.961  24.363  14.771  1.00  0.00     0.167 HD
HETATM   12  C25 UNL     1      18.594  24.799  16.668  1.00  0.00     0.146 A
ENDROOT
BRANCH   1  13
HETATM   13  N3  UNL     1      19.219  25.200  18.861  1.00  0.00    -0.337 N
ATOM     14  H3  UNL     1      18.828  26.032  19.303  1.00  0.00     0.167 HD
BRANCH  13  15
HETATM   15  C9  UNL     1      20.533  24.880  19.246  1.00  0.00     0.074 A
HETATM   16  C8  UNL     1      20.840  23.637  19.801  1.00  0.00     0.035 A
HETATM   17  C7  UNL     1      22.115  23.307  20.197  1.00  0.00     0.033 A
HETATM   18  C6  UNL     1      23.170  24.220  20.054  1.00  0.00     0.055 A
HETATM   19  C32 UNL     1      22.882  25.444  19.509  1.00  0.00     0.101 A
HETATM   20  C31 UNL     1      21.582  25.764  19.113  1.00  0.00     0.167 A
HETATM   21 CL1  UNL     1      24.184  26.603  19.337  1.00  0.00    -0.079 Cl
HETATM   22  F1  UNL     1      21.403  26.992  18.595  1.00  0.00    -0.202 F
BRANCH  18  23
HETATM   23  N2  UNL     1      24.451  23.789  20.483  1.00  0.00    -0.376 N
HETATM   24  C5  UNL     1      25.365  23.242  19.514  1.00  0.00     0.153 C
HETATM   25  C4  UNL     1      26.646  22.716  20.111  1.00  0.00     0.292 C
HETATM   26  N1  UNL     1      26.418  22.351  21.469  1.00  0.00     0.095 N
HETATM   27  C34 UNL     1      26.177  23.601  22.202  1.00  0.00     0.292 C
HETATM   28  C33 UNL     1      24.729  23.947  21.896  1.00  0.00     0.153 C
BRANCH  26  29
HETATM   29  C2  UNL     1      27.433  21.562  22.089  1.00  0.00     0.215 C
HETATM   30  C1  UNL     1      27.516  20.142  21.559  1.00  0.00     0.042 C
HETATM   31  C3  UNL     1      27.392  21.627  23.589  1.00  0.00     0.042 C
ENDBRANCH  26  29
ENDBRANCH  18  23
ENDBRANCH  13  15
ENDBRANCH   1  13
BRANCH  12  32
HETATM   32  N8  UNL     1      19.525  25.603  16.289  1.00  0.00    -0.373 N
ATOM     33  H8  UNL     1      20.032  26.138  16.993  1.00  0.00     0.161 HD
BRANCH  32  34
HETATM   34  C26 UNL     1      19.875  25.771  14.900  1.00  0.00     0.127 C
BRANCH  34  35
HETATM   35  C27 UNL     1      21.309  25.451  14.628  1.00  0.00     0.078 C
BRANCH  35  36
HETATM   36  C28 UNL     1      22.157  26.591  15.062  1.00  0.00     0.027 A
HETATM   37  C29 UNL     1      21.938  27.889  14.700  1.00  0.00     0.114 A
HETATM   38  N9  UNL     1      22.882  28.650  15.264  1.00  0.00    -0.360 N
HETATM   39  C30 UNL     1      23.683  27.820  15.974  1.00  0.00     0.180 A
ATOM     40  H9  UNL     1      22.981  29.662  15.176  1.00  0.00     0.166 HD
HETATM   41  N10 UNL     1      23.237  26.566  15.848  1.00  0.00    -0.355 N
ATOM     42  H10 UNL     1      23.648  25.737  16.277  1.00  0.00     0.166 HD
ENDBRANCH  35  36
ENDBRANCH  34  35
ENDBRANCH  32  34
ENDBRANCH  12  32
BRANCH   6  43
HETATM   43  C14 UNL     1      13.826  20.680  17.568  1.00  0.00     0.251 C
HETATM   44  O1  UNL     1      13.782  20.629  18.835  1.00  0.00    -0.268 OA
HETATM   45  N5  UNL     1      13.022  19.965  16.686  1.00  0.00    -0.355 N
ATOM     46  H5  UNL     1      13.218  20.151  15.703  1.00  0.00     0.162 HD
BRANCH  45  47
HETATM   47  C15 UNL     1      11.972  19.018  16.898  1.00  0.00     0.153 C
BRANCH  47  48
HETATM   48  C16 UNL     1      11.390  18.893  18.261  1.00  0.00     0.292 C
BRANCH  48  49
HETATM   49  N6  UNL     1      11.527  17.613  18.835  1.00  0.00     0.090 N
HETATM   50  C17 UNL     1      11.055  17.543  20.208  1.00  0.00     0.272 C
HETATM   51  C18 UNL     1      12.107  16.992  21.156  1.00  0.00     0.030 C
HETATM   52  C19 UNL     1      13.345  17.860  20.960  1.00  0.00     0.003 C
HETATM   53  C20 UNL     1      13.874  17.527  19.588  1.00  0.00     0.030 C
HETATM   54  C21 UNL     1      12.819  17.008  18.661  1.00  0.00     0.272 C
ENDBRANCH  48  49
ENDBRANCH  47  48
ENDBRANCH  45  47
ENDBRANCH   6  43
TORSDOF 12
ENDMDL