MODEL 1
REMARK VINA RESULT: -10.079400934      0.000      0.000
REMARK  12 active torsions:
REMARK  status: ('A' for Active; 'I' for Inactive)
REMARK    1  A    between atoms: O1_2  and  C2_3
REMARK    2  A    between atoms: C11_14  and  O2_15
REMARK    3  A    between atoms: O2_15  and  C12_16
REMARK    4  A    between atoms: C12_16  and  C13_17
REMARK       I    between atoms: C13_17  and  N1_19
REMARK    5  A    between atoms: N1_19  and  C14_21
REMARK    6  A    between atoms: C19_34  and  N6_35
REMARK    7  A    between atoms: N6_35  and  C20_37
REMARK    8  A    between atoms: C20_37  and  C21_38
REMARK    9  A    between atoms: C21_38  and  C22_39
REMARK   10  A    between atoms: C22_39  and  C23_40
REMARK   11  A    between atoms: C23_40  and  N7_41
REMARK   12  A    between atoms: C26_47  and  O4_48
ROOT
HETATM    1  C2  UNL     1      12.110  18.554  19.642  1.00  0.00     0.102 A
HETATM    2  C3  UNL     1      13.285  19.235  19.849  1.00  0.00     0.052 A
HETATM    3  C4  UNL     1      13.936  19.930  18.833  1.00  0.00    -0.017 A
HETATM    4  C5  UNL     1      15.093  20.608  19.014  1.00  0.00     0.043 A
HETATM    5  C6  UNL     1      15.781  21.324  18.003  1.00  0.00     0.045 A
HETATM    6  C7  UNL     1      16.963  22.070  18.344  1.00  0.00     0.001 A
HETATM    7  C8  UNL     1      17.744  21.610  19.431  1.00  0.00     0.035 A
HETATM    8  C9  UNL     1      18.843  22.278  19.887  1.00  0.00     0.032 A
HETATM    9 BR1  UNL     1      19.888  21.640  21.359  1.00  0.00    -0.050 Br
HETATM   10  C10 UNL     1      19.236  23.453  19.288  1.00  0.00     0.062 A
HETATM   11 BR2  UNL     1      20.776  24.389  19.923  1.00  0.00    -0.047 Br
HETATM   12  C11 UNL     1      18.500  23.917  18.240  1.00  0.00     0.095 A
HETATM   13  C17 UNL     1      17.362  23.225  17.767  1.00  0.00    -0.015 A
HETATM   14  C18 UNL     1      16.649  23.853  16.655  1.00  0.00     0.052 C
HETATM   15  N5  UNL     1      15.195  21.287  16.816  1.00  0.00    -0.341 N
ATOM     16  H5  UNL     1      15.639  21.781  16.043  1.00  0.00     0.167 HD
HETATM   17  C19 UNL     1      14.020  20.618  16.569  1.00  0.00     0.112 A
HETATM   18  C24 UNL     1      13.374  19.931  17.575  1.00  0.00     0.021 A
HETATM   19  C25 UNL     1      12.191  19.244  17.368  1.00  0.00     0.055 A
HETATM   20  C26 UNL     1      11.554  18.559  18.382  1.00  0.00     0.102 A
ENDROOT
BRANCH  17  21
HETATM   21  N6  UNL     1      13.494  20.615  15.405  1.00  0.00    -0.376 N
ATOM     22  H6  UNL     1      13.119  19.750  15.014  1.00  0.00     0.161 HD
BRANCH  21  23
HETATM   23  C20 UNL     1      13.433  21.840  14.647  1.00  0.00     0.121 C
BRANCH  23  24
HETATM   24  C21 UNL     1      12.000  22.279  14.410  1.00  0.00     0.021 C
BRANCH  24  25
HETATM   25  C22 UNL     1      11.156  21.011  14.349  1.00  0.00     0.029 C
BRANCH  25  26
HETATM   26  C23 UNL     1       9.713  21.299  14.685  1.00  0.00     0.229 C
BRANCH  26  27
HETATM   27  N7  UNL     1       9.367  20.974  16.036  1.00  0.00    -0.079 N
ATOM     28  H73 UNL     1      10.040  20.319  16.433  1.00  0.00     0.274 HD
ATOM     29  H72 UNL     1       9.524  21.773  16.651  1.00  0.00     0.274 HD
ATOM     30  H71 UNL     1       8.416  20.621  16.137  1.00  0.00     0.274 HD
ENDBRANCH  26  27
ENDBRANCH  25  26
ENDBRANCH  24  25
ENDBRANCH  23  24
ENDBRANCH  21  23
ENDBRANCH  17  21
BRANCH  12  31
HETATM   31  O2  UNL     1      18.932  25.103  17.666  1.00  0.00    -0.340 OA
BRANCH  31  32
HETATM   32  C12 UNL     1      19.903  25.183  16.633  1.00  0.00     0.279 C
BRANCH  32  33
HETATM   33  C13 UNL     1      20.519  26.527  16.618  1.00  0.00     0.260 C
HETATM   34  O3  UNL     1      20.598  27.215  17.658  1.00  0.00    -0.270 OA
HETATM   35  N1  UNL     1      21.028  27.046  15.408  1.00  0.00    -0.156 N
ATOM     36  H1  UNL     1      20.438  27.108  14.579  1.00  0.00     0.187 HD
BRANCH  35  37
HETATM   37  C14 UNL     1      22.273  27.445  15.372  1.00  0.00     0.701 A
HETATM   38  N2  UNL     1      23.310  26.667  15.731  1.00  0.00    -0.178 N
HETATM   39  C15 UNL     1      24.461  27.360  15.584  1.00  0.00     0.108 A
ATOM     40  H2  UNL     1      23.238  25.705  16.063  1.00  0.00     0.185 HD
HETATM   41  C16 UNL     1      25.827  26.867  15.871  1.00  0.00     0.091 C
HETATM   42  N3  UNL     1      24.098  28.560  15.131  1.00  0.00    -0.275 N
HETATM   43  N4  UNL     1      22.767  28.630  14.995  1.00  0.00    -0.130 N
ATOM     44  H3  UNL     1      24.744  29.319  14.917  1.00  0.00     0.189 HD
ATOM     45  H4  UNL     1      22.233  29.435  14.667  1.00  0.00     0.205 HD
ENDBRANCH  35  37
ENDBRANCH  32  33
ENDBRANCH  31  32
ENDBRANCH  12  31
BRANCH   1  46
HETATM   46  O1  UNL     1      11.463  17.857  20.677  1.00  0.00    -0.353 OA
HETATM   47  C1  UNL     1      12.204  17.001  21.539  1.00  0.00     0.210 C
ENDBRANCH   1  46
BRANCH  20  48
HETATM   48  O4  UNL     1      10.374  17.869  18.194  1.00  0.00    -0.353 OA
HETATM   49  C27 UNL     1      10.026  17.315  16.943  1.00  0.00     0.210 C
ENDBRANCH  20  48
TORSDOF 12
ENDMDL