MODEL 2
REMARK VINA RESULT: -8.911494958      2.263      9.273
REMARK  16 active torsions:
REMARK  status: ('A' for Active; 'I' for Inactive)
REMARK    1  A    between atoms: O1_1  and  C1_3
REMARK    2  A    between atoms: C1_3  and  C2_4
REMARK    3  A    between atoms: C1_3  and  N4_22
REMARK    4  A    between atoms: C2_4  and  N1_5
REMARK    5  A    between atoms: N1_5  and  C3_7
REMARK    6  A    between atoms: C3_7  and  C4_8
REMARK    7  A    between atoms: C4_8  and  C5_9
REMARK    8  A    between atoms: C5_9  and  N2_10
REMARK    9  A    between atoms: C8_14  and  N3_15
REMARK   10  A    between atoms: N4_22  and  N5_24
REMARK   11  A    between atoms: N5_24  and  C15_26
REMARK   12  A    between atoms: C15_26  and  N6_28
REMARK   13  A    between atoms: N6_28  and  N7_30
REMARK   14  A    between atoms: N7_30  and  C16_31
REMARK   15  A    between atoms: C16_31  and  C17_32
REMARK   16  A    between atoms: C22_38  and  N8_39
ROOT
HETATM    1  N4  UNL     1      14.012  19.775  17.225  1.00  0.00    -0.277 N
ATOM      2  H4  UNL     1      14.130  19.338  16.312  1.00  0.00     0.189 HD
ENDROOT
BRANCH   1   3
HETATM    3  C1  UNL     1      14.222  19.110  18.454  1.00  0.00     0.170 C
BRANCH   3   4
HETATM    4  O1  UNL     1      14.848  17.955  18.359  1.00  0.00    -0.344 OA
ATOM      5  H1  UNL     1      14.438  17.312  17.793  1.00  0.00     0.219 HD
ENDBRANCH   3   4
BRANCH   3   6
HETATM    6  C2  UNL     1      13.868  19.510  19.775  1.00  0.00     0.140 C
BRANCH   6   7
HETATM    7  N1  UNL     1      13.740  18.552  20.783  1.00  0.00    -0.395 N
ATOM      8  H1  UNL     1      14.564  18.103  21.182  1.00  0.00     0.159 HD
BRANCH   7   9
HETATM    9  C3  UNL     1      12.423  18.211  21.246  1.00  0.00     0.120 C
BRANCH   9  10
HETATM   10  C4  UNL     1      12.021  16.936  20.467  1.00  0.00     0.040 C
BRANCH  10  11
HETATM   11  C5  UNL     1      10.680  17.253  19.882  1.00  0.00     0.129 C
BRANCH  11  12
HETATM   12  N2  UNL     1      10.635  17.350  18.444  1.00  0.00    -0.363 N
HETATM   13  C6  UNL     1      10.595  16.332  17.541  1.00  0.00     0.112 A
HETATM   14  C7  UNL     1      10.588  16.893  16.275  1.00  0.00     0.054 A
HETATM   15 BR1  UNL     1      10.522  15.817  14.685  1.00  0.00    -0.047 Br
HETATM   16  C8  UNL     1      10.624  18.272  16.392  1.00  0.00     0.065 A
HETATM   17  C14 UNL     1      10.650  18.482  17.769  1.00  0.00     0.121 A
BRANCH  16  18
HETATM   18  N3  UNL     1      10.650  19.195  15.325  1.00  0.00    -0.379 N
HETATM   19  C9  UNL     1       9.639  20.249  15.335  1.00  0.00     0.123 C
HETATM   20  C10 UNL     1       9.974  21.378  14.418  1.00  0.00     0.020 C
HETATM   21  C11 UNL     1      11.452  21.636  14.482  1.00  0.00     0.003 C
HETATM   22  C12 UNL     1      12.307  20.468  14.112  1.00  0.00     0.020 C
HETATM   23  C13 UNL     1      11.571  19.176  14.221  1.00  0.00     0.123 C
ENDBRANCH  16  18
ENDBRANCH  11  12
ENDBRANCH  10  11
ENDBRANCH   9  10
ENDBRANCH   7   9
ENDBRANCH   6   7
ENDBRANCH   3   6
ENDBRANCH   1   3
BRANCH   1  24
HETATM   24  N5  UNL     1      13.617  21.130  17.417  1.00  0.00    -0.272 N
ATOM     25  H5  UNL     1      12.674  21.293  17.770  1.00  0.00     0.189 HD
BRANCH  24  26
HETATM   26  C15 UNL     1      14.386  22.225  17.173  1.00  0.00     0.216 C
HETATM   27  S1  UNL     1      15.222  22.304  15.755  1.00  0.00    -0.037 SA
BRANCH  26  28
HETATM   28  N6  UNL     1      14.505  23.337  18.099  1.00  0.00    -0.208 N
ATOM     29  H6  UNL     1      13.732  23.491  18.746  1.00  0.00     0.204 HD
BRANCH  28  30
HETATM   30  N7  UNL     1      15.516  24.154  18.174  1.00  0.00    -0.335 NA
BRANCH  30  31
HETATM   31  C16 UNL     1      16.433  24.869  18.235  1.00  0.00     0.222 C
BRANCH  31  32
HETATM   32  C17 UNL     1      17.601  24.766  17.329  1.00  0.00     0.022 A
HETATM   33  C18 UNL     1      17.458  25.436  16.104  1.00  0.00     0.035 A
HETATM   34  C19 UNL     1      18.480  25.371  15.208  1.00  0.00     0.011 A
HETATM   35 BR2  UNL     1      18.362  26.249  13.529  1.00  0.00    -0.051 Br
HETATM   36  C20 UNL     1      19.652  24.648  15.501  1.00  0.00     0.021 A
HETATM   37  C21 UNL     1      19.756  24.006  16.709  1.00  0.00     0.031 A
HETATM   38  C22 UNL     1      18.675  24.078  17.652  1.00  0.00     0.043 A
BRANCH  38  39
HETATM   39  N8  UNL     1      18.876  23.412  18.886  1.00  0.00    -0.380 N
HETATM   40  C23 UNL     1      18.443  22.065  19.059  1.00  0.00     0.123 C
HETATM   41  C24 UNL     1      19.074  21.480  20.333  1.00  0.00     0.020 C
HETATM   42  C25 UNL     1      18.617  22.455  21.431  1.00  0.00     0.003 C
HETATM   43  C26 UNL     1      19.485  23.666  21.295  1.00  0.00     0.020 C
HETATM   44  C27 UNL     1      19.488  24.235  19.936  1.00  0.00     0.123 C
ENDBRANCH  38  39
ENDBRANCH  31  32
ENDBRANCH  30  31
ENDBRANCH  28  30
ENDBRANCH  26  28
ENDBRANCH  24  26
ENDBRANCH   1  24
TORSDOF 16
ENDMDL