MODEL 1
REMARK VINA RESULT: -10.376142908      0.000      0.000
REMARK  11 active torsions:
REMARK  status: ('A' for Active; 'I' for Inactive)
REMARK    1  A    between atoms: C3_3  and  C4_4
REMARK    2  A    between atoms: C4_4  and  N1_5
REMARK       I    between atoms: N1_5  and  C5_7
REMARK    3  A    between atoms: C5_7  and  C6_9
REMARK    4  A    between atoms: C8_11  and  C9_12
REMARK    5  A    between atoms: C11_14  and  C12_15
REMARK    6  A    between atoms: C12_15  and  N2_16
REMARK    7  A    between atoms: C15_19  and  C16_20
REMARK    8  A    between atoms: C15_19  and  C21_27
REMARK       I    between atoms: C16_20  and  N3_22
REMARK    9  A    between atoms: C33_44  and  C34_45
REMARK   10  A    between atoms: C34_45  and  O3_46
REMARK   11  A    between atoms: C36_51  and  C37_52
ROOT
HETATM    1  C6  UNL     1      19.845  25.667  15.793  1.00  0.00     0.071 A
HETATM    2  C7  UNL     1      21.148  26.088  16.105  1.00  0.00     0.035 A
HETATM    3  C8  UNL     1      21.836  26.987  15.331  1.00  0.00     0.015 A
HETATM    4  C28 UNL     1      21.176  27.468  14.206  1.00  0.00     0.130 A
HETATM    5  F1  UNL     1      21.853  28.360  13.431  1.00  0.00    -0.205 F
HETATM    6  C29 UNL     1      19.903  27.065  13.888  1.00  0.00     0.086 A
HETATM    7  C30 UNL     1      19.205  26.148  14.683  1.00  0.00     0.135 A
HETATM    8  F2  UNL     1      17.953  25.773  14.298  1.00  0.00    -0.205 F
ENDROOT
BRANCH   1   9
HETATM    9  C5  UNL     1      19.197  24.730  16.706  1.00  0.00     0.255 C
HETATM   10  N1  UNL     1      18.355  25.118  17.769  1.00  0.00    -0.353 N
ATOM     11  H1  UNL     1      18.164  26.103  17.948  1.00  0.00     0.163 HD
HETATM   12  O1  UNL     1      19.447  23.495  16.475  1.00  0.00    -0.268 OA
BRANCH  10  13
HETATM   13  C4  UNL     1      17.770  24.094  18.596  1.00  0.00     0.162 C
BRANCH  13  14
HETATM   14  C3  UNL     1      16.637  23.361  18.045  1.00  0.00    -0.031 A
HETATM   15  C2  UNL     1      16.287  22.144  18.655  1.00  0.00    -0.036 A
HETATM   16  C1  UNL     1      17.106  21.708  19.842  1.00  0.00     0.050 C
HETATM   17  C36 UNL     1      15.253  21.395  18.196  1.00  0.00     0.064 A
HETATM   18  C35 UNL     1      14.499  21.835  17.081  1.00  0.00     0.076 A
HETATM   19  C32 UNL     1      14.837  23.023  16.481  1.00  0.00     0.062 A
HETATM   20  N6  UNL     1      13.455  21.345  16.407  1.00  0.00    -0.341 N
HETATM   21  C31 UNL     1      15.897  23.770  16.968  1.00  0.00     0.041 A
HETATM   22  N5  UNL     1      13.974  23.206  15.459  1.00  0.00    -0.342 N
HETATM   23  C33 UNL     1      13.118  22.200  15.386  1.00  0.00     0.106 A
ATOM     24  H5  UNL     1      13.981  24.010  14.830  1.00  0.00     0.167 HD
ATOM     25  H6  UNL     1      12.980  20.468  16.619  1.00  0.00     0.167 HD
BRANCH  17  26
HETATM   26  C37 UNL     1      14.877  20.135  18.783  1.00  0.00     0.267 C
HETATM   27  N7  UNL     1      15.186  18.887  18.207  1.00  0.00    -0.057 NA
HETATM   28  O4  UNL     1      14.220  20.074  19.889  1.00  0.00    -0.271 OA
ENDBRANCH  17  26
BRANCH  23  29
HETATM   29  C34 UNL     1      11.975  21.936  14.444  1.00  0.00     0.240 C
BRANCH  29  30
HETATM   30  O3  UNL     1      10.873  21.570  15.175  1.00  0.00    -0.393 OA
ATOM     31  H3  UNL     1      10.252  21.138  14.600  1.00  0.00     0.209 HD
ENDBRANCH  29  30
ENDBRANCH  23  29
ENDBRANCH  13  14
ENDBRANCH  10  13
ENDBRANCH   1   9
BRANCH   3  32
HETATM   32  C9  UNL     1      23.188  27.434  15.635  1.00  0.00    -0.005 A
HETATM   33  C10 UNL     1      24.371  26.739  15.730  1.00  0.00     0.040 A
HETATM   34  C11 UNL     1      25.431  27.617  16.013  1.00  0.00     0.040 A
HETATM   35  N4  UNL     1      24.885  28.831  16.087  1.00  0.00    -0.362 N
HETATM   36  C26 UNL     1      25.556  30.090  16.338  1.00  0.00     0.155 C
HETATM   37  C27 UNL     1      23.549  28.758  15.867  1.00  0.00     0.102 A
BRANCH  34  38
HETATM   38  C12 UNL     1      26.844  27.206  16.173  1.00  0.00     0.329 C
BRANCH  38  39
HETATM   39  N2  UNL     1      27.219  26.821  17.497  1.00  0.00     0.094 N
HETATM   40  C13 UNL     1      26.405  27.569  18.438  1.00  0.00     0.274 C
HETATM   41  C14 UNL     1      25.860  26.767  19.565  1.00  0.00     0.050 C
HETATM   42  C15 UNL     1      25.124  25.514  19.139  1.00  0.00     0.048 C
HETATM   43  C24 UNL     1      25.889  24.813  18.074  1.00  0.00     0.050 C
HETATM   44  C25 UNL     1      27.242  25.424  17.767  1.00  0.00     0.274 C
BRANCH  42  45
HETATM   45  C16 UNL     1      25.064  24.617  20.345  1.00  0.00     0.229 C
HETATM   46  O2  UNL     1      25.074  23.353  20.078  1.00  0.00    -0.272 OA
HETATM   47  N3  UNL     1      25.002  25.032  21.676  1.00  0.00    -0.351 N
HETATM   48  C17 UNL     1      24.959  26.360  22.222  1.00  0.00     0.126 C
HETATM   49  C20 UNL     1      24.986  24.087  22.815  1.00  0.00     0.126 C
HETATM   50  C18 UNL     1      25.732  26.266  23.530  1.00  0.00     0.021 C
HETATM   51  C19 UNL     1      25.594  24.844  23.958  1.00  0.00     0.021 C
ENDBRANCH  42  45
BRANCH  42  52
HETATM   52  C21 UNL     1      23.699  25.815  18.715  1.00  0.00     0.003 A
HETATM   53  C22 UNL     1      22.544  25.618  19.607  1.00  0.00     0.006 A
HETATM   54  C23 UNL     1      23.001  26.992  19.308  1.00  0.00     0.006 A
ENDBRANCH  42  52
ENDBRANCH  38  39
ENDBRANCH  34  38
ENDBRANCH   3  32
TORSDOF 11
ENDMDL