MODEL 2
REMARK VINA RESULT: -9.846721170      0.666      1.417
REMARK  13 active torsions:
REMARK  status: ('A' for Active; 'I' for Inactive)
REMARK    1  A    between atoms: C5_8  and  C6_9
REMARK       I    between atoms: C6_9  and  N2_11
REMARK    2  A    between atoms: N2_11  and  C7_13
REMARK    3  A    between atoms: C7_13  and  C8_14
REMARK    4  A    between atoms: C9_15  and  C10_16
REMARK    5  A    between atoms: C12_20  and  N4_21
REMARK    6  A    between atoms: N4_21  and  C13_23
REMARK    7  A    between atoms: C17_30  and  C18_31
REMARK    8  A    between atoms: C19_32  and  C20_33
REMARK       I    between atoms: C20_33  and  N5_35
REMARK    9  A    between atoms: N5_35  and  C21_37
REMARK   10  A    between atoms: C21_37  and  C22_38
REMARK   11  A    between atoms: C22_38  and  C23_39
REMARK   12  A    between atoms: C23_39  and  C24_40
REMARK   13  A    between atoms: C24_40  and  N6_41
ROOT
HETATM    1  C10 UNL     1      16.222  22.966  16.762  1.00  0.00     0.034 A
HETATM    2  C11 UNL     1      15.398  23.547  15.817  1.00  0.00     0.110 A
HETATM    3  N3  UNL     1      14.204  23.038  15.510  1.00  0.00    -0.350 N
ATOM      4  H3  UNL     1      13.634  23.504  14.804  1.00  0.00     0.166 HD
HETATM    5  C12 UNL     1      13.727  21.924  16.105  1.00  0.00     0.116 A
HETATM    6  C17 UNL     1      14.475  21.287  17.048  1.00  0.00     0.010 A
HETATM    7  C31 UNL     1      15.738  21.837  17.364  1.00  0.00     0.037 A
ENDROOT
BRANCH   6   8
HETATM    8  C18 UNL     1      14.072  20.100  17.742  1.00  0.00     0.021 C
HETATM    9  C19 UNL     1      14.752  19.295  18.476  1.00  0.00     0.075 C
BRANCH   9  10
HETATM   10  C20 UNL     1      14.079  18.113  19.092  1.00  0.00     0.241 C
HETATM   11  O4  UNL     1      14.461  16.970  18.788  1.00  0.00    -0.269 OA
HETATM   12  N5  UNL     1      13.026  18.291  20.007  1.00  0.00    -0.358 N
ATOM     13  H5  UNL     1      12.751  19.248  20.228  1.00  0.00     0.162 HD
BRANCH  12  14
HETATM   14  C21 UNL     1      12.312  17.232  20.650  1.00  0.00     0.123 C
BRANCH  14  15
HETATM   15  C22 UNL     1      10.898  17.117  20.157  1.00  0.00     0.021 C
BRANCH  15  16
HETATM   16  C23 UNL     1      10.807  16.341  18.882  1.00  0.00     0.032 C
BRANCH  16  17
HETATM   17  C24 UNL     1       9.433  15.788  18.588  1.00  0.00     0.273 C
BRANCH  17  18
HETATM   18  N6  UNL     1       9.629  14.680  17.672  1.00  0.00     0.096 N
HETATM   19  C25 UNL     1      10.448  15.028  16.549  1.00  0.00     0.297 C
HETATM   20  C26 UNL     1      10.089  14.351  15.271  1.00  0.00     0.100 C
HETATM   21  C27 UNL     1      10.917  15.020  14.164  1.00  0.00     0.033 C
HETATM   22  N7  UNL     1       8.714  14.598  14.975  1.00  0.00    -0.414 N
HETATM   23  C28 UNL     1       7.803  14.402  16.046  1.00  0.00     0.149 C
ATOM     24  H7  UNL     1       8.405  14.897  14.050  1.00  0.00     0.153 HD
HETATM   25  C29 UNL     1       8.425  13.989  17.347  1.00  0.00     0.236 C
HETATM   26  C30 UNL     1       8.670  12.500  17.427  1.00  0.00     0.044 C
ENDBRANCH  17  18
ENDBRANCH  16  17
ENDBRANCH  15  16
ENDBRANCH  14  15
ENDBRANCH  12  14
ENDBRANCH   9  10
ENDBRANCH   6   8
BRANCH   5  27
HETATM   27  N4  UNL     1      12.540  21.486  15.748  1.00  0.00    -0.338 N
ATOM     28  H4  UNL     1      11.712  21.894  16.181  1.00  0.00     0.167 HD
BRANCH  27  29
HETATM   29  C13 UNL     1      12.378  20.468  14.785  1.00  0.00     0.099 A
HETATM   30  C14 UNL     1      11.445  19.458  14.877  1.00  0.00     0.063 A
HETATM   31 BR1  UNL     1      10.175  19.175  16.272  1.00  0.00    -0.046 Br
HETATM   32  C15 UNL     1      11.578  18.656  13.765  1.00  0.00     0.165 A
HETATM   33  O3  UNL     1      12.540  19.166  13.053  1.00  0.00    -0.307 OA
HETATM   34  C16 UNL     1      13.050  20.237  13.606  1.00  0.00     0.172 A
HETATM   35 CL1  UNL     1      14.357  21.265  13.029  1.00  0.00    -0.054 Cl
ENDBRANCH  27  29
ENDBRANCH   5  27
BRANCH   1  36
HETATM   36  C9  UNL     1      17.511  23.529  17.082  1.00  0.00    -0.064 C
HETATM   37  C8  UNL     1      18.588  24.010  17.333  1.00  0.00    -0.081 C
BRANCH  37  38
HETATM   38  C7  UNL     1      19.912  24.614  17.618  1.00  0.00     0.217 C
BRANCH  38  39
HETATM   39  N2  UNL     1      20.040  25.835  16.830  1.00  0.00    -0.346 N
HETATM   40  C6  UNL     1      20.391  25.800  15.467  1.00  0.00     0.256 C
HETATM   41  O2  UNL     1      20.580  24.614  15.004  1.00  0.00    -0.267 OA
ATOM     42  H2  UNL     1      19.871  26.736  17.277  1.00  0.00     0.163 HD
BRANCH  40  43
HETATM   43  C5  UNL     1      20.550  26.929  14.584  1.00  0.00     0.087 A
HETATM   44  C2  UNL     1      19.607  27.289  13.615  1.00  0.00     0.047 A
HETATM   45  C1  UNL     1      18.336  26.576  13.364  1.00  0.00     0.071 C
HETATM   46  N1  UNL     1      20.093  28.364  13.003  1.00  0.00    -0.265 N
HETATM   47  O1  UNL     1      21.234  28.701  13.495  1.00  0.00    -0.242 OA
ATOM     48  H1  UNL     1      19.623  28.856  12.244  1.00  0.00     0.194 HD
HETATM   49  C3  UNL     1      21.553  27.854  14.463  1.00  0.00     0.090 A
HETATM   50  C4  UNL     1      22.793  27.944  15.242  1.00  0.00     0.080 C
ENDBRANCH  40  43
ENDBRANCH  38  39
ENDBRANCH  37  38
ENDBRANCH   1  36
TORSDOF 13
ENDMDL