MODEL 4
REMARK VINA RESULT: -5.300130346      1.928      2.940
REMARK  11 active torsions:
REMARK  status: ('A' for Active; 'I' for Inactive)
REMARK    1  A    between atoms: C2_2  and  C3_3
REMARK    2  A    between atoms: C3_3  and  C4_4
REMARK    3  A    between atoms: C4_4  and  C5_5
REMARK    4  A    between atoms: C5_5  and  C7_7
REMARK    5  A    between atoms: C11_13  and  C12_14
REMARK       I    between atoms: C12_14  and  N1_16
REMARK    6  A    between atoms: N1_16  and  C13_18
REMARK    7  A    between atoms: C13_18  and  C14_19
REMARK    8  A    between atoms: C14_19  and  C15_20
REMARK    9  A    between atoms: C18_23  and  O4_24
REMARK   10  A    between atoms: C23_33  and  N3_34
REMARK   11  A    between atoms: C34_48  and  O7_49
ROOT
HETATM    1  C7  UNL     1      10.395  17.435  14.438  1.00  0.00     0.141 C
HETATM    2  O1  UNL     1       9.782  16.220  14.511  1.00  0.00    -0.315 OA
HETATM    3  C8  UNL     1       9.141  15.396  15.327  1.00  0.00     0.264 C
HETATM    4  O2  UNL     1       7.990  15.530  15.890  1.00  0.00    -0.265 OA
HETATM    5  C9  UNL     1       9.771  14.091  15.704  1.00  0.00     0.097 C
HETATM    6  C10 UNL     1      10.378  13.370  14.562  1.00  0.00     0.021 C
HETATM    7  C11 UNL     1       8.975  13.184  16.550  1.00  0.00     0.121 C
HETATM    8  C18 UNL     1       7.794  12.499  16.053  1.00  0.00     0.152 C
HETATM    9  C20 UNL     1       7.583  12.406  14.563  1.00  0.00     0.155 C
HETATM   10  N2  UNL     1       6.172  12.076  14.274  1.00  0.00    -0.352 N
ATOM     11  H2  UNL     1       5.881  11.099  14.318  1.00  0.00     0.162 HD
HETATM   12  C21 UNL     1       5.202  13.061  13.937  1.00  0.00     0.289 C
HETATM   13  O5  UNL     1       4.077  13.039  14.553  1.00  0.00    -0.264 OA
HETATM   14  C22 UNL     1       5.388  14.101  12.938  1.00  0.00     0.239 C
HETATM   15  O6  UNL     1       5.015  15.269  13.220  1.00  0.00    -0.285 OA
HETATM   16  C23 UNL     1       6.005  13.813  11.598  1.00  0.00     0.166 C
HETATM   17  C25 UNL     1       6.670  14.992  10.996  1.00  0.00     0.088 C
HETATM   18  C26 UNL     1       5.788  16.035  10.405  1.00  0.00     0.019 C
HETATM   19  C27 UNL     1       7.580  14.492   9.872  1.00  0.00     0.267 C
HETATM   20  F1  UNL     1       6.849  13.600   9.055  1.00  0.00    -0.201 F
HETATM   21  F2  UNL     1       8.619  13.727  10.356  1.00  0.00    -0.201 F
HETATM   22  C28 UNL     1       8.001  15.574   8.961  1.00  0.00     0.051 C
HETATM   23  C29 UNL     1       9.229  15.974   8.697  1.00  0.00     0.002 C
HETATM   24  C30 UNL     1      10.486  15.477   9.217  1.00  0.00    -0.004 C
HETATM   25  C31 UNL     1      11.057  15.707  10.380  1.00  0.00    -0.020 C
HETATM   26  C32 UNL     1      10.594  16.545  11.508  1.00  0.00     0.033 C
HETATM   27  C33 UNL     1       9.893  17.797  11.075  1.00  0.00     0.017 C
HETATM   28  C34 UNL     1      11.782  16.848  12.359  1.00  0.00     0.131 C
HETATM   29  C35 UNL     1      11.656  17.526  13.629  1.00  0.00     0.041 C
HETATM   30  C36 UNL     1      12.089  18.976  13.493  1.00  0.00     0.015 C
ENDROOT
BRANCH   7  31
HETATM   31  C12 UNL     1       8.633  13.854  17.865  1.00  0.00     0.225 C
HETATM   32  O3  UNL     1       9.510  14.242  18.675  1.00  0.00    -0.273 OA
HETATM   33  N1  UNL     1       7.272  14.056  18.203  1.00  0.00    -0.361 N
ATOM     34  H1  UNL     1       6.565  13.734  17.540  1.00  0.00     0.162 HD
BRANCH  33  35
HETATM   35  C13 UNL     1       6.820  14.679  19.407  1.00  0.00     0.123 C
BRANCH  35  36
HETATM   36  C14 UNL     1       5.343  14.985  19.408  1.00  0.00     0.023 C
BRANCH  36  37
HETATM   37  C15 UNL     1       4.979  15.852  20.598  1.00  0.00    -0.021 C
HETATM   38  C16 UNL     1       4.066  16.973  20.168  1.00  0.00     0.009 C
HETATM   39  C17 UNL     1       4.318  15.089  21.703  1.00  0.00     0.009 C
ENDBRANCH  36  37
ENDBRANCH  35  36
ENDBRANCH  33  35
ENDBRANCH   7  31
BRANCH   8  40
HETATM   40  O4  UNL     1       7.847  11.142  16.465  1.00  0.00    -0.388 OA
HETATM   41  C19 UNL     1       8.919  10.460  15.955  1.00  0.00     0.202 C
ENDBRANCH   8  40
BRANCH   1  42
HETATM   42  C5  UNL     1      10.655  18.145  15.752  1.00  0.00     0.012 C
HETATM   43  C6  UNL     1       9.651  19.251  16.024  1.00  0.00     0.012 C
BRANCH  42  44
HETATM   44  C4  UNL     1      10.794  17.269  16.940  1.00  0.00     0.010 C
BRANCH  44  45
HETATM   45  C3  UNL     1      11.221  18.034  18.186  1.00  0.00     0.027 C
BRANCH  45  46
HETATM   46  C2  UNL     1      10.898  17.302  19.425  1.00  0.00    -0.037 C
HETATM   47  C1  UNL     1      11.615  17.328  20.522  1.00  0.00     0.007 C
ENDBRANCH  45  46
ENDBRANCH  44  45
ENDBRANCH  42  44
ENDBRANCH   1  42
BRANCH  28  48
HETATM   48  O7  UNL     1      12.620  15.693  12.457  1.00  0.00    -0.394 OA
ATOM     49  H7  UNL     1      13.380  15.888  12.991  1.00  0.00     0.210 HD
ENDBRANCH  28  48
BRANCH  16  50
HETATM   50  N3  UNL     1       5.136  13.079  10.748  1.00  0.00    -0.414 N
HETATM   51  C24 UNL     1       5.208  11.664  10.790  1.00  0.00     0.140 C
ATOM     52  H3  UNL     1       4.482  13.554  10.128  1.00  0.00     0.153 HD
ENDBRANCH  16  50
TORSDOF 11
ENDMDL