MODEL 3
REMARK VINA RESULT: -9.315201567      4.601      7.310
REMARK  13 active torsions:
REMARK  status: ('A' for Active; 'I' for Inactive)
REMARK    1  A    between atoms: C4_4  and  N1_5
REMARK       I    between atoms: N1_5  and  C5_7
REMARK    2  A    between atoms: C5_7  and  C6_9
REMARK    3  A    between atoms: C6_9  and  N2_10
REMARK    4  A    between atoms: C6_9  and  C12_19
REMARK       I    between atoms: N2_10  and  C7_12
REMARK    5  A    between atoms: C7_12  and  O3_14
REMARK    6  A    between atoms: O3_14  and  C8_15
REMARK    7  A    between atoms: C15_22  and  N3_23
REMARK       I    between atoms: N3_23  and  C16_25
REMARK       I    between atoms: C16_25  and  N4_27
REMARK    8  A    between atoms: N4_27  and  C17_29
REMARK    9  A    between atoms: C17_29  and  C18_30
REMARK   10  A    between atoms: N5_38  and  C24_39
REMARK   11  A    between atoms: C24_39  and  C25_40
REMARK   12  A    between atoms: C25_40  and  C26_41
REMARK   13  A    between atoms: N6_44  and  S1_45
ROOT
HETATM    1  C6  UNL     1      15.628  21.033  18.403  1.00  0.00     0.183 C
ENDROOT
BRANCH   1   2
HETATM    2  C5  UNL     1      17.076  21.165  18.642  1.00  0.00     0.241 C
HETATM    3  N1  UNL     1      17.536  21.834  19.789  1.00  0.00    -0.355 N
ATOM      4  H1  UNL     1      16.851  22.220  20.439  1.00  0.00     0.162 HD
HETATM    5  O1  UNL     1      17.880  20.681  17.826  1.00  0.00    -0.271 OA
BRANCH   3   6
HETATM    6  C4  UNL     1      18.967  22.000  20.088  1.00  0.00     0.087 C
HETATM    7  C3  UNL     1      19.509  22.959  19.063  1.00  0.00     0.049 C
HETATM    8  C2  UNL     1      20.468  23.972  19.592  1.00  0.00     0.077 C
HETATM    9  C1  UNL     1      21.804  23.342  19.855  1.00  0.00     0.032 C
HETATM   10  N5  UNL     1      19.910  24.682  20.669  1.00  0.00    -0.408 N
HETATM   11  C23 UNL     1      18.949  23.999  21.472  1.00  0.00     0.119 C
HETATM   12  C22 UNL     1      19.067  22.513  21.492  1.00  0.00     0.044 C
BRANCH  10  13
HETATM   13  C24 UNL     1      20.773  25.447  21.490  1.00  0.00     0.117 C
BRANCH  13  14
HETATM   14  C25 UNL     1      20.858  26.904  21.124  1.00  0.00     0.024 C
BRANCH  14  15
HETATM   15  C26 UNL     1      22.161  27.216  20.444  1.00  0.00    -0.011 C
HETATM   16  C27 UNL     1      22.057  27.157  18.938  1.00  0.00     0.020 C
HETATM   17  C28 UNL     1      23.431  27.076  18.318  1.00  0.00     0.107 C
HETATM   18  N6  UNL     1      24.171  25.926  18.837  1.00  0.00    -0.211 NA
HETATM   19  C30 UNL     1      24.483  26.272  20.234  1.00  0.00     0.107 C
HETATM   20  C31 UNL     1      23.193  26.253  20.985  1.00  0.00     0.020 C
BRANCH  18  21
HETATM   21  S1  UNL     1      25.618  25.756  17.915  1.00  0.00     0.207 S
HETATM   22  C29 UNL     1      26.847  26.949  18.449  1.00  0.00     0.180 C
HETATM   23  O5  UNL     1      25.301  25.989  16.480  1.00  0.00    -0.212 OA
HETATM   24  O6  UNL     1      26.175  24.382  18.181  1.00  0.00    -0.212 OA
ENDBRANCH  18  21
ENDBRANCH  14  15
ENDBRANCH  13  14
ENDBRANCH  10  13
ENDBRANCH   3   6
ENDBRANCH   1   2
BRANCH   1  25
HETATM   25  N2  UNL     1      15.366  20.990  16.997  1.00  0.00    -0.323 N
HETATM   26  C7  UNL     1      14.623  22.046  16.406  1.00  0.00     0.362 C
HETATM   27  O2  UNL     1      14.180  23.029  17.063  1.00  0.00    -0.238 OA
ATOM     28  H2  UNL     1      15.707  20.214  16.428  1.00  0.00     0.165 HD
BRANCH  26  29
HETATM   29  O3  UNL     1      14.328  22.068  15.032  1.00  0.00    -0.294 OA
BRANCH  29  30
HETATM   30  C8  UNL     1      13.220  21.401  14.513  1.00  0.00     0.061 C
HETATM   31  C9  UNL     1      12.479  20.552  15.516  1.00  0.00     0.046 C
HETATM   32  C10 UNL     1      12.250  22.452  13.997  1.00  0.00     0.046 C
HETATM   33  C11 UNL     1      13.613  20.520  13.347  1.00  0.00     0.046 C
ENDBRANCH  29  30
ENDBRANCH  26  29
ENDBRANCH   1  25
BRANCH   1  34
HETATM   34  C12 UNL     1      15.083  19.820  19.132  1.00  0.00     0.018 C
HETATM   35  C13 UNL     1      15.084  18.596  18.255  1.00  0.00     0.009 C
HETATM   36  C14 UNL     1      14.336  17.506  19.013  1.00  0.00     0.026 C
HETATM   37  C15 UNL     1      12.858  17.832  18.906  1.00  0.00     0.086 C
HETATM   38  C20 UNL     1      12.625  19.322  18.827  1.00  0.00     0.026 C
HETATM   39  C21 UNL     1      13.699  20.080  19.613  1.00  0.00     0.009 C
BRANCH  37  40
HETATM   40  N3  UNL     1      12.232  17.194  17.792  1.00  0.00    -0.338 N
HETATM   41  C16 UNL     1      11.085  16.333  17.952  1.00  0.00     0.320 C
HETATM   42  O4  UNL     1      10.623  16.135  19.099  1.00  0.00    -0.247 OA
HETATM   43  N4  UNL     1      10.484  15.718  16.840  1.00  0.00    -0.317 N
ATOM     44  H4  UNL     1      10.895  15.961  15.939  1.00  0.00     0.169 HD
ATOM     45  H3  UNL     1      12.606  17.351  16.855  1.00  0.00     0.164 HD
BRANCH  43  46
HETATM   46  C17 UNL     1       9.396  14.813  16.779  1.00  0.00     0.143 C
BRANCH  46  47
HETATM   47  C18 UNL     1       9.562  13.381  17.019  1.00  0.00     0.272 C
HETATM   48  C19 UNL     1       8.516  12.417  16.567  1.00  0.00     0.096 C
HETATM   49  F1  UNL     1       9.831  13.140  18.388  1.00  0.00    -0.201 F
HETATM   50  F2  UNL     1      10.744  12.974  16.342  1.00  0.00    -0.201 F
ENDBRANCH  46  47
ENDBRANCH  43  46
ENDBRANCH  37  40
ENDBRANCH   1  34
TORSDOF 13
ENDMDL