MODEL 4
REMARK VINA RESULT: -6.885654109      2.466      5.231
REMARK  0 active torsions:
REMARK  status: ('A' for Active; 'I' for Inactive)
ROOT
HETATM    1  C1  UNL     1      -9.400   2.592  18.907  1.00  0.00     0.018 C
HETATM    2  C2  UNL     1      -8.301   2.103  19.031  1.00  0.00    -0.078 C
HETATM    3  C3  UNL     1      -6.995   1.519  19.190  1.00  0.00     0.017 A
HETATM    4  C4  UNL     1      -5.908   2.180  18.698  1.00  0.00     0.021 A
HETATM    5  C5  UNL     1      -4.616   1.653  18.829  1.00  0.00     0.014 A
HETATM    6  C6  UNL     1      -4.415   0.452  19.459  1.00  0.00    -0.012 A
HETATM    7  C7  UNL     1      -3.114  -0.031  19.564  1.00  0.00    -0.014 A
HETATM    8  C8  UNL     1      -2.024   0.642  19.065  1.00  0.00     0.013 A
HETATM    9  C9  UNL     1      -0.749   0.142  19.183  1.00  0.00     0.001 A
HETATM   10  C10 UNL     1      -0.607  -1.059  19.819  1.00  0.00     0.001 A
HETATM   11  C11 UNL     1      -1.681  -1.768  20.336  1.00  0.00     0.013 A
HETATM   12  C12 UNL     1      -2.960  -1.259  20.214  1.00  0.00    -0.010 A
HETATM   13  C13 UNL     1      -4.033  -1.957  20.724  1.00  0.00     0.033 A
HETATM   14  C14 UNL     1      -4.078  -3.177  21.396  1.00  0.00     0.089 A
HETATM   15  N1  UNL     1      -3.410  -4.235  21.890  1.00  0.00    -0.298 N
ATOM     16  H1  UNL     1      -2.401  -4.379  21.846  1.00  0.00     0.187 HD
HETATM   17  N2  UNL     1      -4.287  -5.059  22.446  1.00  0.00    -0.309 N
ATOM     18  H2  UNL     1      -4.060  -5.943  22.900  1.00  0.00     0.186 HD
HETATM   19  C15 UNL     1      -5.513  -4.552  22.319  1.00  0.00     0.139 A
HETATM   20  C16 UNL     1      -5.415  -3.356  21.655  1.00  0.00     0.081 A
HETATM   21  N3  UNL     1      -6.153  -2.310  21.175  1.00  0.00    -0.347 N
HETATM   22  C17 UNL     1      -7.577  -2.239  21.308  1.00  0.00     0.156 C
HETATM   23  C18 UNL     1      -5.326  -1.430  20.595  1.00  0.00     0.059 A
HETATM   24  C19 UNL     1      -5.524  -0.214  19.956  1.00  0.00     0.004 A
HETATM   25  C20 UNL     1      -6.794   0.302  19.829  1.00  0.00     0.035 A
ENDROOT
TORSDOF 0
ENDMDL