MODEL 4
REMARK VINA RESULT: -6.893597014      2.292      3.706
REMARK  1 active torsions:
REMARK  status: ('A' for Active; 'I' for Inactive)
REMARK    1  A    between atoms: O1_1  and  C1_3
ROOT
HETATM    1  C1  UNL     1      -0.784  -1.505  20.461  1.00  0.00     0.079 A
HETATM    2  C2  UNL     1       0.411  -0.801  20.209  1.00  0.00     0.037 A
HETATM    3  C3  UNL     1       0.336   0.452  19.691  1.00  0.00     0.005 A
HETATM    4  C4  UNL     1      -0.862   1.032  19.415  1.00  0.00     0.030 A
HETATM    5  C5  UNL     1      -2.047   0.358  19.656  1.00  0.00     0.048 A
HETATM    6  N1  UNL     1      -3.243   0.876  19.407  1.00  0.00    -0.341 N
ATOM      7  H1  UNL     1      -3.290   1.817  19.018  1.00  0.00     0.167 HD
HETATM    8  C6  UNL     1      -4.396   0.226  19.639  1.00  0.00     0.123 A
HETATM    9  C7  UNL     1      -5.599   0.817  19.359  1.00  0.00     0.020 A
HETATM   10  C8  UNL     1      -5.608   2.105  18.829  1.00  0.00     0.016 A
HETATM   11  C9  UNL     1      -6.792   2.744  18.531  1.00  0.00     0.001 A
HETATM   12  C10 UNL     1      -7.955   2.076  18.770  1.00  0.00     0.001 A
HETATM   13  C11 UNL     1      -8.000   0.801  19.293  1.00  0.00     0.013 A
HETATM   14  C12 UNL     1      -6.810   0.179  19.585  1.00  0.00    -0.010 A
HETATM   15  C13 UNL     1      -6.744  -1.096  20.111  1.00  0.00     0.002 A
HETATM   16  C14 UNL     1      -7.901  -1.764  20.351  1.00  0.00     0.014 A
HETATM   17  C15 UNL     1      -7.928  -3.055  20.881  1.00  0.00     0.001 A
HETATM   18  C16 UNL     1      -6.721  -3.627  21.152  1.00  0.00     0.002 A
HETATM   19  C17 UNL     1      -5.519  -2.969  20.919  1.00  0.00     0.031 A
HETATM   20  C18 UNL     1      -5.504  -1.701  20.398  1.00  0.00     0.051 A
HETATM   21  N2  UNL     1      -4.352  -1.024  20.155  1.00  0.00    -0.306 N
HETATM   22  C19 UNL     1      -3.162  -1.590  20.424  1.00  0.00     0.115 A
HETATM   23  C20 UNL     1      -1.985  -0.911  20.180  1.00  0.00     0.040 A
ENDROOT
BRANCH   1  24
HETATM   24  O1  UNL     1      -0.668  -2.773  20.986  1.00  0.00    -0.360 OA
ATOM     25  H1  UNL     1       0.183  -3.027  21.324  1.00  0.00     0.217 HD
ENDBRANCH   1  24
TORSDOF 1
ENDMDL