MODEL 1
REMARK VINA RESULT: -9.568813620      0.000      0.000
REMARK  2 active torsions:
REMARK  status: ('A' for Active; 'I' for Inactive)
REMARK    1  A    between atoms: C10_11  and  C11_12
REMARK    2  A    between atoms: C12_13  and  C13_14
ROOT
HETATM    1  N1  UNL     1       3.731   3.652  22.999  1.00  0.00    -0.102 NA
HETATM    2  C1  UNL     1       3.154   3.326  21.732  1.00  0.00     0.047 A
HETATM    3  C2  UNL     1       3.751   3.738  20.557  1.00  0.00     0.029 A
HETATM    4  C3  UNL     1       3.218   3.439  19.325  1.00  0.00     0.039 A
HETATM    5  C4  UNL     1       2.038   2.698  19.219  1.00  0.00     0.080 A
HETATM    6  C5  UNL     1       1.432   2.279  20.393  1.00  0.00     0.010 A
HETATM    7  C6  UNL     1       1.990   2.595  21.615  1.00  0.00     0.041 A
HETATM    8  C7  UNL     1       0.203   1.507  20.266  1.00  0.00    -0.015 A
HETATM    9  C8  UNL     1      -0.458   1.057  21.378  1.00  0.00     0.014 A
HETATM   10  C9  UNL     1      -1.641   0.315  21.234  1.00  0.00     0.021 A
HETATM   11  C10 UNL     1      -2.167   0.020  20.001  1.00  0.00     0.018 A
HETATM   12  C19 UNL     1      -1.498   0.475  18.891  1.00  0.00     0.030 A
HETATM   13  C20 UNL     1      -0.316   1.218  19.007  1.00  0.00    -0.021 A
HETATM   14  C21 UNL     1       0.320   1.657  17.767  1.00  0.00     0.215 A
HETATM   15  O1  UNL     1       1.480   2.381  18.013  1.00  0.00    -0.346 OA
ENDROOT
BRANCH  11  16
HETATM   16  C11 UNL     1      -3.378  -0.742  19.906  1.00  0.00    -0.061 C
HETATM   17  C12 UNL     1      -4.389  -1.397  19.833  1.00  0.00    -0.061 C
BRANCH  17  18
HETATM   18  C13 UNL     1      -5.587  -2.175  19.737  1.00  0.00     0.018 A
HETATM   19  C14 UNL     1      -6.421  -2.154  18.610  1.00  0.00     0.020 A
HETATM   20  C15 UNL     1      -7.564  -2.921  18.569  1.00  0.00     0.001 A
HETATM   21  C16 UNL     1      -7.914  -3.722  19.619  1.00  0.00     0.000 A
HETATM   22  C17 UNL     1      -7.124  -3.770  20.737  1.00  0.00     0.001 A
HETATM   23  C18 UNL     1      -5.959  -2.989  20.784  1.00  0.00     0.020 A
ENDBRANCH  17  18
ENDBRANCH  11  16
TORSDOF 2
ENDMDL