MODEL 2
REMARK VINA RESULT: -9.512552601      1.599      2.532
REMARK  2 active torsions:
REMARK  status: ('A' for Active; 'I' for Inactive)
REMARK    1  A    between atoms: C3_3  and  C4_4
REMARK    2  A    between atoms: C5_5  and  C6_6
ROOT
HETATM    1  C1  UNL     1      -2.603   0.158  21.353  1.00  0.00     0.050 C
HETATM    2  C2  UNL     1      -1.652   0.699  20.355  1.00  0.00    -0.029 A
HETATM    3  C3  UNL     1      -1.901   0.642  18.999  1.00  0.00     0.040 A
HETATM    4  C9  UNL     1      -0.977   1.165  18.108  1.00  0.00     0.109 A
HETATM    5  N3  UNL     1       0.150   1.722  18.568  1.00  0.00    -0.363 N
ATOM      6  H3  UNL     1       0.829   2.106  17.910  1.00  0.00     0.165 HD
HETATM    7  C10 UNL     1       0.397   1.781  19.902  1.00  0.00     0.054 A
HETATM    8  C11 UNL     1      -0.492   1.275  20.830  1.00  0.00    -0.001 A
HETATM    9  C12 UNL     1      -0.185   1.363  22.173  1.00  0.00     0.015 A
HETATM   10  C13 UNL     1       1.002   1.956  22.565  1.00  0.00     0.013 A
HETATM   11  C14 UNL     1       1.886   2.461  21.630  1.00  0.00    -0.024 A
HETATM   12  C15 UNL     1       3.078   3.057  21.992  1.00  0.00     0.012 A
HETATM   13  C16 UNL     1       3.931   3.547  21.027  1.00  0.00     0.001 A
HETATM   14  C17 UNL     1       3.643   3.468  19.674  1.00  0.00     0.001 A
HETATM   15  C18 UNL     1       2.454   2.874  19.313  1.00  0.00     0.014 A
HETATM   16  C19 UNL     1       1.595   2.381  20.280  1.00  0.00     0.002 A
ENDROOT
BRANCH   3  17
HETATM   17  C4  UNL     1      -3.125   0.033  18.562  1.00  0.00    -0.058 C
HETATM   18  C5  UNL     1      -4.162  -0.462  18.198  1.00  0.00    -0.042 C
BRANCH  18  19
HETATM   19  C6  UNL     1      -5.404  -1.034  17.783  1.00  0.00     0.102 A
HETATM   20  C7  UNL     1      -6.075  -0.864  16.593  1.00  0.00     0.059 A
HETATM   21  C8  UNL     1      -7.235  -1.608  16.626  1.00  0.00     0.110 A
HETATM   22  N1  UNL     1      -7.249  -2.212  17.830  1.00  0.00    -0.311 N
HETATM   23  N2  UNL     1      -6.150  -1.866  18.520  1.00  0.00    -0.293 N
ATOM     24  H1  UNL     1      -7.982  -2.837  18.167  1.00  0.00     0.186 HD
ATOM     25  H2  UNL     1      -5.919  -2.188  19.459  1.00  0.00     0.187 HD
ENDBRANCH  18  19
ENDBRANCH   3  17
TORSDOF 2
ENDMDL