MODEL 2
REMARK VINA RESULT: -6.859496063      2.195      5.036
REMARK  0 active torsions:
REMARK  status: ('A' for Active; 'I' for Inactive)
ROOT
HETATM    1  N1  UNL     1      -6.315  -0.135  13.390  1.00  0.00    -0.191 NA
HETATM    2  C1  UNL     1      -6.182  -0.427  14.505  1.00  0.00     0.099 C
HETATM    3  C2  UNL     1      -6.044  -0.788  15.886  1.00  0.00     0.047 A
HETATM    4  C3  UNL     1      -6.797  -1.767  16.504  1.00  0.00     0.040 A
HETATM    5  C4  UNL     1      -6.652  -2.102  17.833  1.00  0.00     0.099 A
HETATM    6  N2  UNL     1      -5.733  -1.417  18.506  1.00  0.00    -0.324 N
HETATM    7  C5  UNL     1      -4.947  -0.437  17.968  1.00  0.00     0.022 A
HETATM    8  C6  UNL     1      -5.090  -0.104  16.647  1.00  0.00     0.048 A
HETATM    9  C7  UNL     1      -3.860   0.431  18.445  1.00  0.00     0.098 C
HETATM   10  C8  UNL     1      -2.748  -0.274  19.078  1.00  0.00    -0.026 A
HETATM   11  C9  UNL     1      -1.599   0.271  18.506  1.00  0.00     0.010 A
HETATM   12  C10 UNL     1      -0.332  -0.135  18.846  1.00  0.00     0.001 A
HETATM   13  C11 UNL     1      -0.195  -1.123  19.793  1.00  0.00     0.002 A
HETATM   14  C12 UNL     1      -1.285  -1.689  20.381  1.00  0.00     0.030 A
HETATM   15  C13 UNL     1      -2.573  -1.258  20.020  1.00  0.00     0.039 A
HETATM   16  N3  UNL     1      -3.436  -2.059  20.827  1.00  0.00    -0.354 N
ATOM     17  H3  UNL     1      -2.955  -2.596  21.549  1.00  0.00     0.166 HD
HETATM   18  C14 UNL     1      -4.848  -2.244  20.806  1.00  0.00     0.060 A
HETATM   19  C15 UNL     1      -5.247  -2.773  21.980  1.00  0.00     0.032 A
HETATM   20  C16 UNL     1      -6.580  -3.003  22.197  1.00  0.00     0.002 A
HETATM   21  C17 UNL     1      -7.533  -2.695  21.216  1.00  0.00     0.002 A
HETATM   22  C18 UNL     1      -7.149  -2.155  20.015  1.00  0.00     0.032 A
HETATM   23  C19 UNL     1      -5.818  -1.941  19.826  1.00  0.00     0.065 A
ENDROOT
TORSDOF 0
ENDMDL