MODEL 4
REMARK VINA RESULT: -7.576442082      2.514      3.983
REMARK  0 active torsions:
REMARK  status: ('A' for Active; 'I' for Inactive)
ROOT
HETATM    1  C1  UNL     1       0.309   2.383  18.122  1.00  0.00     0.018 C
HETATM    2  C2  UNL     1       0.000   1.359  18.681  1.00  0.00    -0.075 C
HETATM    3  C3  UNL     1      -0.373   0.150  19.357  1.00  0.00     0.044 A
HETATM    4  C4  UNL     1       0.570  -0.738  19.820  1.00  0.00     0.023 A
HETATM    5  C5  UNL     1       0.161  -1.895  20.468  1.00  0.00     0.003 A
HETATM    6  C6  UNL     1      -1.174  -2.183  20.663  1.00  0.00     0.016 A
HETATM    7  C7  UNL     1      -2.114  -1.316  20.212  1.00  0.00     0.020 A
HETATM    8  C8  UNL     1      -1.715  -0.150  19.560  1.00  0.00     0.064 A
HETATM    9  N1  UNL     1      -2.646   0.689  19.124  1.00  0.00    -0.353 N
ATOM     10  H1  UNL     1      -2.339   1.537  18.648  1.00  0.00     0.166 HD
HETATM   11  C9  UNL     1      -3.954   0.492  19.269  1.00  0.00     0.049 A
HETATM   12  C10 UNL     1      -4.877   1.393  18.798  1.00  0.00     0.047 A
HETATM   13  C11 UNL     1      -6.235   1.197  18.945  1.00  0.00     0.090 A
HETATM   14  N2  UNL     1      -6.628   0.071  19.575  1.00  0.00    -0.364 N
ATOM     15  H2  UNL     1      -7.626  -0.095  19.694  1.00  0.00     0.165 HD
HETATM   16  C12 UNL     1      -5.767  -0.844  20.055  1.00  0.00     0.059 A
HETATM   17  C13 UNL     1      -6.160  -1.998  20.701  1.00  0.00     0.018 A
HETATM   18  C14 UNL     1      -7.510  -2.249  20.877  1.00  0.00     0.016 A
HETATM   19  C15 UNL     1      -7.976  -3.379  21.513  1.00  0.00     0.001 A
HETATM   20  C16 UNL     1      -7.044  -4.282  21.982  1.00  0.00     0.002 A
HETATM   21  C17 UNL     1      -5.674  -4.061  21.823  1.00  0.00     0.030 A
HETATM   22  C18 UNL     1      -5.242  -2.909  21.177  1.00  0.00     0.045 A
HETATM   23  N3  UNL     1      -3.914  -2.658  21.002  1.00  0.00    -0.354 N
ATOM     24  H3  UNL     1      -3.236  -3.333  21.355  1.00  0.00     0.166 HD
HETATM   25  C19 UNL     1      -3.465  -1.559  20.384  1.00  0.00     0.060 A
HETATM   26  C20 UNL     1      -4.401  -0.645  19.908  1.00  0.00     0.046 A
ENDROOT
TORSDOF 0
ENDMDL