MODEL 3
REMARK VINA RESULT: -9.269100752      2.840      8.481
REMARK  2 active torsions:
REMARK  status: ('A' for Active; 'I' for Inactive)
REMARK    1  A    between atoms: C5_8  and  C6_9
REMARK    2  A    between atoms: C7_10  and  C8_11
ROOT
HETATM    1  N1  UNL     1       4.073   3.987  21.528  1.00  0.00    -0.102 NA
HETATM    2  C1  UNL     1       2.842   3.307  21.248  1.00  0.00     0.047 A
HETATM    3  C2  UNL     1       2.003   2.892  22.270  1.00  0.00     0.029 A
HETATM    4  C3  UNL     1       0.818   2.237  21.997  1.00  0.00     0.032 A
HETATM    5  C4  UNL     1       0.425   1.972  20.692  1.00  0.00     0.043 A
HETATM    6  N2  UNL     1      -0.725   1.336  20.409  1.00  0.00    -0.349 N
ATOM      7  H2  UNL     1      -1.316   1.046  21.188  1.00  0.00     0.167 HD
HETATM    8  C5  UNL     1      -1.142   1.060  19.167  1.00  0.00     0.087 A
HETATM    9  C18 UNL     1      -0.300   1.476  18.133  1.00  0.00     0.040 A
HETATM   10  C19 UNL     1       0.875   2.124  18.354  1.00  0.00     0.016 A
HETATM   11  C20 UNL     1       1.260   2.384  19.652  1.00  0.00    -0.008 A
HETATM   12  C21 UNL     1       2.434   3.034  19.962  1.00  0.00     0.040 A
ENDROOT
BRANCH   8  13
HETATM   13  C6  UNL     1      -2.381   0.376  18.890  1.00  0.00    -0.043 C
HETATM   14  C7  UNL     1      -3.429  -0.181  18.661  1.00  0.00    -0.059 C
BRANCH  14  15
HETATM   15  C8  UNL     1      -4.684  -0.820  18.392  1.00  0.00     0.029 A
HETATM   16  C9  UNL     1      -5.317  -1.653  19.324  1.00  0.00     0.021 A
HETATM   17  C10 UNL     1      -6.511  -2.255  19.058  1.00  0.00     0.002 A
HETATM   18  C11 UNL     1      -7.121  -2.050  17.851  1.00  0.00     0.012 A
HETATM   19  C12 UNL     1      -6.515  -1.232  16.916  1.00  0.00    -0.025 A
HETATM   20  C13 UNL     1      -7.099  -1.008  15.701  1.00  0.00     0.012 A
HETATM   21  C17 UNL     1      -5.299  -0.618  17.185  1.00  0.00    -0.007 A
HETATM   22  C14 UNL     1      -6.511  -0.196  14.753  1.00  0.00     0.001 A
HETATM   23  C15 UNL     1      -5.301   0.398  15.060  1.00  0.00     0.001 A
HETATM   24  C16 UNL     1      -4.671   0.204  16.270  1.00  0.00     0.014 A
ENDBRANCH  14  15
ENDBRANCH   8  13
TORSDOF 2
ENDMDL