MODEL 3
REMARK VINA RESULT: -9.127641194      2.266      2.905
REMARK  1 active torsions:
REMARK  status: ('A' for Active; 'I' for Inactive)
REMARK    1  A    between atoms: N2_18  and  O1_19
ROOT
HETATM    1  N1  UNL     1      -0.480   0.988  16.439  1.00  0.00    -0.397 N
ATOM      2  H11 UNL     1      -1.212   0.544  15.885  1.00  0.00     0.156 HD
ATOM      3  H12 UNL     1       0.296   1.377  15.902  1.00  0.00     0.156 HD
HETATM    4  C1  UNL     1      -0.470   1.083  17.700  1.00  0.00     0.057 A
HETATM    5  C2  UNL     1       0.582   1.720  18.497  1.00  0.00     0.044 A
HETATM    6  C3  UNL     1       0.509   1.774  19.811  1.00  0.00    -0.012 A
HETATM    7  C4  UNL     1      -0.559   1.238  20.548  1.00  0.00    -0.011 A
HETATM    8  C5  UNL     1      -0.568   1.330  21.910  1.00  0.00     0.014 A
HETATM    9  C6  UNL     1       0.499   1.965  22.557  1.00  0.00     0.013 A
HETATM   10  C7  UNL     1       1.529   2.481  21.829  1.00  0.00    -0.025 A
HETATM   11  C8  UNL     1       2.583   3.108  22.468  1.00  0.00     0.012 A
HETATM   12  C9  UNL     1       3.654   3.651  21.790  1.00  0.00     0.001 A
HETATM   13  C10 UNL     1       3.694   3.574  20.415  1.00  0.00     0.001 A
HETATM   14  C11 UNL     1       2.648   2.950  19.768  1.00  0.00     0.013 A
HETATM   15  C12 UNL     1       1.573   2.406  20.448  1.00  0.00    -0.015 A
HETATM   16  C13 UNL     1      -1.569   0.637  19.929  1.00  0.00     0.019 A
HETATM   17  C14 UNL     1      -1.582   0.524  18.471  1.00  0.00     0.101 A
HETATM   18  N2  UNL     1      -2.649  -0.089  18.126  1.00  0.00    -0.221 N
HETATM   19  C15 UNL     1      -3.432  -0.440  19.246  1.00  0.00     0.074 A
HETATM   20  C16 UNL     1      -4.652  -1.107  19.337  1.00  0.00     0.033 A
HETATM   21  C17 UNL     1      -5.196  -1.318  20.584  1.00  0.00     0.002 A
HETATM   22  C18 UNL     1      -4.584  -0.898  21.731  1.00  0.00     0.001 A
HETATM   23  C19 UNL     1      -3.378  -0.240  21.636  1.00  0.00     0.015 A
HETATM   24  C20 UNL     1      -2.794  -0.006  20.413  1.00  0.00     0.007 A
ENDROOT
BRANCH  18  25
HETATM   25  O1  UNL     1      -2.948  -0.350  16.784  1.00  0.00    -0.282 OA
ATOM     26  H1  UNL     1      -2.426  -0.948  16.263  1.00  0.00     0.245 HD
ENDBRANCH  18  25
TORSDOF 1
ENDMDL