MODEL 5
REMARK VINA RESULT: -6.584493603      1.338      1.684
REMARK  0 active torsions:
REMARK  status: ('A' for Active; 'I' for Inactive)
ROOT
HETATM    1  O1  UNL     1      -4.544  -3.489  23.215  1.00  0.00    -0.200 OA
HETATM    2  S1  UNL     1      -4.697  -3.154  21.741  1.00  0.00     0.264 S
HETATM    3  O2  UNL     1      -5.369  -4.374  21.127  1.00  0.00    -0.200 OA
HETATM    4  N1  UNL     1      -3.138  -2.913  21.112  1.00  0.00    -0.280 N
ATOM      5  H1  UNL     1      -2.526  -3.701  21.323  1.00  0.00     0.179 HD
HETATM    6  C1  UNL     1      -2.460  -1.923  20.380  1.00  0.00     0.053 A
HETATM    7  C2  UNL     1      -1.119  -2.022  20.692  1.00  0.00     0.031 A
HETATM    8  C3  UNL     1      -0.210  -1.146  20.135  1.00  0.00     0.002 A
HETATM    9  C4  UNL     1      -0.634  -0.142  19.246  1.00  0.00     0.001 A
HETATM   10  C5  UNL     1      -1.962  -0.023  18.919  1.00  0.00     0.014 A
HETATM   11  C6  UNL     1      -2.821  -0.918  19.496  1.00  0.00     0.002 A
HETATM   12  C7  UNL     1      -4.107  -0.547  18.932  1.00  0.00    -0.013 A
HETATM   13  C8  UNL     1      -3.839  -0.202  17.642  1.00  0.00     0.013 A
HETATM   14  C9  UNL     1      -4.870   0.207  16.835  1.00  0.00     0.001 A
HETATM   15  C10 UNL     1      -6.182   0.267  17.318  1.00  0.00     0.001 A
HETATM   16  C11 UNL     1      -6.481  -0.082  18.620  1.00  0.00     0.013 A
HETATM   17  C12 UNL     1      -5.437  -0.480  19.400  1.00  0.00    -0.013 A
HETATM   18  C13 UNL     1      -6.022  -0.799  20.684  1.00  0.00    -0.002 A
HETATM   19  C14 UNL     1      -6.971   0.173  20.849  1.00  0.00     0.014 A
HETATM   20  C15 UNL     1      -7.718   0.083  22.014  1.00  0.00     0.001 A
HETATM   21  C16 UNL     1      -7.528  -0.909  22.952  1.00  0.00     0.002 A
HETATM   22  C17 UNL     1      -6.555  -1.864  22.738  1.00  0.00     0.026 A
HETATM   23  C18 UNL     1      -5.782  -1.834  21.607  1.00  0.00     0.090 A
ENDROOT
TORSDOF 0
ENDMDL