MODEL 1
REMARK VINA RESULT: -9.340695859      0.000      0.000
REMARK  2 active torsions:
REMARK  status: ('A' for Active; 'I' for Inactive)
REMARK    1  A    between atoms: C1_1  and  C15_19
REMARK    2  A    between atoms: C2_2  and  C3_3
ROOT
HETATM    1  C3  UNL     1      -1.549   0.220  19.373  1.00  0.00     0.095 A
HETATM    2  N1  UNL     1      -1.492   0.103  18.059  1.00  0.00    -0.358 N
ATOM      3  H1  UNL     1      -2.223  -0.437  17.595  1.00  0.00     0.166 HD
HETATM    4  C4  UNL     1      -0.531   0.650  17.298  1.00  0.00     0.090 A
HETATM    5  C5  UNL     1       0.451   1.378  17.939  1.00  0.00     0.030 A
HETATM    6  C6  UNL     1       0.439   1.532  19.306  1.00  0.00    -0.012 A
HETATM    7  C7  UNL     1      -0.564   0.953  20.036  1.00  0.00     0.006 A
HETATM    8  C8  UNL     1      -0.673   1.053  21.491  1.00  0.00     0.162 A
HETATM    9  N2  UNL     1       0.372   1.820  22.108  1.00  0.00    -0.385 N
ATOM     10  H2  UNL     1       0.355   1.929  23.121  1.00  0.00     0.160 HD
HETATM   11  C9  UNL     1       1.422   2.431  21.384  1.00  0.00     0.039 A
HETATM   12  C10 UNL     1       2.379   3.152  22.104  1.00  0.00     0.030 A
HETATM   13  C11 UNL     1       3.392   3.739  21.380  1.00  0.00     0.002 A
HETATM   14  C12 UNL     1       3.444   3.611  20.010  1.00  0.00     0.001 A
HETATM   15  C13 UNL     1       2.474   2.882  19.300  1.00  0.00     0.014 A
HETATM   16  C14 UNL     1       1.467   2.298  20.009  1.00  0.00     0.001 A
ENDROOT
BRANCH   1  17
HETATM   17  C2  UNL     1      -2.617  -0.399  20.135  1.00  0.00    -0.043 C
HETATM   18  C1  UNL     1      -3.513  -0.895  20.773  1.00  0.00    -0.060 C
BRANCH  18  19
HETATM   19  C15 UNL     1      -4.604  -1.475  21.524  1.00  0.00     0.018 A
HETATM   20  C16 UNL     1      -4.857  -2.819  21.499  1.00  0.00     0.020 A
HETATM   21  C17 UNL     1      -5.896  -3.352  22.218  1.00  0.00     0.001 A
HETATM   22  C18 UNL     1      -6.724  -2.536  22.997  1.00  0.00     0.000 A
HETATM   23  C19 UNL     1      -6.494  -1.186  23.041  1.00  0.00     0.001 A
HETATM   24  C20 UNL     1      -5.440  -0.683  22.304  1.00  0.00     0.020 A
ENDBRANCH  18  19
ENDBRANCH   1  17
TORSDOF 2
ENDMDL