MODEL 1
REMARK VINA RESULT: -8.759905926      0.000      0.000
REMARK  9 active torsions:
REMARK  status: ('A' for Active; 'I' for Inactive)
REMARK    1  A    between atoms: C2_2  and  N1_3
REMARK    2  A    between atoms: N1_3  and  C3_5
REMARK    3  A    between atoms: C4_6  and  N2_7
REMARK    4  A    between atoms: N2_7  and  C5_9
REMARK    5  A    between atoms: C11_18  and  N4_19
REMARK    6  A    between atoms: N4_19  and  C13_21
REMARK    7  A    between atoms: C13_21  and  C14_22
REMARK    8  A    between atoms: C14_22  and  C15_23
REMARK    9  A    between atoms: C15_23  and  N5_24
ROOT
HETATM    1  C3  UNL     1      42.700  22.776  20.491  1.00  0.00     0.090 C
HETATM    2  C4  UNL     1      43.642  22.838  19.475  1.00  0.00     0.149 C
HETATM    3  N3  UNL     1      44.559  23.829  19.255  1.00  0.00    -0.174 N
ATOM      4  H3  UNL     1      45.054  23.792  18.364  1.00  0.00     0.186 HD
HETATM    5  C11 UNL     1      44.890  24.852  20.076  1.00  0.00     0.682 C
HETATM    6  N6  UNL     1      44.787  24.774  21.428  1.00  0.00    -0.184 N
ATOM      7  H6  UNL     1      45.507  25.271  21.952  1.00  0.00     0.185 HD
HETATM    8  C18 UNL     1      43.846  24.120  22.186  1.00  0.00     0.104 A
HETATM    9  S1  UNL     1      43.649  24.302  23.871  1.00  0.00    -0.075 SA
HETATM   10  C19 UNL     1      42.360  23.221  24.107  1.00  0.00    -0.012 A
HETATM   11  C20 UNL     1      41.648  22.872  25.401  1.00  0.00     0.057 C
HETATM   12  C21 UNL     1      42.104  22.734  22.855  1.00  0.00    -0.034 A
HETATM   13  C22 UNL     1      40.996  21.705  22.649  1.00  0.00     0.050 C
HETATM   14  C23 UNL     1      42.884  23.204  21.840  1.00  0.00     0.036 A
ENDROOT
BRANCH   2  15
HETATM   15  N2  UNL     1      43.682  21.887  18.649  1.00  0.00    -0.340 N
ATOM     16  H2  UNL     1      43.032  21.885  17.864  1.00  0.00     0.167 HD
BRANCH  15  17
HETATM   17  C5  UNL     1      44.606  20.823  18.781  1.00  0.00     0.035 A
HETATM   18  C6  UNL     1      45.636  20.830  19.688  1.00  0.00     0.029 A
HETATM   19  C7  UNL     1      46.484  19.752  19.752  1.00  0.00     0.004 A
HETATM   20  C8  UNL     1      46.353  18.647  18.938  1.00  0.00     0.024 A
HETATM   21  C9  UNL     1      45.309  18.641  18.019  1.00  0.00     0.036 A
HETATM   22 CL1  UNL     1      45.145  17.232  16.986  1.00  0.00    -0.084 Cl
HETATM   23  C10 UNL     1      44.456  19.714  17.949  1.00  0.00     0.053 A
ENDBRANCH  15  17
ENDBRANCH   2  15
BRANCH   1  24
HETATM   24  N1  UNL     1      41.593  22.316  20.185  1.00  0.00    -0.366 N
ATOM     25  H1  UNL     1      40.885  22.614  20.855  1.00  0.00     0.165 HD
BRANCH  24  26
HETATM   26  C2  UNL     1      41.022  21.512  19.198  1.00  0.00     0.057 C
HETATM   27  C1  UNL     1      40.952  20.024  19.516  1.00  0.00     0.054 C
ENDBRANCH  24  26
ENDBRANCH   1  24
BRANCH   5  28
HETATM   28  N4  UNL     1      45.362  26.064  19.532  1.00  0.00    -0.222 N
HETATM   29  C12 UNL     1      45.279  27.264  20.343  1.00  0.00     0.168 C
BRANCH  28  30
HETATM   30  C13 UNL     1      45.903  26.166  18.229  1.00  0.00     0.142 C
BRANCH  30  31
HETATM   31  C14 UNL     1      47.393  26.364  18.164  1.00  0.00     0.050 C
BRANCH  31  32
HETATM   32  C15 UNL     1      47.878  27.161  17.002  1.00  0.00     0.273 C
BRANCH  32  33
HETATM   33  N5  UNL     1      48.642  28.290  17.498  1.00  0.00     0.080 N
HETATM   34  C16 UNL     1      49.365  28.933  16.423  1.00  0.00     0.309 C
HETATM   35  C17 UNL     1      47.843  29.222  18.254  1.00  0.00     0.309 C
ENDBRANCH  32  33
ENDBRANCH  31  32
ENDBRANCH  30  31
ENDBRANCH  28  30
ENDBRANCH   5  28
TORSDOF 9
ENDMDL