MODEL 5
REMARK VINA RESULT: -8.605620647      2.631      8.812
REMARK  9 active torsions:
REMARK  status: ('A' for Active; 'I' for Inactive)
REMARK    1  A    between atoms: C2_2  and  C3_3
REMARK    2  A    between atoms: C3_3  and  C4_4
REMARK    3  A    between atoms: C4_4  and  C5_5
REMARK       I    between atoms: C5_5  and  N1_7
REMARK    4  A    between atoms: C9_11  and  C10_12
REMARK    5  A    between atoms: C12_15  and  N2_16
REMARK    6  A    between atoms: N2_16  and  C13_18
REMARK    7  A    between atoms: C13_18  and  C14_19
REMARK    8  A    between atoms: N5_28  and  O2_30
REMARK    9  A    between atoms: O2_30  and  C19_31
ROOT
HETATM    1  C5  UNL     1      44.076  20.712  18.945  1.00  0.00     0.220 C
HETATM    2  O1  UNL     1      45.108  20.936  18.234  1.00  0.00    -0.273 OA
HETATM    3  N1  UNL     1      43.179  21.775  19.139  1.00  0.00    -0.342 N
HETATM    4  C6  UNL     1      41.963  21.703  19.912  1.00  0.00     0.127 C
HETATM    5  C7  UNL     1      41.030  22.678  19.224  1.00  0.00     0.022 C
HETATM    6  C8  UNL     1      41.877  23.444  18.221  1.00  0.00     0.033 C
HETATM    7  C9  UNL     1      43.281  23.146  18.615  1.00  0.00     0.137 C
ENDROOT
BRANCH   7   8
HETATM    8  C10 UNL     1      43.766  24.053  19.735  1.00  0.00     0.041 A
HETATM    9  C11 UNL     1      43.376  23.827  21.024  1.00  0.00     0.080 A
HETATM   10  S1  UNL     1      44.187  25.077  21.866  1.00  0.00    -0.064 SA
HETATM   11  C12 UNL     1      44.965  25.803  20.533  1.00  0.00     0.144 A
HETATM   12  N4  UNL     1      44.568  25.057  19.508  1.00  0.00    -0.338 N
ATOM     13  H4  UNL     1      44.885  25.265  18.561  1.00  0.00     0.168 HD
BRANCH  11  14
HETATM   14  N2  UNL     1      45.770  26.851  20.500  1.00  0.00    -0.370 N
ATOM     15  H2  UNL     1      45.645  27.650  21.121  1.00  0.00     0.161 HD
BRANCH  14  16
HETATM   16  C13 UNL     1      46.840  26.794  19.527  1.00  0.00     0.126 C
BRANCH  16  17
HETATM   17  C14 UNL     1      46.561  27.698  18.344  1.00  0.00     0.006 C
HETATM   18  C15 UNL     1      46.740  26.963  17.048  1.00  0.00     0.025 C
HETATM   19  C16 UNL     1      48.198  26.814  16.672  1.00  0.00     0.114 C
HETATM   20  N3  UNL     1      48.900  28.061  16.677  1.00  0.00    -0.421 N
HETATM   21  C17 UNL     1      48.768  28.822  17.879  1.00  0.00     0.114 C
ATOM     22  H3  UNL     1      49.453  28.382  15.883  1.00  0.00     0.153 HD
HETATM   23  C18 UNL     1      47.361  28.961  18.365  1.00  0.00     0.025 C
ENDBRANCH  16  17
ENDBRANCH  14  16
ENDBRANCH  11  14
ENDBRANCH   7   8
BRANCH   1  24
HETATM   24  C4  UNL     1      43.921  19.365  19.496  1.00  0.00     0.108 C
BRANCH  24  25
HETATM   25  C3  UNL     1      43.688  18.334  18.441  1.00  0.00     0.063 C
BRANCH  25  26
HETATM   26  C2  UNL     1      44.963  17.698  18.069  1.00  0.00     0.006 C
HETATM   27  C1  UNL     1      46.046  17.617  19.069  1.00  0.00     0.065 C
HETATM   28  N5  UNL     1      45.153  17.214  16.901  1.00  0.00    -0.275 N
ATOM     29  H5  UNL     1      44.406  17.269  16.209  1.00  0.00     0.193 HD
BRANCH  28  30
HETATM   30  O2  UNL     1      46.334  16.628  16.565  1.00  0.00    -0.271 OA
BRANCH  30  31
HETATM   31  C19 UNL     1      47.110  16.923  15.443  1.00  0.00     0.078 C
HETATM   32  C20 UNL     1      46.247  16.834  14.202  1.00  0.00     0.048 C
HETATM   33  C21 UNL     1      47.685  18.327  15.476  1.00  0.00     0.048 C
HETATM   34  C22 UNL     1      48.238  15.939  15.310  1.00  0.00     0.048 C
ENDBRANCH  30  31
ENDBRANCH  28  30
ENDBRANCH  25  26
ENDBRANCH  24  25
ENDBRANCH   1  24
TORSDOF 9
ENDMDL