MODEL 4
REMARK VINA RESULT: -9.254237069      2.231      3.296
REMARK  8 active torsions:
REMARK  status: ('A' for Active; 'I' for Inactive)
REMARK    1  A    between atoms: C2_2  and  N1_3
REMARK    2  A    between atoms: C3_4  and  N2_5
REMARK    3  A    between atoms: N2_5  and  N3_7
REMARK       I    between atoms: N3_7  and  C4_9
REMARK    4  A    between atoms: C4_9  and  C5_11
REMARK    5  A    between atoms: C5_11  and  O2_12
REMARK    6  A    between atoms: O2_12  and  C6_13
REMARK    7  A    between atoms: C10_17  and  C11_18
REMARK    8  A    between atoms: C15_23  and  O3_24
ROOT
HETATM    1  C11 UNL     1      45.776  25.456  19.103  1.00  0.00     0.022 C
HETATM    2  C12 UNL     1      45.867  26.210  18.056  1.00  0.00     0.094 C
HETATM    3  C13 UNL     1      47.136  26.856  17.730  1.00  0.00     0.087 C
HETATM    4  N4  UNL     1      48.132  27.384  17.472  1.00  0.00    -0.192 NA
ENDROOT
BRANCH   1   5
HETATM    5  C10 UNL     1      44.568  24.766  19.521  1.00  0.00    -0.032 A
HETATM    6  C9  UNL     1      43.633  24.359  18.622  1.00  0.00     0.021 A
HETATM    7  C7  UNL     1      42.481  23.696  19.063  1.00  0.00    -0.025 A
HETATM    8  C6  UNL     1      42.280  23.448  20.400  1.00  0.00     0.108 A
HETATM    9  C8  UNL     1      41.509  23.286  18.014  1.00  0.00     0.051 C
HETATM   10  C15 UNL     1      43.200  23.844  21.318  1.00  0.00     0.102 A
HETATM   11  C14 UNL     1      44.323  24.493  20.863  1.00  0.00     0.051 A
BRANCH   8  12
HETATM   12  O2  UNL     1      41.137  22.793  20.815  1.00  0.00    -0.339 OA
BRANCH  12  13
HETATM   13  C5  UNL     1      41.171  21.555  21.504  1.00  0.00     0.280 C
BRANCH  13  14
HETATM   14  C4  UNL     1      41.301  20.419  20.529  1.00  0.00     0.260 C
HETATM   15  N3  UNL     1      42.418  19.551  20.521  1.00  0.00    -0.254 N
ATOM     16  H3  UNL     1      43.172  19.687  21.195  1.00  0.00     0.190 HD
HETATM   17  O1  UNL     1      40.392  20.223  19.687  1.00  0.00    -0.269 OA
BRANCH  15  18
HETATM   18  N2  UNL     1      42.492  18.527  19.611  1.00  0.00    -0.129 N
ATOM     19  H2  UNL     1      41.717  17.868  19.549  1.00  0.00     0.205 HD
BRANCH  18  20
HETATM   20  C3  UNL     1      43.525  18.367  18.817  1.00  0.00     0.700 A
HETATM   21  N1  UNL     1      44.308  19.338  18.321  1.00  0.00    -0.180 N
HETATM   22  C23 UNL     1      45.273  18.833  17.545  1.00  0.00     0.081 A
HETATM   23  C17 UNL     1      45.091  17.466  17.549  1.00  0.00     0.098 A
HETATM   24  C22 UNL     1      46.325  19.390  16.807  1.00  0.00     0.039 A
HETATM   25  N5  UNL     1      44.021  17.216  18.331  1.00  0.00    -0.186 N
HETATM   26  C18 UNL     1      45.964  16.691  16.815  1.00  0.00     0.064 A
ATOM     27  H5  UNL     1      43.643  16.289  18.525  1.00  0.00     0.184 HD
HETATM   28 CL1  UNL     1      45.702  14.951  16.844  1.00  0.00    -0.082 Cl
HETATM   29  C19 UNL     1      47.004  17.237  16.086  1.00  0.00     0.033 A
HETATM   30  C20 UNL     1      47.191  18.603  16.078  1.00  0.00    -0.058 A
HETATM   31  C21 UNL     1      48.316  19.184  15.286  1.00  0.00     0.048 C
BRANCH  21  32
HETATM   32  C2  UNL     1      44.141  20.750  18.585  1.00  0.00     0.143 C
HETATM   33  C1  UNL     1      45.227  21.159  19.566  1.00  0.00     0.027 C
ENDBRANCH  21  32
ENDBRANCH  18  20
ENDBRANCH  15  18
ENDBRANCH  13  14
ENDBRANCH  12  13
ENDBRANCH   8  12
BRANCH  10  34
HETATM   34  O3  UNL     1      43.060  23.625  22.689  1.00  0.00    -0.353 OA
HETATM   35  C16 UNL     1      43.768  24.415  23.617  1.00  0.00     0.210 C
ENDBRANCH  10  34
ENDBRANCH   1   5
TORSDOF 8
ENDMDL