MODEL 3
REMARK VINA RESULT: -8.486052227      2.740      3.996
REMARK  7 active torsions:
REMARK  status: ('A' for Active; 'I' for Inactive)
REMARK    1  A    between atoms: C2_2  and  C4_4
REMARK    2  A    between atoms: C4_4  and  C5_5
REMARK       I    between atoms: C5_5  and  N1_7
REMARK    3  A    between atoms: N1_7  and  C6_9
REMARK    4  A    between atoms: C6_9  and  C8_11
REMARK    5  A    between atoms: C8_11  and  N2_12
REMARK    6  A    between atoms: N4_19  and  C11_20
REMARK    7  A    between atoms: C11_20  and  C12_21
ROOT
HETATM    1  N2  UNL     1      44.867  25.611  19.321  1.00  0.00    -0.249 N
HETATM    2  C9  UNL     1      44.682  26.392  20.395  1.00  0.00     0.332 A
HETATM    3  O2  UNL     1      44.961  27.639  20.367  1.00  0.00    -0.246 OA
HETATM    4  N3  UNL     1      44.196  25.907  21.543  1.00  0.00    -0.284 N
ATOM      5  H3  UNL     1      44.067  26.528  22.342  1.00  0.00     0.173 HD
HETATM    6  C10 UNL     1      43.879  24.611  21.651  1.00  0.00     0.186 A
HETATM    7  S1  UNL     1      43.351  24.035  23.117  1.00  0.00    -0.040 SA
HETATM    8  N4  UNL     1      44.047  23.799  20.599  1.00  0.00    -0.275 N
HETATM    9  C21 UNL     1      44.545  24.321  19.442  1.00  0.00     0.335 A
HETATM   10  O3  UNL     1      44.699  23.551  18.469  1.00  0.00    -0.246 OA
ENDROOT
BRANCH   1  11
HETATM   11  C8  UNL     1      45.396  26.207  18.127  1.00  0.00     0.163 C
BRANCH  11  12
HETATM   12  C6  UNL     1      46.878  26.431  18.129  1.00  0.00     0.099 C
HETATM   13  C7  UNL     1      47.645  25.503  19.032  1.00  0.00     0.034 C
BRANCH  12  14
HETATM   14  N1  UNL     1      47.296  27.766  18.407  1.00  0.00    -0.355 N
HETATM   15  C5  UNL     1      48.149  28.468  17.532  1.00  0.00     0.218 C
HETATM   16  O1  UNL     1      48.557  27.910  16.483  1.00  0.00    -0.274 OA
ATOM     17  H1  UNL     1      46.970  28.224  19.258  1.00  0.00     0.162 HD
BRANCH  15  18
HETATM   18  C4  UNL     1      48.602  29.864  17.794  1.00  0.00     0.106 C
BRANCH  18  19
HETATM   19  C2  UNL     1      50.079  30.020  17.513  1.00  0.00    -0.014 C
HETATM   20  C1  UNL     1      50.719  30.839  18.633  1.00  0.00     0.010 C
HETATM   21  C3  UNL     1      50.254  30.713  16.194  1.00  0.00     0.010 C
ENDBRANCH  18  19
ENDBRANCH  15  18
ENDBRANCH  12  14
ENDBRANCH  11  12
ENDBRANCH   1  11
BRANCH   8  22
HETATM   22  C11 UNL     1      43.662  22.397  20.629  1.00  0.00     0.142 C
BRANCH  22  23
HETATM   23  C12 UNL     1      42.568  22.048  19.703  1.00  0.00     0.027 C
HETATM   24  C13 UNL     1      41.296  22.766  19.717  1.00  0.00     0.009 C
HETATM   25  C14 UNL     1      40.312  22.255  20.688  1.00  0.00     0.009 C
HETATM   26  C15 UNL     1      40.452  20.907  21.244  1.00  0.00    -0.046 C
HETATM   27  C16 UNL     1      40.719  21.052  22.754  1.00  0.00     0.015 C
HETATM   28  C17 UNL     1      39.074  20.218  21.198  1.00  0.00     0.015 C
HETATM   29  C18 UNL     1      41.474  20.004  20.680  1.00  0.00     0.034 C
HETATM   30  C19 UNL     1      42.327  20.558  19.595  1.00  0.00     0.039 C
HETATM   31  C20 UNL     1      41.710  20.313  18.233  1.00  0.00     0.033 C
HETATM   32 CL1  UNL     1      43.932  19.786  19.587  1.00  0.00    -0.119 Cl
ENDBRANCH  22  23
ENDBRANCH   8  22
TORSDOF 7
ENDMDL