MODEL 5
REMARK VINA RESULT: -7.896297451      5.267      9.167
REMARK  9 active torsions:
REMARK  status: ('A' for Active; 'I' for Inactive)
REMARK    1  A    between atoms: C2_2  and  C3_3
REMARK    2  A    between atoms: C3_3  and  N1_4
REMARK    3  A    between atoms: C5_7  and  N3_8
REMARK    4  A    between atoms: N3_8  and  C7_10
REMARK    5  A    between atoms: C7_10  and  C8_11
REMARK    6  A    between atoms: C8_11  and  N4_12
REMARK    7  A    between atoms: N4_12  and  C9_13
REMARK    8  A    between atoms: N4_12  and  C15_20
REMARK    9  A    between atoms: C9_13  and  C11_16
ROOT
HETATM    1  C8  UNL     1      45.499  15.661  13.703  1.00  0.00     0.090 C
ENDROOT
BRANCH   1   2
HETATM    2  C7  UNL     1      45.017  16.118  12.407  1.00  0.00     0.167 C
BRANCH   2   3
HETATM    3  N3  UNL     1      44.344  15.232  11.518  1.00  0.00    -0.373 N
HETATM    4  C6  UNL     1      44.900  14.169  10.743  1.00  0.00     0.150 C
BRANCH   3   5
HETATM    5  C5  UNL     1      42.911  15.398  11.355  1.00  0.00     0.141 A
HETATM    6  C4  UNL     1      42.434  16.318  10.453  1.00  0.00     0.154 A
HETATM    7  N1  UNL     1      41.096  16.444  10.330  1.00  0.00    -0.285 N
HETATM    8  N2  UNL     1      43.293  17.132   9.657  1.00  0.00    -0.080 NA
HETATM    9  C24 UNL     1      40.293  15.672  11.086  1.00  0.00     0.330 A
HETATM   10  N5  UNL     1      40.771  14.772  11.967  1.00  0.00    -0.273 N
HETATM   11  O2  UNL     1      39.042  15.784  10.979  1.00  0.00    -0.246 OA
HETATM   12  C23 UNL     1      42.107  14.609  12.127  1.00  0.00     0.279 A
ATOM     13  H5  UNL     1      40.122  14.209  12.518  1.00  0.00     0.173 HD
HETATM   14  O1  UNL     1      42.544  13.764  12.956  1.00  0.00    -0.265 OA
BRANCH   7  15
HETATM   15  C3  UNL     1      40.577  17.406   9.394  1.00  0.00     0.135 C
BRANCH  15  16
HETATM   16  C2  UNL     1      40.250  18.741   9.984  1.00  0.00     0.016 C
HETATM   17  C1  UNL     1      38.850  19.209   9.781  1.00  0.00     0.006 C
ENDBRANCH  15  16
ENDBRANCH   7  15
ENDBRANCH   3   5
ENDBRANCH   2   3
ENDBRANCH   1   2
BRANCH   1  18
HETATM   18  N4  UNL     1      46.515  16.189  14.486  1.00  0.00    -0.325 N
BRANCH  18  19
HETATM   19  C9  UNL     1      47.862  15.929  13.959  1.00  0.00     0.050 C
HETATM   20  C10 UNL     1      48.330  16.923  13.234  1.00  0.00     0.214 C
HETATM   21  F1  UNL     1      49.511  17.004  12.617  1.00  0.00    -0.217 F
BRANCH  19  22
HETATM   22  C11 UNL     1      48.637  14.731  14.160  1.00  0.00    -0.006 C
HETATM   23  C12 UNL     1      49.960  14.937  14.894  1.00  0.00     0.021 C
HETATM   24  C13 UNL     1      49.060  14.242  12.749  1.00  0.00     0.021 C
HETATM   25  C14 UNL     1      47.981  13.559  14.803  1.00  0.00     0.021 C
ENDBRANCH  19  22
ENDBRANCH  18  19
BRANCH  18  26
HETATM   26  C15 UNL     1      46.507  16.917  15.663  1.00  0.00     0.044 A
HETATM   27  C16 UNL     1      46.439  18.325  15.530  1.00  0.00     0.031 A
HETATM   28  C17 UNL     1      46.395  19.174  16.602  1.00  0.00     0.009 A
HETATM   29  C18 UNL     1      46.415  18.671  17.885  1.00  0.00    -0.061 A
HETATM   30  C19 UNL     1      46.367  19.545  19.082  1.00  0.00     0.048 C
HETATM   31  C20 UNL     1      46.479  17.319  18.031  1.00  0.00     0.015 A
HETATM   32  C21 UNL     1      46.524  16.459  16.955  1.00  0.00    -0.034 A
HETATM   33  C22 UNL     1      46.570  15.030  17.258  1.00  0.00     0.050 C
ENDBRANCH  18  26
ENDBRANCH   1  18
TORSDOF 9
ENDMDL