MODEL 3
REMARK VINA RESULT: -7.210051047      0.864      1.271
REMARK  9 active torsions:
REMARK  status: ('A' for Active; 'I' for Inactive)
REMARK    1  A    between atoms: C2_2  and  C3_3
REMARK    2  A    between atoms: C3_3  and  N1_4
REMARK    3  A    between atoms: N1_4  and  C5_6
REMARK    4  A    between atoms: C5_6  and  C6_7
REMARK    5  A    between atoms: C6_7  and  C7_8
REMARK    6  A    between atoms: C7_8  and  O1_9
REMARK    7  A    between atoms: O1_9  and  C8_10
REMARK    8  A    between atoms: C11_13  and  O2_14
REMARK    9  A    between atoms: C17_23  and  O4_24
ROOT
HETATM    1  C8  UNL     1      43.661  19.311  19.156  1.00  0.00     0.095 A
HETATM    2  C9  UNL     1      42.380  19.803  18.957  1.00  0.00     0.007 A
HETATM    3  C10 UNL     1      41.249  18.862  18.752  1.00  0.00     0.054 C
HETATM    4  C11 UNL     1      42.169  21.162  18.952  1.00  0.00     0.089 A
HETATM    5  C12 UNL     1      43.244  22.020  19.148  1.00  0.00     0.064 A
HETATM    6  C13 UNL     1      44.515  21.547  19.345  1.00  0.00     0.052 A
HETATM    7  C14 UNL     1      44.715  20.182  19.347  1.00  0.00     0.060 A
HETATM    8 BR1  UNL     1      46.445  19.492  19.615  1.00  0.00    -0.047 Br
HETATM    9  C15 UNL     1      45.680  22.437  19.554  1.00  0.00     0.198 A
HETATM   10  O3  UNL     1      46.808  21.912  19.727  1.00  0.00    -0.286 OA
HETATM   11  C16 UNL     1      45.503  23.881  19.557  1.00  0.00     0.062 A
HETATM   12  C17 UNL     1      46.579  24.745  19.750  1.00  0.00     0.080 A
HETATM   13  C18 UNL     1      46.300  26.135  19.734  1.00  0.00     0.037 A
HETATM   14  C19 UNL     1      45.036  26.620  19.537  1.00  0.00     0.004 A
HETATM   15  C20 UNL     1      44.010  25.720  19.351  1.00  0.00     0.017 A
HETATM   16  C21 UNL     1      44.215  24.356  19.357  1.00  0.00     0.032 A
HETATM   17  C22 UNL     1      43.061  23.462  19.149  1.00  0.00     0.197 A
HETATM   18  O5  UNL     1      41.910  23.927  18.971  1.00  0.00    -0.286 OA
ENDROOT
BRANCH   1  19
HETATM   19  O1  UNL     1      43.805  17.932  19.148  1.00  0.00    -0.349 OA
BRANCH  19  20
HETATM   20  C7  UNL     1      44.305  17.332  17.977  1.00  0.00     0.177 C
BRANCH  20  21
HETATM   21  C6  UNL     1      45.652  16.655  18.226  1.00  0.00     0.057 C
BRANCH  21  22
HETATM   22  C5  UNL     1      45.842  15.688  17.079  1.00  0.00     0.274 C
BRANCH  22  23
HETATM   23  N1  UNL     1      45.935  16.322  15.808  1.00  0.00     0.087 N
HETATM   24  C4  UNL     1      47.153  17.074  15.621  1.00  0.00     0.310 C
BRANCH  23  25
HETATM   25  C3  UNL     1      45.640  15.516  14.672  1.00  0.00     0.298 C
BRANCH  25  26
HETATM   26  C2  UNL     1      46.026  16.157  13.408  1.00  0.00    -0.007 C
HETATM   27  C1  UNL     1      45.256  16.132  12.321  1.00  0.00     0.008 C
ENDBRANCH  25  26
ENDBRANCH  23  25
ENDBRANCH  22  23
ENDBRANCH  21  22
ENDBRANCH  20  21
ENDBRANCH  19  20
ENDBRANCH   1  19
BRANCH   4  28
HETATM   28  O2  UNL     1      40.890  21.694  18.756  1.00  0.00    -0.359 OA
ATOM     29  H2  UNL     1      40.292  21.311  18.124  1.00  0.00     0.217 HD
ENDBRANCH   4  28
BRANCH  12  30
HETATM   30  O4  UNL     1      47.852  24.338  19.950  1.00  0.00    -0.360 OA
ATOM     31  H4  UNL     1      48.267  24.282  20.803  1.00  0.00     0.217 HD
ENDBRANCH  12  30
TORSDOF 9
ENDMDL