MODEL 1
REMARK VINA RESULT: -7.332751022      0.000      0.000
REMARK  8 active torsions:
REMARK  status: ('A' for Active; 'I' for Inactive)
REMARK    1  A    between atoms: C2_2  and  N1_3
REMARK    2  A    between atoms: N1_3  and  C3_4
REMARK    3  A    between atoms: N1_3  and  C9_14
REMARK    4  A    between atoms: C3_4  and  C4_5
REMARK    5  A    between atoms: C4_5  and  N2_6
REMARK    6  A    between atoms: C9_14  and  C10_15
REMARK    7  A    between atoms: C14_21  and  C15_22
REMARK    8  A    between atoms: C21_29  and  O3_30
ROOT
HETATM    1  C10 UNL     1      42.552  21.390  20.360  1.00  0.00     0.119 A
HETATM    2  O1  UNL     1      43.804  21.209  20.041  1.00  0.00    -0.308 OA
HETATM    3  C11 UNL     1      44.218  20.246  19.276  1.00  0.00     0.107 A
HETATM    4  C12 UNL     1      45.545  20.073  18.949  1.00  0.00     0.046 A
HETATM    5 BR1  UNL     1      46.900  21.250  19.626  1.00  0.00    -0.048 Br
HETATM    6  C13 UNL     1      45.914  19.016  18.122  1.00  0.00     0.029 A
HETATM    7  C14 UNL     1      45.006  18.128  17.610  1.00  0.00    -0.052 A
HETATM    8  C18 UNL     1      43.686  18.335  17.960  1.00  0.00     0.026 A
HETATM    9  C19 UNL     1      43.272  19.351  18.764  1.00  0.00     0.053 A
HETATM   10  C20 UNL     1      41.943  19.504  19.076  1.00  0.00     0.220 A
HETATM   11  O2  UNL     1      41.053  18.724  18.641  1.00  0.00    -0.284 OA
HETATM   12  C21 UNL     1      41.555  20.533  19.885  1.00  0.00     0.149 A
ENDROOT
BRANCH   1  13
HETATM   13  C9  UNL     1      42.163  22.503  21.239  1.00  0.00     0.340 C
BRANCH  13  14
HETATM   14  N1  UNL     1      43.254  23.448  21.392  1.00  0.00     0.096 N
BRANCH  14  15
HETATM   15  C2  UNL     1      43.275  23.943  22.761  1.00  0.00     0.268 C
HETATM   16  C1  UNL     1      42.307  23.139  23.630  1.00  0.00     0.037 C
ENDBRANCH  14  15
BRANCH  14  17
HETATM   17  C3  UNL     1      43.166  24.562  20.499  1.00  0.00     0.303 C
BRANCH  17  18
HETATM   18  C4  UNL     1      44.329  24.877  19.663  1.00  0.00     0.302 C
BRANCH  18  19
HETATM   19  N2  UNL     1      45.605  25.087  20.247  1.00  0.00     0.093 N
HETATM   20  C5  UNL     1      45.451  26.308  21.071  1.00  0.00     0.300 C
HETATM   21  C6  UNL     1      45.105  27.499  20.231  1.00  0.00     0.262 C
HETATM   22  N3  UNL     1      45.974  27.710  19.117  1.00  0.00    -0.072 N
HETATM   23  C7  UNL     1      46.268  26.537  18.356  1.00  0.00     0.262 C
ATOM     24  H32 UNL     1      45.600  28.440  18.510  1.00  0.00     0.277 HD
ATOM     25  H31 UNL     1      46.837  28.159  19.423  1.00  0.00     0.277 HD
HETATM   26  C8  UNL     1      46.633  25.392  19.250  1.00  0.00     0.300 C
ENDBRANCH  18  19
ENDBRANCH  17  18
ENDBRANCH  14  17
ENDBRANCH  13  14
ENDBRANCH   1  13
BRANCH  12  27
HETATM   27  O3  UNL     1      40.259  20.779  20.259  1.00  0.00    -0.355 OA
ATOM     28  H3  UNL     1      39.569  20.588  19.635  1.00  0.00     0.218 HD
ENDBRANCH  12  27
BRANCH   7  29
HETATM   29  C15 UNL     1      45.375  17.003  16.721  1.00  0.00     0.010 C
HETATM   30  C16 UNL     1      46.115  17.610  15.515  1.00  0.00     0.015 C
HETATM   31  C17 UNL     1      46.203  15.953  17.379  1.00  0.00     0.015 C
ENDBRANCH   7  29
TORSDOF 8
ENDMDL