MODEL 5
REMARK VINA RESULT: -7.140995326      2.850      5.333
REMARK  8 active torsions:
REMARK  status: ('A' for Active; 'I' for Inactive)
REMARK    1  A    between atoms: C2_2  and  N1_3
REMARK    2  A    between atoms: N1_3  and  C3_4
REMARK    3  A    between atoms: N1_3  and  C5_7
REMARK    4  A    between atoms: C5_7  and  C6_8
REMARK    5  A    between atoms: C6_8  and  C7_9
REMARK    6  A    between atoms: C7_9  and  C8_10
REMARK    7  A    between atoms: C12_16  and  C13_17
REMARK    8  A    between atoms: C13_17  and  N4_18
ROOT
HETATM    1  C3  UNL     1      45.438  27.380  20.094  1.00  0.00     0.395 C
HETATM    2  C4  UNL     1      46.272  27.878  18.982  1.00  0.00     0.089 C
HETATM    3  N2  UNL     1      46.945  28.267  18.114  1.00  0.00    -0.195 NA
ENDROOT
BRANCH   1   4
HETATM    4  N1  UNL     1      45.145  25.948  19.887  1.00  0.00     0.100 N
BRANCH   4   5
HETATM    5  C2  UNL     1      46.123  25.466  18.995  1.00  0.00     0.269 C
HETATM    6  C1  UNL     1      47.192  24.576  19.499  1.00  0.00     0.037 C
ENDBRANCH   4   5
BRANCH   4   7
HETATM    7  C5  UNL     1      44.991  25.365  21.159  1.00  0.00     0.273 C
BRANCH   7   8
HETATM    8  C6  UNL     1      43.597  24.932  21.550  1.00  0.00     0.031 C
BRANCH   8   9
HETATM    9  C7  UNL     1      43.159  23.804  20.657  1.00  0.00     0.017 C
BRANCH   9  10
HETATM   10  C8  UNL     1      43.202  22.437  21.259  1.00  0.00     0.072 C
HETATM   11  C9  UNL     1      42.014  22.108  22.025  1.00  0.00     0.030 A
HETATM   12  N3  UNL     1      42.081  22.751  23.200  1.00  0.00    -0.361 N
HETATM   13  C16 UNL     1      40.895  21.340  21.792  1.00  0.00     0.010 A
HETATM   14  C10 UNL     1      41.173  22.711  24.145  1.00  0.00     0.014 A
ATOM     15  H3  UNL     1      42.910  23.320  23.374  1.00  0.00     0.165 HD
HETATM   16  C11 UNL     1      41.291  23.450  25.431  1.00  0.00     0.068 C
HETATM   17  C12 UNL     1      40.009  21.934  23.941  1.00  0.00    -0.004 A
HETATM   18  C14 UNL     1      39.872  21.256  22.767  1.00  0.00    -0.039 A
HETATM   19  C15 UNL     1      38.612  20.519  22.464  1.00  0.00     0.050 C
HETATM   20  C17 UNL     1      40.598  20.475  20.672  1.00  0.00     0.116 C
HETATM   21  N5  UNL     1      41.642  20.066  19.795  1.00  0.00    -0.271 N
HETATM   22  C18 UNL     1      41.405  19.016  18.928  1.00  0.00     0.331 A
HETATM   23  C24 UNL     1      42.881  20.456  19.602  1.00  0.00     0.079 A
HETATM   24  O1  UNL     1      40.352  18.369  18.797  1.00  0.00    -0.246 OA
HETATM   25  N6  UNL     1      42.527  18.808  18.232  1.00  0.00    -0.305 N
HETATM   26  C19 UNL     1      43.487  19.670  18.602  1.00  0.00     0.086 A
ATOM     27  H6  UNL     1      42.639  18.090  17.516  1.00  0.00     0.171 HD
HETATM   28  C20 UNL     1      44.776  19.897  18.239  1.00  0.00     0.063 A
HETATM   29 CL1  UNL     1      45.487  18.896  16.995  1.00  0.00    -0.082 Cl
HETATM   30  C21 UNL     1      45.478  20.909  18.865  1.00  0.00     0.027 A
HETATM   31  C22 UNL     1      44.882  21.683  19.846  1.00  0.00     0.012 A
HETATM   32  C23 UNL     1      43.573  21.454  20.218  1.00  0.00    -0.018 A
BRANCH  17  33
HETATM   33  C13 UNL     1      39.052  21.893  25.048  1.00  0.00     0.270 C
BRANCH  33  34
HETATM   34  N4  UNL     1      37.882  22.674  24.954  1.00  0.00    -0.075 N
ATOM     35  H43 UNL     1      37.653  22.812  23.970  1.00  0.00     0.274 HD
ATOM     36  H42 UNL     1      37.085  22.117  25.264  1.00  0.00     0.274 HD
ATOM     37  H41 UNL     1      37.860  23.576  25.430  1.00  0.00     0.274 HD
ENDBRANCH  33  34
ENDBRANCH  17  33
ENDBRANCH   9  10
ENDBRANCH   8   9
ENDBRANCH   7   8
ENDBRANCH   4   7
ENDBRANCH   1   4
TORSDOF 8
ENDMDL