MODEL 3
REMARK VINA RESULT: -8.128092377      2.180      4.862
REMARK  9 active torsions:
REMARK  status: ('A' for Active; 'I' for Inactive)
REMARK    1  A    between atoms: C6_6  and  N1_8
REMARK    2  A    between atoms: C9_13  and  C10_14
REMARK    3  A    between atoms: C10_14  and  O1_15
REMARK    4  A    between atoms: O1_15  and  C11_16
REMARK    5  A    between atoms: C13_18  and  N2_19
REMARK    6  A    between atoms: C16_25  and  O4_26
REMARK    7  A    between atoms: O4_26  and  C17_27
REMARK    8  A    between atoms: C17_27  and  C18_28
REMARK    9  A    between atoms: C18_28  and  O5_29
ROOT
HETATM    1  C10 UNL     1      45.758  21.656  19.413  1.00  0.00     0.181 C
ENDROOT
BRANCH   1   2
HETATM    2  C9  UNL     1      45.088  20.485  18.730  1.00  0.00     0.020 C
HETATM    3  C8  UNL     1      46.021  19.307  19.034  1.00  0.00     0.046 C
HETATM    4  C6  UNL     1      45.424  17.970  18.861  1.00  0.00     0.124 C
HETATM    5  C5  UNL     1      44.141  17.945  18.071  1.00  0.00     0.072 C
HETATM    6  C7  UNL     1      46.422  17.124  18.053  1.00  0.00     0.046 C
HETATM    7  C4  UNL     1      43.199  18.979  18.540  1.00  0.00    -0.076 C
HETATM    8  C3  UNL     1      41.890  19.069  18.422  1.00  0.00    -0.019 C
HETATM    9  C19 UNL     1      43.758  20.150  19.284  1.00  0.00     0.021 C
HETATM   10  C2  UNL     1      41.371  20.315  19.066  1.00  0.00     0.005 C
HETATM   11  C1  UNL     1      40.923  19.973  20.456  1.00  0.00     0.014 C
HETATM   12  C20 UNL     1      42.656  21.145  19.060  1.00  0.00     0.017 C
BRANCH   4  13
HETATM   13  N1  UNL     1      45.275  17.252  20.127  1.00  0.00    -0.070 N
ATOM     14  H13 UNL     1      45.157  16.250  19.979  1.00  0.00     0.275 HD
ATOM     15  H12 UNL     1      46.150  17.230  20.650  1.00  0.00     0.275 HD
ATOM     16  H11 UNL     1      44.514  17.643  20.682  1.00  0.00     0.275 HD
ENDBRANCH   4  13
ENDBRANCH   1   2
BRANCH   1  17
HETATM   17  O1  UNL     1      45.136  22.855  19.426  1.00  0.00    -0.348 OA
BRANCH  17  18
HETATM   18  C11 UNL     1      44.789  23.766  20.358  1.00  0.00     0.105 A
HETATM   19  C12 UNL     1      44.140  23.383  21.506  1.00  0.00     0.075 A
HETATM   20  C13 UNL     1      43.780  24.330  22.479  1.00  0.00     0.107 A
HETATM   21  C14 UNL     1      44.104  25.645  22.231  1.00  0.00     0.058 A
HETATM   22  C15 UNL     1      44.756  26.025  21.077  1.00  0.00     0.049 A
HETATM   23 BR1  UNL     1      45.193  27.871  20.761  1.00  0.00    -0.048 Br
HETATM   24  C16 UNL     1      45.107  25.124  20.132  1.00  0.00     0.119 A
BRANCH  20  25
HETATM   25  N2  UNL     1      43.111  23.907  23.654  1.00  0.00    -0.116 N
HETATM   26  O2  UNL     1      42.102  23.207  23.566  1.00  0.00    -0.532 OA
HETATM   27  O3  UNL     1      43.587  24.274  24.883  1.00  0.00    -0.532 OA
ENDBRANCH  20  25
BRANCH  24  28
HETATM   28  O4  UNL     1      45.755  25.409  18.959  1.00  0.00    -0.345 OA
BRANCH  28  29
HETATM   29  C17 UNL     1      47.084  25.768  18.801  1.00  0.00     0.201 C
BRANCH  29  30
HETATM   30  C18 UNL     1      47.210  26.538  17.481  1.00  0.00     0.190 C
BRANCH  30  31
HETATM   31  O5  UNL     1      46.313  27.617  17.529  1.00  0.00    -0.399 OA
ATOM     32  H5  UNL     1      45.481  27.318  17.180  1.00  0.00     0.209 HD
ENDBRANCH  30  31
ENDBRANCH  29  30
ENDBRANCH  28  29
ENDBRANCH  24  28
ENDBRANCH  17  18
ENDBRANCH   1  17
TORSDOF 9
ENDMDL